ver_1.2
     RDKit          3D

 17 18  0  0  0  0  0  0  0  0999 V2000
   -3.1491    1.7803   -0.1447 C   0  0  0  0  0  0  0  0  0  0  0  0
   -2.9366    0.3095    0.0893 C   0  0  0  0  0  0  0  0  0  0  0  0
   -4.0438   -0.4705    0.3023 C   0  0  0  0  0  0  0  0  0  0  0  0
   -3.9327   -1.8394    0.5381 C   0  0  0  0  0  0  0  0  0  0  0  0
   -2.6274   -2.2977    0.5316 C   0  0  0  0  0  0  0  0  0  0  0  0
   -1.5179   -1.5290    0.3200 C   0  0  0  0  0  0  0  0  0  0  0  0
   -1.6373   -0.1832    0.0896 C   0  0  0  0  0  0  0  0  0  0  0  0
   -0.5650    0.7392   -0.1538 C   0  0  0  0  0  0  0  0  0  0  0  0
   -0.3609    1.1394   -1.3322 O   0  0  0  0  0  0  0  0  0  0  0  0
    0.2907    1.2415    0.8513 N   0  0  0  0  0  0  0  0  0  0  0  0
    1.3149    2.1708    0.3938 C   0  0  0  0  0  0  0  0  0  0  0  0
    2.1976    1.4630   -0.6108 C   0  0  0  0  0  0  0  0  0  0  0  0
    2.8191    0.3072    0.0858 C   0  0  0  0  0  0  0  0  0  0  0  0
    4.0360    0.4250    0.7553 C   0  0  0  0  0  0  0  0  0  0  0  0
    4.3288   -0.7278    1.2643 O   0  0  0  0  0  0  0  0  0  0  0  0
    3.3769   -1.5645    0.9593 C   0  0  0  0  0  0  0  0  0  0  0  0
    2.4067   -0.9638    0.2205 N   0  0  0  0  0  0  0  0  0  0  0  0
  1  2  1  0
  2  3  2  0
  3  4  1  0
  4  5  2  0
  5  6  1  0
  6  7  2  0
  7  8  1  0
  8  9  2  0
  8 10  1  0
 10 11  1  0
 11 12  1  0
 12 13  1  0
 13 14  2  0
 14 15  1  0
 15 16  1  0
 16 17  2  0
  7  2  1  0
 17 13  1  0
M  END
>  <ref_url>  (1) 
https://hippo.winokan.com

>  <submitter_name>  (1) 
Max Winokan

>  <submitter_email>  (1) 
max.winokan@diamond.ac.uk

>  <submitter_institution>  (1) 
DLS

>  <generation_date>  (1) 
2025-12-09

>  <method>  (1) 
openbind_a71ev2a_c1_elab_chemspace_filtered_scored_products

>  <Energy>  (1) 
Energy

>  <scratch_subdir>  (1) 
scratch_subdir

>  <fragmenstein_runtime>  (1) 
fragmenstein_runtime

>  <fragmenstein_outcome>  (1) 
fragmenstein_outcome

>  <fragmenstein_mode>  (1) 
fragmenstein_mode

>  <fragmenstein_error>  (1) 
fragmenstein_error

>  <exports>  (1) 
exports

>  <gnina_score>  (1) 
gnina_score

>  <gnina_score_min>  (1) 
gnina_score_min

>  <smina_score_min>  (1) 
smina_score_min

>  <rmsd(smina/fragmenstein)>  (1) 
rmsd(smina/fragmenstein)

>  <HIPPO Pose ID>  (1) 
HIPPO Pose ID

>  <HIPPO Compound ID>  (1) 
HIPPO Compound ID

>  <smiles>  (1) 
smiles

>  <ref_pdb>  (1) 
protein reference

>  <ref_mols>  (1) 
fragment inspirations

>  <alias>  (1) 
alias

>  <distance_score>  (1) 
distance_score

>  <energy_score>  (1) 
energy_score

>  <inspiration_score>  (1) 
inspiration_score

>  <subsites>  (1) 
subsites

>  <tags>  (1) 
tags

$$$$
P54398
     RDKit          3D

 17 18  0  0  0  0  0  0  0  0999 V2000
    6.9749   14.1457   24.3310 C   0  0  0  0  0  0  0  0  0  0  0  0
    6.6957   12.8627   25.0539 C   0  0  0  0  0  0  0  0  0  0  0  0
    5.5772   12.8042   25.8989 C   0  0  0  0  0  0  0  0  0  0  0  0
    5.1635   11.5942   26.4514 C   0  0  0  0  0  0  0  0  0  0  0  0
    5.8498   10.4240   26.1499 C   0  0  0  0  0  0  0  0  0  0  0  0
    6.9952   10.4741   25.3563 C   0  0  0  0  0  0  0  0  0  0  0  0
    7.4551   11.6988   24.8524 C   0  0  0  0  0  0  0  0  0  0  0  0
    8.7488   11.6818   24.1016 C   0  0  0  0  0  0  0  0  0  0  0  0
    8.9361   10.8237   23.3374 O   0  0  0  0  0  0  0  0  0  0  0  0
    9.6659   12.8356   24.5524 N   0  0  0  0  0  0  0  0  0  0  0  0
   10.9712   13.2302   24.0867 C   0  0  0  0  0  0  0  0  0  0  0  0
   11.0604   13.3051   22.5780 C   0  0  0  0  0  0  0  0  0  0  0  0
   10.4882   14.5348   22.0057 C   0  0  0  0  0  0  0  0  0  0  0  0
   11.0372   15.3130   21.0168 C   0  0  0  0  0  0  0  0  0  0  0  0
   10.1490   16.2928   20.7153 O   0  0  0  0  0  0  0  0  0  0  0  0
    9.1149   16.0686   21.5681 C   0  0  0  0  0  0  0  0  0  0  0  0
    9.2626   15.0374   22.3686 N   0  0  0  0  0  0  0  0  0  0  0  0
  1  2  1  0
  2  3  2  0
  3  4  1  0
  4  5  2  0
  5  6  1  0
  6  7  2  0
  7  8  1  0
  8  9  2  0
  8 10  1  0
 10 11  1  0
 11 12  1  0
 12 13  1  0
 13 14  2  0
 14 15  1  0
 15 16  1  0
 16 17  2  0
  7  2  1  0
 17 13  1  0
M  END
>  <distance_score>  (1) 
1.328692

>  <smiles>  (1) 
Cc1ccccc1C(=O)NCCc1cocn1

>  <fragmenstein_error>  (1) 


>  <fragmenstein_runtime>  (1) 
2.714253

>  <gnina_score_min>  (1) 
4.671

>  <orig_smiles>  (1) 
nan

>  <fragmenstein_mode>  (1) 
expansion

>  <rmsd(smina/fragmenstein)>  (1) 
0.644

>  <inspiration_score>  (1) 
None

>  <name>  (1) 
P54398

>  <ref_pdb>  (1) 
A5594a

>  <ref_mols>  (1) 
A3408a,A5594a

>  <subsites>  (1) 
1 - Active Site

>  <tags>  (1) 
openbind_a71ev2a_c1_scaffolds_chemok_bbok,openbind_a71ev2a_c1_fragmenstein,fragmenstein_placed,openbind_a71ev2a_c1_elab_chemspace_filtered_scored

>  <inchikey>  (1) 
UKWNMHGCUDXUJG-UHFFFAOYSA-N

>  <scratch_subdir>  (1) 
/opt/xchem-fragalysis-2/maxwin/BulkDock/SCRATCH/513029/C266892-P637

>  <smina_score_min>  (1) 
-5.601

>  <energy_score>  (1) 
-4.306167

>  <Energy>  (1) 
50.69272

>  <fragmenstein_outcome>  (1) 
too moved

>  <alias>  (1) 
None

>  <HIPPO Pose ID>  (1) 
54398

>  <exports>  (1) 
['/opt/xchem-fragalysis-2/maxwin/openbind-hippo/a71ev2a/cycle_01/bulkdock/openbind_a71ev2a_c1_elab_chemspace.sdf', '/opt/xchem-fragalysis-2/maxwin/openbind-hippo/a71ev2a/cycle_01/syndirella/elabs/openbind_a71ev2a_c1_elab_chemspace_filtered.sdf']

>  <HIPPO Compound ID>  (1) 
266892

>  <gnina_score>  (1) 
4.776

$$$$
C5989-P214
     RDKit          3D

 13 13  0  0  0  0  0  0  0  0999 V2000
   11.3660   15.6068   19.3201 C   0  0  0  0  0  0  0  0  0  0  0  0
   11.9514   15.7153   20.7211 C   0  0  0  0  0  0  0  0  0  0  0  0
   10.8605   15.9713   21.7093 C   0  0  0  0  0  0  0  0  0  0  0  0
   10.4322   15.1025   22.6390 C   0  0  0  0  0  0  0  0  0  0  0  0
   10.9906   13.7238   22.9116 C   0  0  0  0  0  0  0  0  0  0  0  0
    9.8070   12.9674   23.4884 C   0  0  0  0  0  0  0  0  0  0  0  0
    8.7007   13.8915   23.4322 N   0  0  0  0  0  0  0  0  0  0  0  0
    7.3883   13.5112   23.4555 C   0  0  0  0  0  0  0  0  0  0  0  0
    6.7765   13.2700   22.4165 O   0  0  0  0  0  0  0  0  0  0  0  0
    6.8192   13.3166   24.8536 C   0  0  2  0  0  0  0  0  0  0  0  0
    6.9099   11.8483   25.2354 C   0  0  0  0  0  0  0  0  0  0  0  0
    5.0987   13.9012   24.9379 S   0  0  0  0  0  0  0  0  0  0  0  0
    9.1221   15.2644   23.3485 C   0  0  0  0  0  0  0  0  0  0  0  0
  1  2  1  0
  2  3  1  0
  3  4  2  3
  4  5  1  0
  5  6  1  0
  6  7  1  0
  7  8  1  0
  8  9  2  0
  8 10  1  0
 10 11  1  6
 10 12  1  0
  7 13  1  0
 13  4  1  0
M  END
>  <distance_score>  (2) 
1.791884

>  <smiles>  (2) 
CCC=C1CCN(C(=O)[C@H](C)S)C1

>  <fragmenstein_error>  (2) 


>  <fragmenstein_runtime>  (2) 
2.400875

>  <gnina_score_min>  (2) 
4.202

>  <orig_smiles>  (2) 
nan

>  <fragmenstein_mode>  (2) 
expansion

>  <rmsd(smina/fragmenstein)>  (2) 
0.72

>  <inspiration_score>  (2) 
None

>  <name>  (2) 
C5989-P214

>  <ref_pdb>  (2) 
A3550a

>  <ref_mols>  (2) 
A1778a,A3550a

>  <subsites>  (2) 
1 - Active Site

>  <tags>  (2) 
openbind_a71ev2a_c1_elabs_filtered,openbind_a71ev2a_c1_knitwork_impure,fragmenstein_placed,openbind_a71ev2a_c1_elab_chemspace_filtered_scored

>  <inchikey>  (2) 
LKVJKVRJSJXYGV-UHFFFAOYSA-N

>  <scratch_subdir>  (2) 
/opt/xchem-fragalysis-2/maxwin/BulkDock/SCRATCH/511189/C5989-P214

>  <smina_score_min>  (2) 
-5.147

>  <energy_score>  (2) 
-8.237816

>  <Energy>  (2) 
48.784343

>  <fragmenstein_outcome>  (2) 
too moved

>  <alias>  (2) 
C5989-P214

>  <HIPPO Pose ID>  (2) 
398860

>  <exports>  (2) 
['/opt/xchem-fragalysis-2/maxwin/openbind-hippo/a71ev2a/cycle_01/syndirella/elabs/openbind_a71ev2a_c1_elab_chemspace_filtered.sdf']

>  <HIPPO Compound ID>  (2) 
5989

>  <gnina_score>  (2) 
4.232

$$$$
C4708-P437
     RDKit          3D

 10 10  0  0  0  0  0  0  0  0999 V2000
   11.9771   13.3995   24.6484 C   0  0  0  0  0  0  0  0  0  0  0  0
   11.0654   13.9255   23.8265 C   0  0  0  0  0  0  0  0  0  0  0  0
   11.1895   14.2641   22.4026 C   0  0  0  0  0  0  0  0  0  0  0  0
    9.6922   14.1947   22.1359 C   0  0  0  0  0  0  0  0  0  0  0  0
    8.9848   13.1682   23.0070 N   0  0  0  0  0  0  0  0  0  0  0  0
    7.5191   12.9512   23.2737 C   0  0  0  0  0  0  0  0  0  0  0  0
    6.5844   13.5751   22.9331 O   0  0  0  0  0  0  0  0  0  0  0  0
    7.4008   11.7507   24.2247 C   0  0  0  0  0  0  0  0  0  0  0  0
    8.4548   10.6617   24.0879 C   0  0  0  0  0  0  0  0  0  0  0  0
    9.6078   14.0149   24.0662 C   0  0  0  0  0  0  0  0  0  0  0  0
  1  2  2  0
  2  3  1  0
  3  4  1  0
  4  5  1  0
  5  6  1  0
  6  7  2  0
  6  8  1  0
  8  9  1  0
  5 10  1  0
 10  2  1  0
M  END
>  <distance_score>  (3) 
1.629208

>  <smiles>  (3) 
C=C1CCN(C(=O)CC)C1

>  <fragmenstein_error>  (3) 


>  <fragmenstein_runtime>  (3) 
2.052073

>  <gnina_score_min>  (3) 
3.676

>  <orig_smiles>  (3) 
nan

>  <fragmenstein_mode>  (3) 
expansion

>  <rmsd(smina/fragmenstein)>  (3) 
0.753

>  <inspiration_score>  (3) 
None

>  <name>  (3) 
C4708-P437

>  <ref_pdb>  (3) 
A4701a

>  <ref_mols>  (3) 
A1775a,A4701a

>  <subsites>  (3) 
1 - Active Site

>  <tags>  (3) 
openbind_a71ev2a_c1_knitwork_impure,openbind_a71ev2a_c1_scaffolds_chemok_bbok,fragmenstein_placed,openbind_a71ev2a_c1_elab_chemspace_filtered_scored

>  <inchikey>  (3) 
PVLLXQIBFQPCGC-UHFFFAOYSA-N

>  <scratch_subdir>  (3) 
/opt/xchem-fragalysis-2/maxwin/BulkDock/SCRATCH/512207/C4708-P437

>  <smina_score_min>  (3) 
-4.149

>  <energy_score>  (3) 
59.091503

>  <Energy>  (3) 
73.260518

>  <fragmenstein_outcome>  (3) 
too moved

>  <alias>  (3) 
C4708-P437

>  <HIPPO Pose ID>  (3) 
415458

>  <exports>  (3) 
['/opt/xchem-fragalysis-2/maxwin/openbind-hippo/a71ev2a/cycle_01/bulkdock/openbind_a71ev2a_c1_elab_chemspace.sdf', '/opt/xchem-fragalysis-2/maxwin/openbind-hippo/a71ev2a/cycle_01/syndirella/elabs/openbind_a71ev2a_c1_elab_chemspace_filtered.sdf']

>  <HIPPO Compound ID>  (3) 
4708

>  <gnina_score>  (3) 
3.668

$$$$
C18032-P36
     RDKit          3D

 18 20  0  0  0  0  0  0  0  0999 V2000
   24.8266   24.3067   11.1260 O   0  0  0  0  0  0  0  0  0  0  0  0
   24.7281   23.1607   11.4199 C   0  0  0  0  0  0  0  0  0  0  0  0
   24.4998   21.8528   10.4814 N   0  0  0  0  0  0  0  0  0  0  0  0
   24.2426   21.7440    8.9420 C   0  0  0  0  0  0  0  0  0  0  0  0
   23.9856   20.4164    8.0184 C   0  0  0  0  0  0  0  0  0  0  0  0
   22.8226   19.8640    7.4431 C   0  0  0  0  0  0  0  0  0  0  0  0
   23.0773   18.8455    6.5315 N   0  0  0  0  0  0  0  0  0  0  0  0
   24.3829   18.8239    6.4310 C   0  0  0  0  0  0  0  0  0  0  0  0
   24.9678   19.7332    7.2896 N   0  0  0  0  0  0  0  0  0  0  0  0
   24.9227   22.9788   13.0377 C   0  0  0  0  0  0  0  0  0  0  0  0
   26.2172   22.9316   13.6214 C   0  0  0  0  0  0  0  0  0  0  0  0
   26.4673   22.8796   15.0402 C   0  0  0  0  0  0  0  0  0  0  0  0
   25.3709   22.8735   15.9189 C   0  0  0  0  0  0  0  0  0  0  0  0
   25.2511   22.7001   17.2781 N   0  0  0  0  0  0  0  0  0  0  0  0
   23.9842   22.7734   17.7443 N   0  0  0  0  0  0  0  0  0  0  0  0
   23.2753   22.9602   16.6260 C   0  0  0  0  0  0  0  0  0  0  0  0
   24.0757   23.0175   15.4452 C   0  0  0  0  0  0  0  0  0  0  0  0
   23.8697   23.1233   14.0098 C   0  0  0  0  0  0  0  0  0  0  0  0
  1  2  2  0
  2  3  1  0
  3  4  1  0
  4  5  1  0
  5  6  2  0
  6  7  1  0
  7  8  2  0
  8  9  1  0
  2 10  1  0
 10 11  2  0
 11 12  1  0
 12 13  2  0
 13 14  1  0
 14 15  1  0
 15 16  2  0
 16 17  1  0
 17 18  2  0
  9  5  1  0
 18 10  1  0
 17 13  1  0
M  END
>  <distance_score>  (4) 
5.717983

>  <smiles>  (4) 
O=C(NCc1cnc[nH]1)c1ccc2[nH]ncc2c1

>  <fragmenstein_error>  (4) 


>  <fragmenstein_runtime>  (4) 
1.829279

>  <gnina_score_min>  (4) 
3.525

>  <orig_smiles>  (4) 
nan

>  <fragmenstein_mode>  (4) 
expansion

>  <rmsd(smina/fragmenstein)>  (4) 
0.901

>  <inspiration_score>  (4) 
None

>  <name>  (4) 
C18032-P36

>  <ref_pdb>  (4) 
A0309a

>  <ref_mols>  (4) 
A3181b,A0309a

>  <subsites>  (4) 
6 - A0486/A/147/1,5 - A3181/A/202/1

>  <tags>  (4) 
openbind_a71ev2a_c1_knitwork_impure,openbind_a71ev2a_c1_scaffolds_chemok_bbok,fragmenstein_placed,openbind_a71ev2a_c1_elab_chemspace_filtered_scored

>  <inchikey>  (4) 
DVLVUUCTVLQLBO-UHFFFAOYSA-N

>  <scratch_subdir>  (4) 
/opt/xchem-fragalysis-2/maxwin/BulkDock/SCRATCH/512218/C18032-P36

>  <smina_score_min>  (4) 
-3.497

>  <energy_score>  (4) 
56.878883

>  <Energy>  (4) 
77.885661

>  <fragmenstein_outcome>  (4) 
too moved

>  <alias>  (4) 
C18032-P36

>  <HIPPO Pose ID>  (4) 
456571

>  <exports>  (4) 
['/opt/xchem-fragalysis-2/maxwin/openbind-hippo/a71ev2a/cycle_01/bulkdock/openbind_a71ev2a_c1_elab_chemspace.sdf', '/opt/xchem-fragalysis-2/maxwin/openbind-hippo/a71ev2a/cycle_01/syndirella/elabs/openbind_a71ev2a_c1_elab_chemspace_filtered.sdf']

>  <HIPPO Compound ID>  (4) 
18032

>  <gnina_score>  (4) 
3.744

$$$$
P497802
     RDKit          3D

 26 29  0  0  0  0  0  0  0  0999 V2000
    8.6446   11.8574    1.3432 C   0  0  0  0  0  0  0  0  0  0  0  0
    8.9401   13.2159    1.7309 N   0  0  0  0  0  0  0  0  0  0  0  0
    8.2573   13.9757    2.6263 C   0  0  0  0  0  0  0  0  0  0  0  0
    8.9237   15.1785    2.6821 C   0  0  0  0  0  0  0  0  0  0  0  0
   10.0261   15.0547    1.7904 C   0  0  0  0  0  0  0  0  0  0  0  0
   11.1283   15.9936    1.5078 C   0  0  0  0  0  0  0  0  0  0  0  0
   11.4914   17.0313    2.3725 C   0  0  0  0  0  0  0  0  0  0  0  0
   12.6233   17.8387    2.1046 C   0  0  0  0  0  0  0  0  0  0  0  0
   13.4328   17.6403    0.9668 C   0  0  0  0  0  0  0  0  0  0  0  0
   14.6300   18.5573    0.6960 C   0  0  0  0  0  0  0  0  0  0  0  0
   15.7873   17.9129    0.0482 N   0  0  0  0  0  0  0  0  0  0  0  0
   17.0966   18.3086    0.5854 C   0  0  2  0  0  0  0  0  0  0  0  0
   17.9391   18.4347   -0.5365 O   0  0  0  0  0  0  0  0  0  0  0  0
   17.6657   17.2592    1.5450 C   0  0  0  0  0  0  0  0  0  0  0  0
   16.8146   16.8438    2.5783 C   0  0  0  0  0  0  0  0  0  0  0  0
   17.0362   15.6676    3.2748 C   0  0  0  0  0  0  0  0  0  0  0  0
   18.1842   14.9327    2.9864 C   0  0  0  0  0  0  0  0  0  0  0  0
   18.6675   13.6836    3.3900 C   0  0  0  0  0  0  0  0  0  0  0  0
   19.8636   13.4112    2.8861 N   0  0  0  0  0  0  0  0  0  0  0  0
   20.1986   14.5476    2.2383 N   0  0  0  0  0  0  0  0  0  0  0  0
   21.5702   14.6941    1.8167 C   0  0  0  0  0  0  0  0  0  0  0  0
   19.1549   15.4439    2.1284 C   0  0  0  0  0  0  0  0  0  0  0  0
   18.9229   16.6191    1.3823 C   0  0  0  0  0  0  0  0  0  0  0  0
   13.0391   16.6335    0.0799 C   0  0  0  0  0  0  0  0  0  0  0  0
   11.9199   15.8211    0.3547 C   0  0  0  0  0  0  0  0  0  0  0  0
   10.0122   13.8393    1.2153 N   0  0  0  0  0  0  0  0  0  0  0  0
  1  2  1  0
  2  3  1  0
  3  4  2  0
  4  5  1  0
  5  6  1  0
  6  7  2  0
  7  8  1  0
  8  9  2  0
  9 10  1  0
 10 11  1  0
 11 12  1  0
 12 13  1  6
 12 14  1  0
 14 15  2  0
 15 16  1  0
 16 17  2  0
 17 18  1  0
 18 19  2  0
 19 20  1  0
 20 21  1  0
 20 22  1  0
 22 23  2  0
  9 24  1  0
 24 25  2  0
  5 26  2  0
 26  2  1  0
 25  6  1  0
 23 14  1  0
 22 17  1  0
M  END
>  <distance_score>  (5) 
1.852658

>  <smiles>  (5) 
Cn1ccc(-c2ccc(CN[C@H](O)c3ccc4cnn(C)c4c3)cc2)n1

>  <fragmenstein_error>  (5) 
nan

>  <fragmenstein_runtime>  (5) 
nan

>  <gnina_score_min>  (5) 
3.843

>  <orig_smiles>  (5) 
nan

>  <fragmenstein_mode>  (5) 
nan

>  <rmsd(smina/fragmenstein)>  (5) 
3.071

>  <inspiration_score>  (5) 
None

>  <name>  (5) 
P497802

>  <ref_pdb>  (5) 
A0486a

>  <ref_mols>  (5) 
A0486a,A0717a

>  <subsites>  (5) 
None

>  <tags>  (5) 
openbind_a71ev2a_c1_elabs_filtered,openbind_a71ev2a_c1_elab_chemspace_filtered_scored

>  <inchikey>  (5) 
JNGLGZNMIUGLCK-HXUWFJFHSA-N

>  <scratch_subdir>  (5) 
nan

>  <smina_score_min>  (5) 
-4.633

>  <energy_score>  (5) 
-25.901034

>  <Energy>  (5) 
nan

>  <fragmenstein_outcome>  (5) 
nan

>  <alias>  (5) 
None

>  <HIPPO Pose ID>  (5) 
497802

>  <exports>  (5) 
['/opt/xchem-fragalysis-2/maxwin/openbind-hippo/a71ev2a/cycle_01/bulkdock/openbind_a71ev2a_c1_elab_chemspace.sdf', '/opt/xchem-fragalysis-2/maxwin/openbind-hippo/a71ev2a/cycle_01/syndirella/elabs/openbind_a71ev2a_c1_elab_chemspace_filtered.sdf']

>  <HIPPO Compound ID>  (5) 
289725

>  <gnina_score>  (5) 
4.021

$$$$
P497816
     RDKit          3D

 27 30  0  0  0  0  0  0  0  0999 V2000
   18.4228   20.2372    1.0986 C   0  0  0  0  0  0  0  0  0  0  0  0
   17.1393   19.6288    1.0773 O   0  0  0  0  0  0  0  0  0  0  0  0
   17.1557   18.3060    0.5562 C   0  0  2  0  0  0  0  0  0  0  0  0
   15.8083   17.8936    0.0883 N   0  0  0  0  0  0  0  0  0  0  0  0
   14.6660   18.5041    0.7968 C   0  0  0  0  0  0  0  0  0  0  0  0
   13.4664   17.5732    1.0001 C   0  0  0  0  0  0  0  0  0  0  0  0
   13.6025   16.1877    1.1404 C   0  0  0  0  0  0  0  0  0  0  0  0
   12.4867   15.3698    1.4027 C   0  0  0  0  0  0  0  0  0  0  0  0
   11.1898   15.9007    1.5318 C   0  0  0  0  0  0  0  0  0  0  0  0
   10.0409   15.0042    1.7179 C   0  0  0  0  0  0  0  0  0  0  0  0
    9.0382   14.9720    2.6744 C   0  0  0  0  0  0  0  0  0  0  0  0
    8.3209   13.7852    2.4304 C   0  0  0  0  0  0  0  0  0  0  0  0
    8.7641   13.1481    1.3495 N   0  0  0  0  0  0  0  0  0  0  0  0
    9.7612   13.9284    0.8984 N   0  0  0  0  0  0  0  0  0  0  0  0
   10.4013   13.5637   -0.3460 C   0  0  0  0  0  0  0  0  0  0  0  0
   11.0526   17.2861    1.4291 C   0  0  0  0  0  0  0  0  0  0  0  0
   12.1736   18.1077    1.1695 C   0  0  0  0  0  0  0  0  0  0  0  0
   17.7222   17.2823    1.5516 C   0  0  0  0  0  0  0  0  0  0  0  0
   16.9132   16.9313    2.6365 C   0  0  0  0  0  0  0  0  0  0  0  0
   17.1060   15.7488    3.3293 C   0  0  0  0  0  0  0  0  0  0  0  0
   18.2055   14.9594    3.0007 C   0  0  0  0  0  0  0  0  0  0  0  0
   18.6470   13.6901    3.3897 C   0  0  0  0  0  0  0  0  0  0  0  0
   19.8209   13.3729    2.8588 N   0  0  0  0  0  0  0  0  0  0  0  0
   20.1840   14.4998    2.2091 N   0  0  0  0  0  0  0  0  0  0  0  0
   21.5602   14.6152    1.7924 C   0  0  0  0  0  0  0  0  0  0  0  0
   19.1659   15.4252    2.1060 C   0  0  0  0  0  0  0  0  0  0  0  0
   18.9466   16.5922    1.3431 C   0  0  0  0  0  0  0  0  0  0  0  0
  1  2  1  0
  2  3  1  0
  3  4  1  1
  4  5  1  0
  5  6  1  0
  6  7  2  0
  7  8  1  0
  8  9  2  0
  9 10  1  0
 10 11  2  0
 11 12  1  0
 12 13  2  0
 13 14  1  0
 14 15  1  0
  9 16  1  0
 16 17  2  0
  3 18  1  0
 18 19  2  0
 19 20  1  0
 20 21  2  0
 21 22  1  0
 22 23  2  0
 23 24  1  0
 24 25  1  0
 24 26  1  0
 26 27  2  0
 17  6  1  0
 27 18  1  0
 14 10  1  0
 26 21  1  0
M  END
>  <distance_score>  (6) 
1.785503

>  <smiles>  (6) 
CO[C@H](NCc1ccc(-c2ccnn2C)cc1)c1ccc2cnn(C)c2c1

>  <fragmenstein_error>  (6) 
nan

>  <fragmenstein_runtime>  (6) 
nan

>  <gnina_score_min>  (6) 
4.09

>  <orig_smiles>  (6) 
nan

>  <fragmenstein_mode>  (6) 
nan

>  <rmsd(smina/fragmenstein)>  (6) 
2.439

>  <inspiration_score>  (6) 
None

>  <name>  (6) 
P497816

>  <ref_pdb>  (6) 
A0486a

>  <ref_mols>  (6) 
A0486a,A0717a

>  <subsites>  (6) 
None

>  <tags>  (6) 
openbind_a71ev2a_c1_elabs_filtered,openbind_a71ev2a_c1_elab_chemspace_filtered_scored

>  <inchikey>  (6) 
OIYXNSPPLDNRNG-NRFANRHFSA-N

>  <scratch_subdir>  (6) 
nan

>  <smina_score_min>  (6) 
-3.988

>  <energy_score>  (6) 
-30.311558

>  <Energy>  (6) 
nan

>  <fragmenstein_outcome>  (6) 
nan

>  <alias>  (6) 
None

>  <HIPPO Pose ID>  (6) 
497816

>  <exports>  (6) 
['/opt/xchem-fragalysis-2/maxwin/openbind-hippo/a71ev2a/cycle_01/bulkdock/openbind_a71ev2a_c1_elab_chemspace.sdf', '/opt/xchem-fragalysis-2/maxwin/openbind-hippo/a71ev2a/cycle_01/syndirella/elabs/openbind_a71ev2a_c1_elab_chemspace_filtered.sdf']

>  <HIPPO Compound ID>  (6) 
289733

>  <gnina_score>  (6) 
4.054

$$$$
P497818
     RDKit          3D

 27 30  0  0  0  0  0  0  0  0999 V2000
   17.7448   19.8955    4.8357 C   0  0  0  0  0  0  0  0  0  0  0  0
   17.9220   18.6305    4.2141 O   0  0  0  0  0  0  0  0  0  0  0  0
   17.1200   18.4711    3.0414 C   0  0  2  0  0  0  0  0  0  0  0  0
   15.7332   18.1608    3.4712 N   0  0  0  0  0  0  0  0  0  0  0  0
   14.6819   18.8040    2.6764 C   0  0  0  0  0  0  0  0  0  0  0  0
   13.3951   17.9829    2.5807 C   0  0  0  0  0  0  0  0  0  0  0  0
   13.0973   17.2679    1.4121 C   0  0  0  0  0  0  0  0  0  0  0  0
   11.9325   16.4867    1.3074 C   0  0  0  0  0  0  0  0  0  0  0  0
   11.0048   16.3923    2.3579 C   0  0  0  0  0  0  0  0  0  0  0  0
    9.9022   15.4104    2.2693 C   0  0  0  0  0  0  0  0  0  0  0  0
    8.7370   15.2702    3.0746 C   0  0  0  0  0  0  0  0  0  0  0  0
    8.1496   14.0877    2.6848 C   0  0  0  0  0  0  0  0  0  0  0  0
    8.9319   13.5967    1.6889 N   0  0  0  0  0  0  0  0  0  0  0  0
    8.7442   12.3605    0.9691 C   0  0  0  0  0  0  0  0  0  0  0  0
    9.9935   14.3733    1.4151 N   0  0  0  0  0  0  0  0  0  0  0  0
   11.2751   17.1459    3.5118 C   0  0  0  0  0  0  0  0  0  0  0  0
   12.4582   17.9192    3.6250 C   0  0  0  0  0  0  0  0  0  0  0  0
   17.7444   17.3003    2.2464 C   0  0  0  0  0  0  0  0  0  0  0  0
   16.9391   16.6660    1.2957 C   0  0  0  0  0  0  0  0  0  0  0  0
   17.1844   15.3603    0.8967 C   0  0  0  0  0  0  0  0  0  0  0  0
   18.2979   14.7051    1.4215 C   0  0  0  0  0  0  0  0  0  0  0  0
   18.7469   13.3783    1.4151 C   0  0  0  0  0  0  0  0  0  0  0  0
   19.9025   13.2388    2.0521 N   0  0  0  0  0  0  0  0  0  0  0  0
   20.2710   14.5065    2.3311 N   0  0  0  0  0  0  0  0  0  0  0  0
   21.6575   14.7283    2.6659 C   0  0  0  0  0  0  0  0  0  0  0  0
   19.2520   15.4174    2.1461 C   0  0  0  0  0  0  0  0  0  0  0  0
   19.0258   16.7562    2.5256 C   0  0  0  0  0  0  0  0  0  0  0  0
  1  2  1  0
  2  3  1  0
  3  4  1  1
  4  5  1  0
  5  6  1  0
  6  7  2  0
  7  8  1  0
  8  9  2  0
  9 10  1  0
 10 11  1  0
 11 12  2  0
 12 13  1  0
 13 14  1  0
 13 15  1  0
  9 16  1  0
 16 17  2  0
  3 18  1  0
 18 19  2  0
 19 20  1  0
 20 21  2  0
 21 22  1  0
 22 23  2  0
 23 24  1  0
 24 25  1  0
 24 26  1  0
 26 27  2  0
 17  6  1  0
 27 18  1  0
 15 10  2  0
 26 21  1  0
M  END
>  <distance_score>  (7) 
1.821671

>  <smiles>  (7) 
CO[C@H](NCc1ccc(-c2ccn(C)n2)cc1)c1ccc2cnn(C)c2c1

>  <fragmenstein_error>  (7) 
nan

>  <fragmenstein_runtime>  (7) 
nan

>  <gnina_score_min>  (7) 
3.875

>  <orig_smiles>  (7) 
nan

>  <fragmenstein_mode>  (7) 
nan

>  <rmsd(smina/fragmenstein)>  (7) 
2.076

>  <inspiration_score>  (7) 
None

>  <name>  (7) 
P497818

>  <ref_pdb>  (7) 
A0486a

>  <ref_mols>  (7) 
A0486a,A0717a

>  <subsites>  (7) 
None

>  <tags>  (7) 
openbind_a71ev2a_c1_elabs_filtered,openbind_a71ev2a_c1_elab_chemspace_filtered_scored

>  <inchikey>  (7) 
CAOASTGJPQYTPM-NRFANRHFSA-N

>  <scratch_subdir>  (7) 
nan

>  <smina_score_min>  (7) 
-4.725

>  <energy_score>  (7) 
-9.632786

>  <Energy>  (7) 
nan

>  <fragmenstein_outcome>  (7) 
nan

>  <alias>  (7) 
None

>  <HIPPO Pose ID>  (7) 
497818

>  <exports>  (7) 
['/opt/xchem-fragalysis-2/maxwin/openbind-hippo/a71ev2a/cycle_01/bulkdock/openbind_a71ev2a_c1_elab_chemspace.sdf', '/opt/xchem-fragalysis-2/maxwin/openbind-hippo/a71ev2a/cycle_01/syndirella/elabs/openbind_a71ev2a_c1_elab_chemspace_filtered.sdf']

>  <HIPPO Compound ID>  (7) 
289734

>  <gnina_score>  (7) 
4.722

$$$$
P497823
     RDKit          3D

 27 30  0  0  0  0  0  0  0  0999 V2000
    8.3153   11.4345    1.3860 C   0  0  0  0  0  0  0  0  0  0  0  0
    8.4203   12.7698    1.9218 N   0  0  0  0  0  0  0  0  0  0  0  0
    7.7112   13.2901    2.9571 C   0  0  0  0  0  0  0  0  0  0  0  0
    8.2010   14.5610    3.1476 C   0  0  0  0  0  0  0  0  0  0  0  0
    9.2255   14.7246    2.1782 C   0  0  0  0  0  0  0  0  0  0  0  0
   10.2120   15.8007    2.0252 C   0  0  0  0  0  0  0  0  0  0  0  0
   10.5004   16.7049    3.0547 C   0  0  0  0  0  0  0  0  0  0  0  0
   11.6452   17.5169    2.9885 C   0  0  0  0  0  0  0  0  0  0  0  0
   12.5043   17.4657    1.8797 C   0  0  0  0  0  0  0  0  0  0  0  0
   13.7804   18.2765    1.8361 C   0  0  0  0  0  0  0  0  0  0  0  0
   14.9879   17.4988    1.5736 N   0  0  0  0  0  0  0  0  0  0  0  0
   15.6250   16.8675    2.7076 C   0  0  1  0  0  0  0  0  0  0  0  0
   14.9379   15.6820    3.0483 O   0  0  0  0  0  0  0  0  0  0  0  0
   17.1059   16.5700    2.4133 C   0  0  0  0  0  0  0  0  0  0  0  0
   17.9172   17.6390    1.9003 C   0  0  0  0  0  0  0  0  0  0  0  0
   19.2910   17.5306    1.6397 C   0  0  0  0  0  0  0  0  0  0  0  0
   19.7814   16.2698    1.9617 C   0  0  0  0  0  0  0  0  0  0  0  0
   21.0877   15.8777    1.9098 C   0  0  0  0  0  0  0  0  0  0  0  0
   22.5868   16.8972    1.3244 Br  0  0  0  0  0  0  0  0  0  0  0  0
   21.0991   14.6148    2.4320 N   0  0  0  0  0  0  0  0  0  0  0  0
   22.2698   13.8548    2.7954 C   0  0  0  0  0  0  0  0  0  0  0  0
   19.8618   14.1104    2.6846 N   0  0  0  0  0  0  0  0  0  0  0  0
   19.0345   15.1511    2.4720 C   0  0  0  0  0  0  0  0  0  0  0  0
   17.6578   15.2848    2.7016 C   0  0  0  0  0  0  0  0  0  0  0  0
   12.1475   16.6498    0.8005 C   0  0  0  0  0  0  0  0  0  0  0  0
   11.0263   15.8216    0.8805 C   0  0  0  0  0  0  0  0  0  0  0  0
    9.3162   13.6257    1.4081 N   0  0  0  0  0  0  0  0  0  0  0  0
  1  2  1  0
  2  3  1  0
  3  4  2  0
  4  5  1  0
  5  6  1  0
  6  7  2  0
  7  8  1  0
  8  9  2  0
  9 10  1  0
 10 11  1  0
 11 12  1  0
 12 13  1  6
 12 14  1  0
 14 15  1  0
 15 16  2  0
 16 17  1  0
 17 18  2  0
 18 19  1  0
 18 20  1  0
 20 21  1  0
 20 22  1  0
 22 23  2  0
 23 24  1  0
  9 25  1  0
 25 26  2  0
  5 27  2  0
 27  2  1  0
 26  6  1  0
 24 14  2  0
 23 17  1  0
M  END
>  <distance_score>  (8) 
1.767144

>  <smiles>  (8) 
Cn1ccc(-c2ccc(CN[C@@H](O)c3ccc4c(Br)n(C)nc4c3)cc2)n1

>  <fragmenstein_error>  (8) 
nan

>  <fragmenstein_runtime>  (8) 
nan

>  <gnina_score_min>  (8) 
4.033

>  <orig_smiles>  (8) 
nan

>  <fragmenstein_mode>  (8) 
nan

>  <rmsd(smina/fragmenstein)>  (8) 
2.176

>  <inspiration_score>  (8) 
None

>  <name>  (8) 
P497823

>  <ref_pdb>  (8) 
A0486a

>  <ref_mols>  (8) 
A0486a,A0717a

>  <subsites>  (8) 
None

>  <tags>  (8) 
openbind_a71ev2a_c1_elabs_filtered,openbind_a71ev2a_c1_elab_chemspace_filtered_scored

>  <inchikey>  (8) 
GEZARJNJIAUMHJ-FQEVSTJZSA-N

>  <scratch_subdir>  (8) 
nan

>  <smina_score_min>  (8) 
-5.096

>  <energy_score>  (8) 
-32.682183

>  <Energy>  (8) 
nan

>  <fragmenstein_outcome>  (8) 
nan

>  <alias>  (8) 
None

>  <HIPPO Pose ID>  (8) 
497823

>  <exports>  (8) 
['/opt/xchem-fragalysis-2/maxwin/openbind-hippo/a71ev2a/cycle_01/bulkdock/openbind_a71ev2a_c1_elab_chemspace.sdf', '/opt/xchem-fragalysis-2/maxwin/openbind-hippo/a71ev2a/cycle_01/syndirella/elabs/openbind_a71ev2a_c1_elab_chemspace_filtered.sdf']

>  <HIPPO Compound ID>  (8) 
289736

>  <gnina_score>  (8) 
4.641

$$$$
P497828
     RDKit          3D

 27 30  0  0  0  0  0  0  0  0999 V2000
   11.3544   14.1185    0.5164 C   0  0  0  0  0  0  0  0  0  0  0  0
   10.2337   14.5159    1.3415 N   0  0  0  0  0  0  0  0  0  0  0  0
    9.1995   13.6582    1.4351 N   0  0  0  0  0  0  0  0  0  0  0  0
    8.4306   14.1805    2.3858 C   0  0  0  0  0  0  0  0  0  0  0  0
    8.9431   15.4002    2.8653 C   0  0  0  0  0  0  0  0  0  0  0  0
   10.1209   15.6283    2.1644 C   0  0  0  0  0  0  0  0  0  0  0  0
   11.1631   16.6695    2.3248 C   0  0  0  0  0  0  0  0  0  0  0  0
   11.5535   17.1247    3.5912 C   0  0  0  0  0  0  0  0  0  0  0  0
   12.7220   17.9003    3.7647 C   0  0  0  0  0  0  0  0  0  0  0  0
   13.5373   18.2697    2.6790 C   0  0  0  0  0  0  0  0  0  0  0  0
   14.8831   18.9544    2.9469 C   0  0  0  0  0  0  0  0  0  0  0  0
   15.7645   19.1230    1.7717 N   0  0  0  0  0  0  0  0  0  0  0  0
   17.1810   18.8343    2.0279 C   0  0  2  0  0  0  0  0  0  0  0  0
   17.9003   19.4826    1.0005 O   0  0  0  0  0  0  0  0  0  0  0  0
   17.5668   17.3533    1.9845 C   0  0  0  0  0  0  0  0  0  0  0  0
   16.5582   16.4255    1.7055 C   0  0  0  0  0  0  0  0  0  0  0  0
   16.7542   15.0650    1.8186 C   0  0  0  0  0  0  0  0  0  0  0  0
   15.6598   14.2586    1.6011 O   0  0  0  0  0  0  0  0  0  0  0  0
   18.0158   14.5843    2.1544 C   0  0  0  0  0  0  0  0  0  0  0  0
   18.5446   13.3140    2.3933 C   0  0  0  0  0  0  0  0  0  0  0  0
   19.8436   13.3467    2.6553 N   0  0  0  0  0  0  0  0  0  0  0  0
   20.1747   14.6475    2.5024 N   0  0  0  0  0  0  0  0  0  0  0  0
   21.5815   14.9743    2.4820 C   0  0  0  0  0  0  0  0  0  0  0  0
   19.0835   15.4740    2.3077 C   0  0  0  0  0  0  0  0  0  0  0  0
   18.8858   16.8774    2.2333 C   0  0  0  0  0  0  0  0  0  0  0  0
   13.0633   17.9415    1.4040 C   0  0  0  0  0  0  0  0  0  0  0  0
   11.8984   17.1595    1.2329 C   0  0  0  0  0  0  0  0  0  0  0  0
  1  2  1  0
  2  3  1  0
  3  4  2  0
  4  5  1  0
  5  6  2  0
  6  7  1  0
  7  8  2  0
  8  9  1  0
  9 10  2  0
 10 11  1  0
 11 12  1  0
 12 13  1  0
 13 14  1  6
 13 15  1  0
 15 16  2  0
 16 17  1  0
 17 18  1  0
 17 19  2  0
 19 20  1  0
 20 21  2  0
 21 22  1  0
 22 23  1  0
 22 24  1  0
 24 25  2  0
 10 26  1  0
 26 27  2  0
  6  2  1  0
 27  7  1  0
 25 15  1  0
 24 19  1  0
M  END
>  <distance_score>  (9) 
1.869729

>  <smiles>  (9) 
Cn1nccc1-c1ccc(CN[C@H](O)c2cc(O)c3cnn(C)c3c2)cc1

>  <fragmenstein_error>  (9) 
nan

>  <fragmenstein_runtime>  (9) 
nan

>  <gnina_score_min>  (9) 
4.21

>  <orig_smiles>  (9) 
nan

>  <fragmenstein_mode>  (9) 
nan

>  <rmsd(smina/fragmenstein)>  (9) 
1.933

>  <inspiration_score>  (9) 
None

>  <name>  (9) 
P497828

>  <ref_pdb>  (9) 
A0486a

>  <ref_mols>  (9) 
A0486a,A0717a

>  <subsites>  (9) 
None

>  <tags>  (9) 
openbind_a71ev2a_c1_elabs_filtered,openbind_a71ev2a_c1_elab_chemspace_filtered_scored

>  <inchikey>  (9) 
JXQBWVONVAGYTK-HXUWFJFHSA-N

>  <scratch_subdir>  (9) 
nan

>  <smina_score_min>  (9) 
-4.239

>  <energy_score>  (9) 
-34.245935

>  <Energy>  (9) 
nan

>  <fragmenstein_outcome>  (9) 
nan

>  <alias>  (9) 
None

>  <HIPPO Pose ID>  (9) 
497828

>  <exports>  (9) 
['/opt/xchem-fragalysis-2/maxwin/openbind-hippo/a71ev2a/cycle_01/bulkdock/openbind_a71ev2a_c1_elab_chemspace.sdf', '/opt/xchem-fragalysis-2/maxwin/openbind-hippo/a71ev2a/cycle_01/syndirella/elabs/openbind_a71ev2a_c1_elab_chemspace_filtered.sdf']

>  <HIPPO Compound ID>  (9) 
289740

>  <gnina_score>  (9) 
4.596

$$$$
P497834
     RDKit          3D

 27 30  0  0  0  0  0  0  0  0999 V2000
   17.8138   12.1020    1.1887 C   0  0  0  0  0  0  0  0  0  0  0  0
   18.5644   13.2917    1.6620 C   0  0  0  0  0  0  0  0  0  0  0  0
   19.6897   13.1624    2.3628 N   0  0  0  0  0  0  0  0  0  0  0  0
   20.1533   14.4259    2.4717 N   0  0  0  0  0  0  0  0  0  0  0  0
   21.5666   14.5950    2.7181 C   0  0  0  0  0  0  0  0  0  0  0  0
   19.2036   15.3771    2.1667 C   0  0  0  0  0  0  0  0  0  0  0  0
   19.0615   16.7635    2.3901 C   0  0  0  0  0  0  0  0  0  0  0  0
   17.8647   17.3696    1.9335 C   0  0  0  0  0  0  0  0  0  0  0  0
   17.3496   18.7247    2.4195 C   0  0  2  0  0  0  0  0  0  0  0  0
   17.8609   19.0211    3.7034 O   0  0  0  0  0  0  0  0  0  0  0  0
   15.8804   18.8222    2.4377 N   0  0  0  0  0  0  0  0  0  0  0  0
   15.2126   18.0242    3.4732 C   0  0  0  0  0  0  0  0  0  0  0  0
   13.8809   17.4208    3.0235 C   0  0  0  0  0  0  0  0  0  0  0  0
   13.8511   16.1292    2.4846 C   0  0  0  0  0  0  0  0  0  0  0  0
   12.6417   15.5130    2.1223 C   0  0  0  0  0  0  0  0  0  0  0  0
   11.3993   16.1505    2.2967 C   0  0  0  0  0  0  0  0  0  0  0  0
   10.1589   15.3926    2.0390 C   0  0  0  0  0  0  0  0  0  0  0  0
    9.0578   15.1530    2.8511 C   0  0  0  0  0  0  0  0  0  0  0  0
    8.3536   14.1012    2.2349 C   0  0  0  0  0  0  0  0  0  0  0  0
    8.8959   13.7550    1.0700 N   0  0  0  0  0  0  0  0  0  0  0  0
    9.9286   14.6062    0.9270 N   0  0  0  0  0  0  0  0  0  0  0  0
   10.6576   14.5891   -0.3215 C   0  0  0  0  0  0  0  0  0  0  0  0
   11.4227   17.4443    2.8280 C   0  0  0  0  0  0  0  0  0  0  0  0
   12.6470   18.0765    3.1723 C   0  0  0  0  0  0  0  0  0  0  0  0
   17.0564   16.6801    1.0218 C   0  0  0  0  0  0  0  0  0  0  0  0
   17.2067   15.3186    0.8106 C   0  0  0  0  0  0  0  0  0  0  0  0
   18.2333   14.6503    1.4782 C   0  0  0  0  0  0  0  0  0  0  0  0
  1  2  1  0
  2  3  2  0
  3  4  1  0
  4  5  1  0
  4  6  1  0
  6  7  2  0
  7  8  1  0
  8  9  1  0
  9 10  1  1
  9 11  1  0
 11 12  1  0
 12 13  1  0
 13 14  2  0
 14 15  1  0
 15 16  2  0
 16 17  1  0
 17 18  2  0
 18 19  1  0
 19 20  2  0
 20 21  1  0
 21 22  1  0
 16 23  1  0
 23 24  2  0
  8 25  2  0
 25 26  1  0
 26 27  2  0
 27  2  1  0
 27  6  1  0
 24 13  1  0
 21 17  1  0
M  END
>  <distance_score>  (10) 
1.805822

>  <smiles>  (10) 
Cc1nn(C)c2cc([C@H](O)NCc3ccc(-c4ccnn4C)cc3)ccc12

>  <fragmenstein_error>  (10) 
nan

>  <fragmenstein_runtime>  (10) 
nan

>  <gnina_score_min>  (10) 
4.112

>  <orig_smiles>  (10) 
nan

>  <fragmenstein_mode>  (10) 
nan

>  <rmsd(smina/fragmenstein)>  (10) 
1.833

>  <inspiration_score>  (10) 
None

>  <name>  (10) 
P497834

>  <ref_pdb>  (10) 
A0486a

>  <ref_mols>  (10) 
A0486a,A0717a

>  <subsites>  (10) 
None

>  <tags>  (10) 
openbind_a71ev2a_c1_elabs_filtered,openbind_a71ev2a_c1_elab_chemspace_filtered_scored

>  <inchikey>  (10) 
VDPCEXUQPOHSDK-NRFANRHFSA-N

>  <scratch_subdir>  (10) 
nan

>  <smina_score_min>  (10) 
-4.073

>  <energy_score>  (10) 
-22.865062

>  <Energy>  (10) 
nan

>  <fragmenstein_outcome>  (10) 
nan

>  <alias>  (10) 
None

>  <HIPPO Pose ID>  (10) 
497834

>  <exports>  (10) 
['/opt/xchem-fragalysis-2/maxwin/openbind-hippo/a71ev2a/cycle_01/bulkdock/openbind_a71ev2a_c1_elab_chemspace.sdf', '/opt/xchem-fragalysis-2/maxwin/openbind-hippo/a71ev2a/cycle_01/syndirella/elabs/openbind_a71ev2a_c1_elab_chemspace_filtered.sdf']

>  <HIPPO Compound ID>  (10) 
289743

>  <gnina_score>  (10) 
4.687

$$$$
P497839
     RDKit          3D

 27 30  0  0  0  0  0  0  0  0999 V2000
   19.9507   17.9857    2.5660 C   0  0  0  0  0  0  0  0  0  0  0  0
   18.9119   16.9353    2.3004 C   0  0  0  0  0  0  0  0  0  0  0  0
   17.5332   17.3049    2.1449 C   0  0  0  0  0  0  0  0  0  0  0  0
   16.8646   18.6541    2.4949 C   0  0  2  0  0  0  0  0  0  0  0  0
   17.6045   19.3694    3.4569 O   0  0  0  0  0  0  0  0  0  0  0  0
   15.5548   18.4142    3.0939 N   0  0  0  0  0  0  0  0  0  0  0  0
   14.4073   19.1549    2.5960 C   0  0  0  0  0  0  0  0  0  0  0  0
   13.1583   18.2756    2.5204 C   0  0  0  0  0  0  0  0  0  0  0  0
   12.8759   17.5567    1.3500 C   0  0  0  0  0  0  0  0  0  0  0  0
   11.7711   16.6890    1.2716 C   0  0  0  0  0  0  0  0  0  0  0  0
   10.8923   16.5069    2.3529 C   0  0  0  0  0  0  0  0  0  0  0  0
    9.8534   15.4574    2.2822 C   0  0  0  0  0  0  0  0  0  0  0  0
    8.7036   15.2548    3.0969 C   0  0  0  0  0  0  0  0  0  0  0  0
    8.1711   14.0474    2.7047 C   0  0  0  0  0  0  0  0  0  0  0  0
    8.9685   13.6008    1.6997 N   0  0  0  0  0  0  0  0  0  0  0  0
    8.8301   12.3652    0.9676 C   0  0  0  0  0  0  0  0  0  0  0  0
    9.9932   14.4265    1.4272 N   0  0  0  0  0  0  0  0  0  0  0  0
   11.1459   17.2594    3.5108 C   0  0  0  0  0  0  0  0  0  0  0  0
   12.2676   18.1229    3.5960 C   0  0  0  0  0  0  0  0  0  0  0  0
   16.6266   16.3645    1.6275 C   0  0  0  0  0  0  0  0  0  0  0  0
   16.9241   15.0257    1.5201 C   0  0  0  0  0  0  0  0  0  0  0  0
   18.1870   14.6083    1.9115 C   0  0  0  0  0  0  0  0  0  0  0  0
   18.7418   13.3383    2.0589 C   0  0  0  0  0  0  0  0  0  0  0  0
   20.0091   13.3927    2.4280 N   0  0  0  0  0  0  0  0  0  0  0  0
   20.3033   14.7121    2.4132 N   0  0  0  0  0  0  0  0  0  0  0  0
   21.7079   15.0280    2.5104 C   0  0  0  0  0  0  0  0  0  0  0  0
   19.1921   15.5287    2.2365 C   0  0  0  0  0  0  0  0  0  0  0  0
  1  2  1  0
  2  3  2  0
  3  4  1  0
  4  5  1  1
  4  6  1  0
  6  7  1  0
  7  8  1  0
  8  9  2  0
  9 10  1  0
 10 11  2  0
 11 12  1  0
 12 13  1  0
 13 14  2  0
 14 15  1  0
 15 16  1  0
 15 17  1  0
 11 18  1  0
 18 19  2  0
  3 20  1  0
 20 21  2  0
 21 22  1  0
 22 23  1  0
 23 24  2  0
 24 25  1  0
 25 26  1  0
 25 27  1  0
 27  2  1  0
 19  8  1  0
 27 22  2  0
 17 12  2  0
M  END
>  <distance_score>  (11) 
1.806936

>  <smiles>  (11) 
Cc1c([C@H](O)NCc2ccc(-c3ccn(C)n3)cc2)ccc2cnn(C)c12

>  <fragmenstein_error>  (11) 
nan

>  <fragmenstein_runtime>  (11) 
nan

>  <gnina_score_min>  (11) 
3.909

>  <orig_smiles>  (11) 
nan

>  <fragmenstein_mode>  (11) 
nan

>  <rmsd(smina/fragmenstein)>  (11) 
2.137

>  <inspiration_score>  (11) 
None

>  <name>  (11) 
P497839

>  <ref_pdb>  (11) 
A0486a

>  <ref_mols>  (11) 
A0486a,A0717a

>  <subsites>  (11) 
None

>  <tags>  (11) 
openbind_a71ev2a_c1_elabs_filtered,openbind_a71ev2a_c1_elab_chemspace_filtered_scored

>  <inchikey>  (11) 
PTTWWUJFUDJAMV-NRFANRHFSA-N

>  <scratch_subdir>  (11) 
nan

>  <smina_score_min>  (11) 
-5.199

>  <energy_score>  (11) 
-21.773343

>  <Energy>  (11) 
nan

>  <fragmenstein_outcome>  (11) 
nan

>  <alias>  (11) 
None

>  <HIPPO Pose ID>  (11) 
497839

>  <exports>  (11) 
['/opt/xchem-fragalysis-2/maxwin/openbind-hippo/a71ev2a/cycle_01/bulkdock/openbind_a71ev2a_c1_elab_chemspace.sdf', '/opt/xchem-fragalysis-2/maxwin/openbind-hippo/a71ev2a/cycle_01/syndirella/elabs/openbind_a71ev2a_c1_elab_chemspace_filtered.sdf']

>  <HIPPO Compound ID>  (11) 
289746

>  <gnina_score>  (11) 
4.63

$$$$
P497849
     RDKit          3D

 27 30  0  0  0  0  0  0  0  0999 V2000
   17.0596   19.0389    4.7119 C   0  0  0  0  0  0  0  0  0  0  0  0
   16.2764   17.9285    4.2892 O   0  0  0  0  0  0  0  0  0  0  0  0
   16.2015   17.8105    2.8708 C   0  0  2  0  0  0  0  0  0  0  0  0
   15.0156   17.0472    2.4951 N   0  0  0  0  0  0  0  0  0  0  0  0
   13.7857   17.7870    2.8049 C   0  0  0  0  0  0  0  0  0  0  0  0
   12.5167   16.9961    2.5368 C   0  0  0  0  0  0  0  0  0  0  0  0
   12.4859   15.8989    1.6707 C   0  0  0  0  0  0  0  0  0  0  0  0
   11.3091   15.1738    1.4855 C   0  0  0  0  0  0  0  0  0  0  0  0
   10.1207   15.5290    2.1444 C   0  0  0  0  0  0  0  0  0  0  0  0
    8.9900   14.6093    2.0811 C   0  0  0  0  0  0  0  0  0  0  0  0
    8.2894   13.9889    3.1022 C   0  0  0  0  0  0  0  0  0  0  0  0
    7.5779   12.9482    2.4824 C   0  0  0  0  0  0  0  0  0  0  0  0
    7.7247   12.9600    1.1580 N   0  0  0  0  0  0  0  0  0  0  0  0
    8.5175   14.0210    0.9307 N   0  0  0  0  0  0  0  0  0  0  0  0
    8.7751   14.3972   -0.4405 C   0  0  0  0  0  0  0  0  0  0  0  0
   10.1277   16.6525    2.9708 C   0  0  0  0  0  0  0  0  0  0  0  0
   11.3136   17.3809    3.1593 C   0  0  0  0  0  0  0  0  0  0  0  0
   17.4697   17.1219    2.3559 C   0  0  0  0  0  0  0  0  0  0  0  0
   18.2900   17.8380    1.4219 C   0  0  0  0  0  0  0  0  0  0  0  0
   19.5317   17.3763    0.9644 C   0  0  0  0  0  0  0  0  0  0  0  0
   19.8645   16.1635    1.5437 C   0  0  0  0  0  0  0  0  0  0  0  0
   21.0887   15.5765    1.4387 C   0  0  0  0  0  0  0  0  0  0  0  0
   21.0349   14.5302    2.3119 N   0  0  0  0  0  0  0  0  0  0  0  0
   22.1945   13.8331    2.8131 C   0  0  0  0  0  0  0  0  0  0  0  0
   19.7951   14.2810    2.8029 N   0  0  0  0  0  0  0  0  0  0  0  0
   19.0841   15.3690    2.4470 C   0  0  0  0  0  0  0  0  0  0  0  0
   17.8249   15.8298    2.8545 C   0  0  0  0  0  0  0  0  0  0  0  0
  1  2  1  0
  2  3  1  0
  3  4  1  1
  4  5  1  0
  5  6  1  0
  6  7  2  0
  7  8  1  0
  8  9  2  0
  9 10  1  0
 10 11  2  0
 11 12  1  0
 12 13  2  0
 13 14  1  0
 14 15  1  0
  9 16  1  0
 16 17  2  0
  3 18  1  0
 18 19  1  0
 19 20  2  0
 20 21  1  0
 21 22  2  0
 22 23  1  0
 23 24  1  0
 23 25  1  0
 25 26  2  0
 26 27  1  0
 17  6  1  0
 27 18  2  0
 14 10  1  0
 26 21  1  0
M  END
>  <distance_score>  (12) 
1.628087

>  <smiles>  (12) 
CO[C@H](NCc1ccc(-c2ccnn2C)cc1)c1ccc2cn(C)nc2c1

>  <fragmenstein_error>  (12) 
nan

>  <fragmenstein_runtime>  (12) 
nan

>  <gnina_score_min>  (12) 
4.622

>  <orig_smiles>  (12) 
nan

>  <fragmenstein_mode>  (12) 
nan

>  <rmsd(smina/fragmenstein)>  (12) 
1.72

>  <inspiration_score>  (12) 
None

>  <name>  (12) 
P497849

>  <ref_pdb>  (12) 
A0486a

>  <ref_mols>  (12) 
A0486a,A0717a

>  <subsites>  (12) 
None

>  <tags>  (12) 
openbind_a71ev2a_c1_elabs_filtered,openbind_a71ev2a_c1_elab_chemspace_filtered_scored

>  <inchikey>  (12) 
XISGWTMOFKFSGZ-NRFANRHFSA-N

>  <scratch_subdir>  (12) 
nan

>  <smina_score_min>  (12) 
-3.275

>  <energy_score>  (12) 
-24.32923

>  <Energy>  (12) 
nan

>  <fragmenstein_outcome>  (12) 
nan

>  <alias>  (12) 
None

>  <HIPPO Pose ID>  (12) 
497849

>  <exports>  (12) 
['/opt/xchem-fragalysis-2/maxwin/openbind-hippo/a71ev2a/cycle_01/bulkdock/openbind_a71ev2a_c1_elab_chemspace.sdf', '/opt/xchem-fragalysis-2/maxwin/openbind-hippo/a71ev2a/cycle_01/syndirella/elabs/openbind_a71ev2a_c1_elab_chemspace_filtered.sdf']

>  <HIPPO Compound ID>  (12) 
289752

>  <gnina_score>  (12) 
4.699

$$$$
P497852
     RDKit          3D

 27 30  0  0  0  0  0  0  0  0999 V2000
   22.0802   16.4005    1.0313 C   0  0  0  0  0  0  0  0  0  0  0  0
   20.9421   15.7150    1.6924 C   0  0  0  0  0  0  0  0  0  0  0  0
   19.6286   16.0614    1.8704 C   0  0  0  0  0  0  0  0  0  0  0  0
   19.0523   17.2642    1.4812 C   0  0  0  0  0  0  0  0  0  0  0  0
   17.7264   17.3824    1.9365 C   0  0  0  0  0  0  0  0  0  0  0  0
   17.0470   16.3782    2.7066 C   0  0  0  0  0  0  0  0  0  0  0  0
   15.6312   16.5981    3.2777 C   0  0  1  0  0  0  0  0  0  0  0  0
   15.7635   16.4823    4.6873 O   0  0  0  0  0  0  0  0  0  0  0  0
   15.0603   17.8916    2.9454 N   0  0  0  0  0  0  0  0  0  0  0  0
   13.7444   18.2172    3.5141 C   0  0  0  0  0  0  0  0  0  0  0  0
   12.5441   17.4098    3.0643 C   0  0  0  0  0  0  0  0  0  0  0  0
   11.3507   17.4949    3.8068 C   0  0  0  0  0  0  0  0  0  0  0  0
   10.2080   16.7584    3.4509 C   0  0  0  0  0  0  0  0  0  0  0  0
   10.2347   15.8912    2.3550 C   0  0  0  0  0  0  0  0  0  0  0  0
    9.1719   14.9004    2.1378 C   0  0  0  0  0  0  0  0  0  0  0  0
    8.4347   14.1744    3.0640 C   0  0  0  0  0  0  0  0  0  0  0  0
    7.8174   13.1457    2.3347 C   0  0  0  0  0  0  0  0  0  0  0  0
    8.0410   13.2603    1.0274 N   0  0  0  0  0  0  0  0  0  0  0  0
    8.7845   14.3778    0.9223 N   0  0  0  0  0  0  0  0  0  0  0  0
    9.0438   14.8895   -0.4041 C   0  0  0  0  0  0  0  0  0  0  0  0
   11.4124   15.8487    1.5872 C   0  0  0  0  0  0  0  0  0  0  0  0
   12.5360   16.6200    1.9147 C   0  0  0  0  0  0  0  0  0  0  0  0
   17.6698   15.1254    3.0057 C   0  0  0  0  0  0  0  0  0  0  0  0
   19.0001   14.9947    2.5924 C   0  0  0  0  0  0  0  0  0  0  0  0
   19.8871   14.0078    2.8012 N   0  0  0  0  0  0  0  0  0  0  0  0
   21.0638   14.5233    2.3674 N   0  0  0  0  0  0  0  0  0  0  0  0
   22.3016   13.8631    2.7146 C   0  0  0  0  0  0  0  0  0  0  0  0
  1  2  1  0
  2  3  2  0
  3  4  1  0
  4  5  2  0
  5  6  1  0
  6  7  1  0
  7  8  1  1
  7  9  1  0
  9 10  1  0
 10 11  1  0
 11 12  2  0
 12 13  1  0
 13 14  2  0
 14 15  1  0
 15 16  2  0
 16 17  1  0
 17 18  2  0
 18 19  1  0
 19 20  1  0
 14 21  1  0
 21 22  2  0
  6 23  2  0
 23 24  1  0
 24 25  2  0
 25 26  1  0
 26 27  1  0
 26  2  1  0
 24  3  1  0
 22 11  1  0
 19 15  1  0
M  END
>  <distance_score>  (13) 
1.629365

>  <smiles>  (13) 
Cc1c2ccc([C@@H](O)NCc3ccc(-c4ccnn4C)cc3)cc2nn1C

>  <fragmenstein_error>  (13) 
nan

>  <fragmenstein_runtime>  (13) 
nan

>  <gnina_score_min>  (13) 
3.913

>  <orig_smiles>  (13) 
nan

>  <fragmenstein_mode>  (13) 
nan

>  <rmsd(smina/fragmenstein)>  (13) 
2.947

>  <inspiration_score>  (13) 
None

>  <name>  (13) 
P497852

>  <ref_pdb>  (13) 
A0486a

>  <ref_mols>  (13) 
A0486a,A0717a

>  <subsites>  (13) 
None

>  <tags>  (13) 
openbind_a71ev2a_c1_elabs_filtered,openbind_a71ev2a_c1_elab_chemspace_filtered_scored

>  <inchikey>  (13) 
VDSMSDWBTFDIHZ-OAQYLSRUSA-N

>  <scratch_subdir>  (13) 
nan

>  <smina_score_min>  (13) 
-5.093

>  <energy_score>  (13) 
-40.532067

>  <Energy>  (13) 
nan

>  <fragmenstein_outcome>  (13) 
nan

>  <alias>  (13) 
None

>  <HIPPO Pose ID>  (13) 
497852

>  <exports>  (13) 
['/opt/xchem-fragalysis-2/maxwin/openbind-hippo/a71ev2a/cycle_01/bulkdock/openbind_a71ev2a_c1_elab_chemspace.sdf', '/opt/xchem-fragalysis-2/maxwin/openbind-hippo/a71ev2a/cycle_01/syndirella/elabs/openbind_a71ev2a_c1_elab_chemspace_filtered.sdf']

>  <HIPPO Compound ID>  (13) 
289753

>  <gnina_score>  (13) 
4.686

$$$$
P497859
     RDKit          3D

 28 31  0  0  0  0  0  0  0  0999 V2000
   10.3783   13.5991   -0.3852 C   0  0  0  0  0  0  0  0  0  0  0  0
    9.7686   13.9635    0.8746 N   0  0  0  0  0  0  0  0  0  0  0  0
    8.7855   13.1818    1.3514 N   0  0  0  0  0  0  0  0  0  0  0  0
    8.3593   13.8264    2.4349 C   0  0  0  0  0  0  0  0  0  0  0  0
    9.0817   15.0145    2.6596 C   0  0  0  0  0  0  0  0  0  0  0  0
   10.0690   15.0390    1.6872 C   0  0  0  0  0  0  0  0  0  0  0  0
   11.2216   15.9255    1.4769 C   0  0  0  0  0  0  0  0  0  0  0  0
   12.5116   15.3807    1.3433 C   0  0  0  0  0  0  0  0  0  0  0  0
   13.6310   16.1816    1.0455 C   0  0  0  0  0  0  0  0  0  0  0  0
   13.5085   17.5657    0.8741 C   0  0  0  0  0  0  0  0  0  0  0  0
   14.7093   18.4804    0.6086 C   0  0  0  0  0  0  0  0  0  0  0  0
   15.8933   17.7994    0.0803 N   0  0  0  0  0  0  0  0  0  0  0  0
   17.1907   18.2598    0.5676 C   0  0  2  0  0  0  0  0  0  0  0  0
   18.0359   18.4039   -0.5534 O   0  0  0  0  0  0  0  0  0  0  0  0
   17.7734   17.2339    1.5435 C   0  0  0  0  0  0  0  0  0  0  0  0
   16.9181   16.8576    2.5883 C   0  0  0  0  0  0  0  0  0  0  0  0
   17.1048   15.6817    3.2893 C   0  0  0  0  0  0  0  0  0  0  0  0
   18.2359   14.9201    3.0085 C   0  0  0  0  0  0  0  0  0  0  0  0
   18.6753   13.6609    3.4198 C   0  0  0  0  0  0  0  0  0  0  0  0
   19.8837   13.3656    2.9640 N   0  0  0  0  0  0  0  0  0  0  0  0
   20.2747   14.5029    2.3230 N   0  0  0  0  0  0  0  0  0  0  0  0
   21.7021   14.6921    2.0652 C   0  0  0  0  0  0  0  0  0  0  0  0
   22.1919   13.7595    1.2059 F   0  0  0  0  0  0  0  0  0  0  0  0
   21.9644   15.9079    1.5099 F   0  0  0  0  0  0  0  0  0  0  0  0
   19.2337   15.4074    2.1655 C   0  0  0  0  0  0  0  0  0  0  0  0
   19.0240   16.5763    1.3984 C   0  0  0  0  0  0  0  0  0  0  0  0
   12.2221   18.1151    1.0475 C   0  0  0  0  0  0  0  0  0  0  0  0
   11.0965   17.3095    1.3431 C   0  0  0  0  0  0  0  0  0  0  0  0
  1  2  1  0
  2  3  1  0
  3  4  2  0
  4  5  1  0
  5  6  2  0
  6  7  1  0
  7  8  2  0
  8  9  1  0
  9 10  2  0
 10 11  1  0
 11 12  1  0
 12 13  1  0
 13 14  1  6
 13 15  1  0
 15 16  2  0
 16 17  1  0
 17 18  2  0
 18 19  1  0
 19 20  2  0
 20 21  1  0
 21 22  1  0
 22 23  1  0
 22 24  1  0
 21 25  1  0
 25 26  2  0
 10 27  1  0
 27 28  2  0
  6  2  1  0
 28  7  1  0
 26 15  1  0
 25 18  1  0
M  END
>  <distance_score>  (14) 
1.767089

>  <smiles>  (14) 
Cn1nccc1-c1ccc(CN[C@H](O)c2ccc3cnn(C(F)F)c3c2)cc1

>  <fragmenstein_error>  (14) 
nan

>  <fragmenstein_runtime>  (14) 
nan

>  <gnina_score_min>  (14) 
4.37

>  <orig_smiles>  (14) 
nan

>  <fragmenstein_mode>  (14) 
nan

>  <rmsd(smina/fragmenstein)>  (14) 
2.237

>  <inspiration_score>  (14) 
None

>  <name>  (14) 
P497859

>  <ref_pdb>  (14) 
A0486a

>  <ref_mols>  (14) 
A0486a,A0717a

>  <subsites>  (14) 
None

>  <tags>  (14) 
openbind_a71ev2a_c1_elabs_filtered,openbind_a71ev2a_c1_elab_chemspace_filtered_scored

>  <inchikey>  (14) 
RNWDAZQTRPMLCX-LJQANCHMSA-N

>  <scratch_subdir>  (14) 
nan

>  <smina_score_min>  (14) 
-3.954

>  <energy_score>  (14) 
-13.527946

>  <Energy>  (14) 
nan

>  <fragmenstein_outcome>  (14) 
nan

>  <alias>  (14) 
None

>  <HIPPO Pose ID>  (14) 
497859

>  <exports>  (14) 
['/opt/xchem-fragalysis-2/maxwin/openbind-hippo/a71ev2a/cycle_01/bulkdock/openbind_a71ev2a_c1_elab_chemspace.sdf', '/opt/xchem-fragalysis-2/maxwin/openbind-hippo/a71ev2a/cycle_01/syndirella/elabs/openbind_a71ev2a_c1_elab_chemspace_filtered.sdf']

>  <HIPPO Compound ID>  (14) 
289757

>  <gnina_score>  (14) 
4.064

$$$$
P497860
     RDKit          3D

 28 31  0  0  0  0  0  0  0  0999 V2000
    8.6545   11.9093    1.2685 C   0  0  0  0  0  0  0  0  0  0  0  0
    8.9367   13.2587    1.6945 N   0  0  0  0  0  0  0  0  0  0  0  0
    8.2747   13.9721    2.6426 C   0  0  0  0  0  0  0  0  0  0  0  0
    8.9333   15.1776    2.7305 C   0  0  0  0  0  0  0  0  0  0  0  0
   10.0075   15.1033    1.7993 C   0  0  0  0  0  0  0  0  0  0  0  0
   11.1036   16.0552    1.5359 C   0  0  0  0  0  0  0  0  0  0  0  0
   11.8494   15.9572    0.3444 C   0  0  0  0  0  0  0  0  0  0  0  0
   12.9724   16.7710    0.0895 C   0  0  0  0  0  0  0  0  0  0  0  0
   13.4158   17.7023    1.0341 C   0  0  0  0  0  0  0  0  0  0  0  0
   14.6274   18.6072    0.7905 C   0  0  0  0  0  0  0  0  0  0  0  0
   15.7648   17.9595    0.1094 N   0  0  0  0  0  0  0  0  0  0  0  0
   17.0877   18.3309    0.6315 C   0  0  2  0  0  0  0  0  0  0  0  0
   17.9121   18.4529   -0.5055 O   0  0  0  0  0  0  0  0  0  0  0  0
   17.6631   17.2639    1.5679 C   0  0  0  0  0  0  0  0  0  0  0  0
   16.8174   16.8246    2.5949 C   0  0  0  0  0  0  0  0  0  0  0  0
   17.0497   15.6411    3.2737 C   0  0  0  0  0  0  0  0  0  0  0  0
   18.2055   14.9231    2.9773 C   0  0  0  0  0  0  0  0  0  0  0  0
   18.6961   13.6736    3.3642 C   0  0  0  0  0  0  0  0  0  0  0  0
   19.8870   13.4053    2.8468 N   0  0  0  0  0  0  0  0  0  0  0  0
   20.2296   14.5622    2.2165 N   0  0  0  0  0  0  0  0  0  0  0  0
   21.5787   14.7334    1.6815 C   0  0  0  0  0  0  0  0  0  0  0  0
   22.4870   13.8783    2.2198 F   0  0  0  0  0  0  0  0  0  0  0  0
   22.0438   15.9933    1.9067 F   0  0  0  0  0  0  0  0  0  0  0  0
   19.1700   15.4531    2.1248 C   0  0  0  0  0  0  0  0  0  0  0  0
   18.9263   16.6373    1.3954 C   0  0  0  0  0  0  0  0  0  0  0  0
   12.6515   17.8285    2.2120 C   0  0  0  0  0  0  0  0  0  0  0  0
   11.5147   17.0219    2.4599 C   0  0  0  0  0  0  0  0  0  0  0  0
    9.9714   13.9228    1.1571 N   0  0  0  0  0  0  0  0  0  0  0  0
  1  2  1  0
  2  3  1  0
  3  4  2  0
  4  5  1  0
  5  6  1  0
  6  7  2  0
  7  8  1  0
  8  9  2  0
  9 10  1  0
 10 11  1  0
 11 12  1  0
 12 13  1  6
 12 14  1  0
 14 15  2  0
 15 16  1  0
 16 17  2  0
 17 18  1  0
 18 19  2  0
 19 20  1  0
 20 21  1  0
 21 22  1  0
 21 23  1  0
 20 24  1  0
 24 25  2  0
  9 26  1  0
 26 27  2  0
  5 28  2  0
 28  2  1  0
 27  6  1  0
 25 14  1  0
 24 17  1  0
M  END
>  <distance_score>  (15) 
1.822419

>  <smiles>  (15) 
Cn1ccc(-c2ccc(CN[C@H](O)c3ccc4cnn(C(F)F)c4c3)cc2)n1

>  <fragmenstein_error>  (15) 
nan

>  <fragmenstein_runtime>  (15) 
nan

>  <gnina_score_min>  (15) 
4.161

>  <orig_smiles>  (15) 
nan

>  <fragmenstein_mode>  (15) 
nan

>  <rmsd(smina/fragmenstein)>  (15) 
2.646

>  <inspiration_score>  (15) 
None

>  <name>  (15) 
P497860

>  <ref_pdb>  (15) 
A0486a

>  <ref_mols>  (15) 
A0486a,A0717a

>  <subsites>  (15) 
None

>  <tags>  (15) 
openbind_a71ev2a_c1_elabs_filtered,openbind_a71ev2a_c1_elab_chemspace_filtered_scored

>  <inchikey>  (15) 
PWAVOIAAFNEUPA-LJQANCHMSA-N

>  <scratch_subdir>  (15) 
nan

>  <smina_score_min>  (15) 
-4.795

>  <energy_score>  (15) 
-18.393939

>  <Energy>  (15) 
nan

>  <fragmenstein_outcome>  (15) 
nan

>  <alias>  (15) 
None

>  <HIPPO Pose ID>  (15) 
497860

>  <exports>  (15) 
['/opt/xchem-fragalysis-2/maxwin/openbind-hippo/a71ev2a/cycle_01/bulkdock/openbind_a71ev2a_c1_elab_chemspace.sdf', '/opt/xchem-fragalysis-2/maxwin/openbind-hippo/a71ev2a/cycle_01/syndirella/elabs/openbind_a71ev2a_c1_elab_chemspace_filtered.sdf']

>  <HIPPO Compound ID>  (15) 
289758

>  <gnina_score>  (15) 
4.159

$$$$
P497863
     RDKit          3D

 28 31  0  0  0  0  0  0  0  0999 V2000
   16.7562   14.0328    2.4479 C   0  0  0  0  0  0  0  0  0  0  0  0
   17.6278   15.2281    2.2226 C   0  0  0  0  0  0  0  0  0  0  0  0
   17.1133   16.5249    1.8655 C   0  0  0  0  0  0  0  0  0  0  0  0
   15.6169   16.7407    1.5685 C   0  0  2  0  0  0  0  0  0  0  0  0
   15.5023   17.1237    0.2045 O   0  0  0  0  0  0  0  0  0  0  0  0
   15.0429   17.7449    2.4523 N   0  0  0  0  0  0  0  0  0  0  0  0
   13.8121   18.3813    1.9760 C   0  0  0  0  0  0  0  0  0  0  0  0
   12.5718   17.5140    2.0130 C   0  0  0  0  0  0  0  0  0  0  0  0
   12.2976   16.6392    0.9582 C   0  0  0  0  0  0  0  0  0  0  0  0
   11.1812   15.8011    0.9997 C   0  0  0  0  0  0  0  0  0  0  0  0
   10.2908   15.8193    2.0862 C   0  0  0  0  0  0  0  0  0  0  0  0
    9.2811   14.7581    2.1969 C   0  0  0  0  0  0  0  0  0  0  0  0
    8.2042   14.6165    3.1123 C   0  0  0  0  0  0  0  0  0  0  0  0
    7.7009   13.3538    2.9006 C   0  0  0  0  0  0  0  0  0  0  0  0
    8.4514   12.8178    1.9021 N   0  0  0  0  0  0  0  0  0  0  0  0
    8.3464   11.4865    1.3560 C   0  0  0  0  0  0  0  0  0  0  0  0
    9.3900   13.6537    1.4383 N   0  0  0  0  0  0  0  0  0  0  0  0
   10.5182   16.7537    3.1051 C   0  0  0  0  0  0  0  0  0  0  0  0
   11.6577   17.5782    3.0769 C   0  0  0  0  0  0  0  0  0  0  0  0
   17.9676   17.6687    1.6725 C   0  0  0  0  0  0  0  0  0  0  0  0
   19.3619   17.6336    1.7578 C   0  0  0  0  0  0  0  0  0  0  0  0
   19.8196   16.3589    2.0513 C   0  0  0  0  0  0  0  0  0  0  0  0
   21.1412   16.0078    2.1245 C   0  0  0  0  0  0  0  0  0  0  0  0
   22.3980   16.7684    1.9012 C   0  0  0  0  0  0  0  0  0  0  0  0
   21.1114   14.6864    2.4943 N   0  0  0  0  0  0  0  0  0  0  0  0
   22.2529   13.8702    2.8349 C   0  0  0  0  0  0  0  0  0  0  0  0
   19.8665   14.1522    2.5668 N   0  0  0  0  0  0  0  0  0  0  0  0
   19.0374   15.1780    2.2958 C   0  0  0  0  0  0  0  0  0  0  0  0
  1  2  1  0
  2  3  2  0
  3  4  1  0
  4  5  1  6
  4  6  1  0
  6  7  1  0
  7  8  1  0
  8  9  2  0
  9 10  1  0
 10 11  2  0
 11 12  1  0
 12 13  1  0
 13 14  2  0
 14 15  1  0
 15 16  1  0
 15 17  1  0
 11 18  1  0
 18 19  2  0
  3 20  1  0
 20 21  2  0
 21 22  1  0
 22 23  2  0
 23 24  1  0
 23 25  1  0
 25 26  1  0
 25 27  1  0
 27 28  2  0
 28  2  1  0
 19  8  1  0
 28 22  1  0
 17 12  2  0
M  END
>  <distance_score>  (16) 
1.727936

>  <smiles>  (16) 
Cc1c([C@H](O)NCc2ccc(-c3ccn(C)n3)cc2)ccc2c(C)n(C)nc12

>  <fragmenstein_error>  (16) 
nan

>  <fragmenstein_runtime>  (16) 
nan

>  <gnina_score_min>  (16) 
4.096

>  <orig_smiles>  (16) 
nan

>  <fragmenstein_mode>  (16) 
nan

>  <rmsd(smina/fragmenstein)>  (16) 
2.037

>  <inspiration_score>  (16) 
None

>  <name>  (16) 
P497863

>  <ref_pdb>  (16) 
A0486a

>  <ref_mols>  (16) 
A0486a,A0717a

>  <subsites>  (16) 
None

>  <tags>  (16) 
openbind_a71ev2a_c1_elabs_filtered,openbind_a71ev2a_c1_elab_chemspace_filtered_scored

>  <inchikey>  (16) 
LURZPXDEORHJAD-QFIPXVFZSA-N

>  <scratch_subdir>  (16) 
nan

>  <smina_score_min>  (16) 
-4.931

>  <energy_score>  (16) 
-43.357399

>  <Energy>  (16) 
nan

>  <fragmenstein_outcome>  (16) 
nan

>  <alias>  (16) 
None

>  <HIPPO Pose ID>  (16) 
497863

>  <exports>  (16) 
['/opt/xchem-fragalysis-2/maxwin/openbind-hippo/a71ev2a/cycle_01/bulkdock/openbind_a71ev2a_c1_elab_chemspace.sdf', '/opt/xchem-fragalysis-2/maxwin/openbind-hippo/a71ev2a/cycle_01/syndirella/elabs/openbind_a71ev2a_c1_elab_chemspace_filtered.sdf']

>  <HIPPO Compound ID>  (16) 
289760

>  <gnina_score>  (16) 
4.849

$$$$
P497871
     RDKit          3D

 28 31  0  0  0  0  0  0  0  0999 V2000
    8.0712   11.5381    0.8314 C   0  0  0  0  0  0  0  0  0  0  0  0
    8.2125   12.7507    1.6000 N   0  0  0  0  0  0  0  0  0  0  0  0
    7.5332   13.0872    2.7281 C   0  0  0  0  0  0  0  0  0  0  0  0
    8.0422   14.3019    3.1234 C   0  0  0  0  0  0  0  0  0  0  0  0
    9.0566   14.6160    2.1786 C   0  0  0  0  0  0  0  0  0  0  0  0
   10.0817   15.6644    2.2374 C   0  0  0  0  0  0  0  0  0  0  0  0
   11.2158   15.5384    1.4160 C   0  0  0  0  0  0  0  0  0  0  0  0
   12.3706   16.2857    1.6504 C   0  0  0  0  0  0  0  0  0  0  0  0
   12.4268   17.1857    2.7172 C   0  0  0  0  0  0  0  0  0  0  0  0
   13.7008   17.9109    3.1032 C   0  0  0  0  0  0  0  0  0  0  0  0
   14.9158   17.3115    2.5413 N   0  0  0  0  0  0  0  0  0  0  0  0
   16.1069   17.6328    3.2940 C   0  0  2  0  0  0  0  0  0  0  0  0
   16.2221   19.0318    3.4637 O   0  0  0  0  0  0  0  0  0  0  0  0
   17.3755   17.0751    2.6432 C   0  0  0  0  0  0  0  0  0  0  0  0
   18.1432   17.9022    1.7552 C   0  0  0  0  0  0  0  0  0  0  0  0
   19.3765   17.5267    1.2049 C   0  0  0  0  0  0  0  0  0  0  0  0
   19.7625   16.2737    1.6456 C   0  0  0  0  0  0  0  0  0  0  0  0
   20.9889   15.7333    1.4193 C   0  0  0  0  0  0  0  0  0  0  0  0
   21.0017   14.5798    2.1564 N   0  0  0  0  0  0  0  0  0  0  0  0
   22.1917   13.7615    2.3571 C   0  0  0  0  0  0  0  0  0  0  0  0
   23.3141   14.5271    2.3771 F   0  0  0  0  0  0  0  0  0  0  0  0
   22.3531   12.9150    1.3080 F   0  0  0  0  0  0  0  0  0  0  0  0
   19.7885   14.2672    2.7074 N   0  0  0  0  0  0  0  0  0  0  0  0
   19.0386   15.3655    2.4843 C   0  0  0  0  0  0  0  0  0  0  0  0
   17.7784   15.7422    2.9730 C   0  0  0  0  0  0  0  0  0  0  0  0
   11.2525   17.4044    3.4620 C   0  0  0  0  0  0  0  0  0  0  0  0
   10.0886   16.6552    3.2241 C   0  0  0  0  0  0  0  0  0  0  0  0
    9.1048   13.6751    1.2209 N   0  0  0  0  0  0  0  0  0  0  0  0
  1  2  1  0
  2  3  1  0
  3  4  2  0
  4  5  1  0
  5  6  1  0
  6  7  2  0
  7  8  1  0
  8  9  2  0
  9 10  1  0
 10 11  1  0
 11 12  1  0
 12 13  1  6
 12 14  1  0
 14 15  1  0
 15 16  2  0
 16 17  1  0
 17 18  2  0
 18 19  1  0
 19 20  1  0
 20 21  1  0
 20 22  1  0
 19 23  1  0
 23 24  2  0
 24 25  1  0
  9 26  1  0
 26 27  2  0
  5 28  2  0
 28  2  1  0
 27  6  1  0
 25 14  2  0
 24 17  1  0
M  END
>  <distance_score>  (17) 
1.683493

>  <smiles>  (17) 
Cn1ccc(-c2ccc(CN[C@H](O)c3ccc4cn(C(F)F)nc4c3)cc2)n1

>  <fragmenstein_error>  (17) 
nan

>  <fragmenstein_runtime>  (17) 
nan

>  <gnina_score_min>  (17) 
4.059

>  <orig_smiles>  (17) 
nan

>  <fragmenstein_mode>  (17) 
nan

>  <rmsd(smina/fragmenstein)>  (17) 
2.149

>  <inspiration_score>  (17) 
None

>  <name>  (17) 
P497871

>  <ref_pdb>  (17) 
A0486a

>  <ref_mols>  (17) 
A0486a,A0717a

>  <subsites>  (17) 
None

>  <tags>  (17) 
openbind_a71ev2a_c1_elabs_filtered,openbind_a71ev2a_c1_elab_chemspace_filtered_scored

>  <inchikey>  (17) 
XGOAJKJIPNJOPK-LJQANCHMSA-N

>  <scratch_subdir>  (17) 
nan

>  <smina_score_min>  (17) 
-5.223

>  <energy_score>  (17) 
-27.655988

>  <Energy>  (17) 
nan

>  <fragmenstein_outcome>  (17) 
nan

>  <alias>  (17) 
None

>  <HIPPO Pose ID>  (17) 
497871

>  <exports>  (17) 
['/opt/xchem-fragalysis-2/maxwin/openbind-hippo/a71ev2a/cycle_01/bulkdock/openbind_a71ev2a_c1_elab_chemspace.sdf', '/opt/xchem-fragalysis-2/maxwin/openbind-hippo/a71ev2a/cycle_01/syndirella/elabs/openbind_a71ev2a_c1_elab_chemspace_filtered.sdf']

>  <HIPPO Compound ID>  (17) 
289765

>  <gnina_score>  (17) 
4.581

$$$$
P497876
     RDKit          3D

 28 31  0  0  0  0  0  0  0  0999 V2000
   22.5623   14.0721    1.6522 C   0  0  0  0  0  0  0  0  0  0  0  0
   21.6395   14.5661    2.7571 C   0  0  0  0  0  0  0  0  0  0  0  0
   20.2329   14.4143    2.4312 N   0  0  0  0  0  0  0  0  0  0  0  0
   19.7490   13.1584    2.3002 N   0  0  0  0  0  0  0  0  0  0  0  0
   18.6555   13.3233    1.5650 C   0  0  0  0  0  0  0  0  0  0  0  0
   18.3352   14.6768    1.3977 C   0  0  0  0  0  0  0  0  0  0  0  0
   17.3312   15.3668    0.7205 C   0  0  0  0  0  0  0  0  0  0  0  0
   17.1655   16.7202    0.9816 C   0  0  0  0  0  0  0  0  0  0  0  0
   17.9303   17.3656    1.9590 C   0  0  0  0  0  0  0  0  0  0  0  0
   17.3855   18.6704    2.5708 C   0  0  1  0  0  0  0  0  0  0  0  0
   15.9047   18.7745    2.5926 N   0  0  0  0  0  0  0  0  0  0  0  0
   15.2441   17.8360    3.5070 C   0  0  0  0  0  0  0  0  0  0  0  0
   13.8833   17.3261    3.0243 C   0  0  0  0  0  0  0  0  0  0  0  0
   13.8121   16.1811    2.2234 C   0  0  0  0  0  0  0  0  0  0  0  0
   12.5781   15.6125    1.8653 C   0  0  0  0  0  0  0  0  0  0  0  0
   11.3525   16.1418    2.3125 C   0  0  0  0  0  0  0  0  0  0  0  0
   10.1199   15.3455    2.1099 C   0  0  0  0  0  0  0  0  0  0  0  0
    8.9002   15.3665    2.8456 C   0  0  0  0  0  0  0  0  0  0  0  0
    8.1941   14.2583    2.4340 C   0  0  0  0  0  0  0  0  0  0  0  0
    8.9634   13.6616    1.4868 N   0  0  0  0  0  0  0  0  0  0  0  0
    8.6793   12.4353    0.7822 C   0  0  0  0  0  0  0  0  0  0  0  0
   10.1128   14.3113    1.2495 N   0  0  0  0  0  0  0  0  0  0  0  0
   11.4163   17.3153    3.0759 C   0  0  0  0  0  0  0  0  0  0  0  0
   12.6639   17.9053    3.4157 C   0  0  0  0  0  0  0  0  0  0  0  0
   17.9077   18.7868    3.8961 O   0  0  0  0  0  0  0  0  0  0  0  0
   17.9938   20.1367    4.3312 C   0  0  0  0  0  0  0  0  0  0  0  0
   19.1335   16.7523    2.4009 C   0  0  0  0  0  0  0  0  0  0  0  0
   19.2909   15.3778    2.1306 C   0  0  0  0  0  0  0  0  0  0  0  0
  1  2  1  0
  2  3  1  0
  3  4  1  0
  4  5  2  0
  5  6  1  0
  6  7  2  0
  7  8  1  0
  8  9  2  0
  9 10  1  0
 10 11  1  1
 11 12  1  0
 12 13  1  0
 13 14  2  0
 14 15  1  0
 15 16  2  0
 16 17  1  0
 17 18  1  0
 18 19  2  0
 19 20  1  0
 20 21  1  0
 20 22  1  0
 16 23  1  0
 23 24  2  0
 10 25  1  0
 25 26  1  0
  9 27  1  0
 27 28  2  0
 28  3  1  0
 28  6  1  0
 24 13  1  0
 22 17  2  0
M  END
>  <distance_score>  (18) 
1.793667

>  <smiles>  (18) 
CCn1ncc2ccc([C@@H](NCc3ccc(-c4ccn(C)n4)cc3)OC)cc21

>  <fragmenstein_error>  (18) 
nan

>  <fragmenstein_runtime>  (18) 
nan

>  <gnina_score_min>  (18) 
3.943

>  <orig_smiles>  (18) 
nan

>  <fragmenstein_mode>  (18) 
nan

>  <rmsd(smina/fragmenstein)>  (18) 
2.308

>  <inspiration_score>  (18) 
None

>  <name>  (18) 
P497876

>  <ref_pdb>  (18) 
A0486a

>  <ref_mols>  (18) 
A0486a,A0717a

>  <subsites>  (18) 
None

>  <tags>  (18) 
openbind_a71ev2a_c1_elabs_filtered,openbind_a71ev2a_c1_elab_chemspace_filtered_scored

>  <inchikey>  (18) 
DUDBYDKFJCOGDI-QFIPXVFZSA-N

>  <scratch_subdir>  (18) 
nan

>  <smina_score_min>  (18) 
-4.673

>  <energy_score>  (18) 
-10.764997

>  <Energy>  (18) 
nan

>  <fragmenstein_outcome>  (18) 
nan

>  <alias>  (18) 
None

>  <HIPPO Pose ID>  (18) 
497876

>  <exports>  (18) 
['/opt/xchem-fragalysis-2/maxwin/openbind-hippo/a71ev2a/cycle_01/bulkdock/openbind_a71ev2a_c1_elab_chemspace.sdf', '/opt/xchem-fragalysis-2/maxwin/openbind-hippo/a71ev2a/cycle_01/syndirella/elabs/openbind_a71ev2a_c1_elab_chemspace_filtered.sdf']

>  <HIPPO Compound ID>  (18) 
289767

>  <gnina_score>  (18) 
4.879

$$$$
P497878
     RDKit          3D

 29 32  0  0  0  0  0  0  0  0999 V2000
    8.6294   14.4343   -0.3917 C   0  0  0  0  0  0  0  0  0  0  0  0
    8.4666   14.0371    0.9883 N   0  0  0  0  0  0  0  0  0  0  0  0
    7.6917   12.9686    1.2460 N   0  0  0  0  0  0  0  0  0  0  0  0
    7.5998   12.9542    2.5745 C   0  0  0  0  0  0  0  0  0  0  0  0
    8.3214   14.0046    3.1641 C   0  0  0  0  0  0  0  0  0  0  0  0
    8.9875   14.6258    2.1195 C   0  0  0  0  0  0  0  0  0  0  0  0
   10.0979   15.5781    2.1401 C   0  0  0  0  0  0  0  0  0  0  0  0
   10.1674   16.6207    3.0663 C   0  0  0  0  0  0  0  0  0  0  0  0
   11.3320   17.4001    3.1715 C   0  0  0  0  0  0  0  0  0  0  0  0
   12.4437   17.1730    2.3394 C   0  0  0  0  0  0  0  0  0  0  0  0
   13.6707   18.0564    2.4219 C   0  0  0  0  0  0  0  0  0  0  0  0
   14.9205   17.4058    2.8405 N   0  0  0  0  0  0  0  0  0  0  0  0
   15.6245   16.6672    1.8003 C   0  0  1  0  0  0  0  0  0  0  0  0
   15.4447   17.2568    0.5209 O   0  0  0  0  0  0  0  0  0  0  0  0
   17.1410   16.6122    2.0396 C   0  0  0  0  0  0  0  0  0  0  0  0
   17.8697   17.8542    2.0312 C   0  0  0  0  0  0  0  0  0  0  0  0
   19.2602   17.9464    2.1381 C   0  0  0  0  0  0  0  0  0  0  0  0
   19.8330   16.6901    2.2024 C   0  0  0  0  0  0  0  0  0  0  0  0
   21.1750   16.4732    2.1987 C   0  0  0  0  0  0  0  0  0  0  0  0
   21.3148   15.1148    2.1434 N   0  0  0  0  0  0  0  0  0  0  0  0
   22.5713   14.3836    1.9002 C   0  0  0  0  0  0  0  0  0  0  0  0
   22.3571   13.3444    0.7942 C   0  0  0  0  0  0  0  0  0  0  0  0
   23.7149   15.3030    1.3951 C   0  0  0  0  0  0  0  0  0  0  0  0
   23.0513   13.7314    3.1896 C   0  0  0  0  0  0  0  0  0  0  0  0
   20.1254   14.4476    2.2559 N   0  0  0  0  0  0  0  0  0  0  0  0
   19.1879   15.4121    2.2163 C   0  0  0  0  0  0  0  0  0  0  0  0
   17.7894   15.3453    2.1632 C   0  0  0  0  0  0  0  0  0  0  0  0
   12.3496   16.1571    1.3877 C   0  0  0  0  0  0  0  0  0  0  0  0
   11.2090   15.3560    1.3106 C   0  0  0  0  0  0  0  0  0  0  0  0
  1  2  1  0
  2  3  1  0
  3  4  2  0
  4  5  1  0
  5  6  2  0
  6  7  1  0
  7  8  2  0
  8  9  1  0
  9 10  2  0
 10 11  1  0
 11 12  1  0
 12 13  1  0
 13 14  1  6
 13 15  1  0
 15 16  1  0
 16 17  2  0
 17 18  1  0
 18 19  2  0
 19 20  1  0
 20 21  1  0
 21 22  1  0
 21 23  1  0
 21 24  1  0
 20 25  1  0
 25 26  2  0
 26 27  1  0
 10 28  1  0
 28 29  2  0
  6  2  1  0
 29  7  1  0
 27 15  2  0
 26 18  1  0
M  END
>  <distance_score>  (19) 
1.683828

>  <smiles>  (19) 
Cn1nccc1-c1ccc(CN[C@@H](O)c2ccc3cn(C(C)(C)C)nc3c2)cc1

>  <fragmenstein_error>  (19) 
nan

>  <fragmenstein_runtime>  (19) 
nan

>  <gnina_score_min>  (19) 
4.175

>  <orig_smiles>  (19) 
nan

>  <fragmenstein_mode>  (19) 
nan

>  <rmsd(smina/fragmenstein)>  (19) 
2.56

>  <inspiration_score>  (19) 
None

>  <name>  (19) 
P497878

>  <ref_pdb>  (19) 
A0486a

>  <ref_mols>  (19) 
A0486a,A0717a

>  <subsites>  (19) 
None

>  <tags>  (19) 
openbind_a71ev2a_c1_elabs_filtered,openbind_a71ev2a_c1_elab_chemspace_filtered_scored

>  <inchikey>  (19) 
HSWLALQSLJLUHF-QFIPXVFZSA-N

>  <scratch_subdir>  (19) 
nan

>  <smina_score_min>  (19) 
-4.498

>  <energy_score>  (19) 
-52.447668

>  <Energy>  (19) 
nan

>  <fragmenstein_outcome>  (19) 
nan

>  <alias>  (19) 
None

>  <HIPPO Pose ID>  (19) 
497878

>  <exports>  (19) 
['/opt/xchem-fragalysis-2/maxwin/openbind-hippo/a71ev2a/cycle_01/bulkdock/openbind_a71ev2a_c1_elab_chemspace.sdf', '/opt/xchem-fragalysis-2/maxwin/openbind-hippo/a71ev2a/cycle_01/syndirella/elabs/openbind_a71ev2a_c1_elab_chemspace_filtered.sdf']

>  <HIPPO Compound ID>  (19) 
289769

>  <gnina_score>  (19) 
4.829

$$$$
P497884
     RDKit          3D

 22 24  0  0  0  0  0  0  0  0999 V2000
    8.5927   17.4018   20.7008 C   0  0  0  0  0  0  0  0  0  0  0  0
    9.5635   16.3208   20.4676 C   0  0  0  0  0  0  0  0  0  0  0  0
   10.3373   15.7219   21.3450 N   0  0  0  0  0  0  0  0  0  0  0  0
   11.1630   14.9388   20.5868 C   0  0  0  0  0  0  0  0  0  0  0  0
   12.3878   14.3359   21.1521 C   0  0  0  0  0  0  0  0  0  0  0  0
   12.3328   14.1895   22.6558 C   0  0  0  0  0  0  0  0  0  0  0  0
   11.3208   13.2806   23.0847 N   0  0  0  0  0  0  0  0  0  0  0  0
   10.4662   13.2717   24.3498 C   0  0  0  0  0  0  0  0  0  0  0  0
   10.3915   14.0455   25.2159 O   0  0  0  0  0  0  0  0  0  0  0  0
    9.6707   12.0407   24.3285 C   0  0  0  0  0  0  0  0  0  0  0  0
   10.0077   11.0205   23.5171 N   0  0  0  0  0  0  0  0  0  0  0  0
    9.1711   10.0323   23.8635 N   0  0  0  0  0  0  0  0  0  0  0  0
    9.3129    8.7637   23.1918 C   0  0  0  0  0  0  0  0  0  0  0  0
    8.2671   10.3951   24.8328 C   0  0  0  0  0  0  0  0  0  0  0  0
    7.2493    9.7034   25.4934 C   0  0  0  0  0  0  0  0  0  0  0  0
    6.4814   10.3975   26.4314 C   0  0  0  0  0  0  0  0  0  0  0  0
    6.7304   11.7367   26.6950 C   0  0  0  0  0  0  0  0  0  0  0  0
    5.9850   12.3699   27.6106 F   0  0  0  0  0  0  0  0  0  0  0  0
    7.7554   12.4241   26.0556 C   0  0  0  0  0  0  0  0  0  0  0  0
    8.5401   11.7306   25.1169 C   0  0  0  0  0  0  0  0  0  0  0  0
   10.7618   14.9994   19.2786 C   0  0  0  0  0  0  0  0  0  0  0  0
    9.7280   15.8804   19.1878 O   0  0  0  0  0  0  0  0  0  0  0  0
  1  2  1  0
  2  3  2  0
  3  4  1  0
  4  5  1  0
  5  6  1  0
  6  7  1  0
  7  8  1  0
  8  9  2  0
  8 10  1  0
 10 11  2  0
 11 12  1  0
 12 13  1  0
 12 14  1  0
 14 15  2  0
 15 16  1  0
 16 17  2  0
 17 18  1  0
 17 19  1  0
 19 20  2  0
  4 21  2  0
 21 22  1  0
 22  2  1  0
 20 10  1  0
 20 14  1  0
M  END
>  <distance_score>  (20) 
0.533466

>  <smiles>  (20) 
Cc1nc(CCNC(=O)c2nn(C)c3ccc(F)cc23)co1

>  <fragmenstein_error>  (20) 
nan

>  <fragmenstein_runtime>  (20) 
nan

>  <gnina_score_min>  (20) 
6.061

>  <orig_smiles>  (20) 
nan

>  <fragmenstein_mode>  (20) 
nan

>  <rmsd(smina/fragmenstein)>  (20) 
0.209

>  <inspiration_score>  (20) 
None

>  <name>  (20) 
P497884

>  <ref_pdb>  (20) 
A2290a

>  <ref_mols>  (20) 
A2290a,A3436a

>  <subsites>  (20) 
None

>  <tags>  (20) 
openbind_a71ev2a_c1_elabs_filtered,openbind_a71ev2a_c1_elab_chemspace_filtered_scored

>  <inchikey>  (20) 
IIHQBSBEBQSMSZ-UHFFFAOYSA-N

>  <scratch_subdir>  (20) 
nan

>  <smina_score_min>  (20) 
-6.633

>  <energy_score>  (20) 
-10.521861

>  <Energy>  (20) 
nan

>  <fragmenstein_outcome>  (20) 
nan

>  <alias>  (20) 
None

>  <HIPPO Pose ID>  (20) 
497884

>  <exports>  (20) 
['/opt/xchem-fragalysis-2/maxwin/openbind-hippo/a71ev2a/cycle_01/bulkdock/openbind_a71ev2a_c1_elab_chemspace.sdf', '/opt/xchem-fragalysis-2/maxwin/openbind-hippo/a71ev2a/cycle_01/syndirella/elabs/openbind_a71ev2a_c1_elab_chemspace_filtered.sdf', '/opt/xchem-fragalysis-2/maxwin/openbind-hippo/a71ev2a/cycle_01/syndirella/elabs/ASAP-0031281-001_elabs.sdf']

>  <HIPPO Compound ID>  (20) 
289825

>  <gnina_score>  (20) 
6.044

$$$$
P497887
     RDKit          3D

 22 24  0  0  0  0  0  0  0  0999 V2000
   11.6966   14.4550   18.6093 C   0  0  0  0  0  0  0  0  0  0  0  0
   10.8338   15.0270   19.6373 C   0  0  0  0  0  0  0  0  0  0  0  0
    9.7565   15.7665   19.2307 O   0  0  0  0  0  0  0  0  0  0  0  0
    9.2965   16.3107   20.3849 C   0  0  0  0  0  0  0  0  0  0  0  0
    9.8905   15.8724   21.4616 N   0  0  0  0  0  0  0  0  0  0  0  0
   10.9664   15.1886   20.9932 C   0  0  0  0  0  0  0  0  0  0  0  0
   12.1433   14.9923   21.8619 C   0  0  0  0  0  0  0  0  0  0  0  0
   12.4684   13.5725   22.2064 C   0  0  0  0  0  0  0  0  0  0  0  0
   11.3850   12.8506   22.7595 N   0  0  0  0  0  0  0  0  0  0  0  0
   10.5988   13.0723   24.0543 C   0  0  0  0  0  0  0  0  0  0  0  0
   10.6633   13.9299   24.8400 O   0  0  0  0  0  0  0  0  0  0  0  0
    9.7039   11.9209   24.1764 C   0  0  0  0  0  0  0  0  0  0  0  0
    9.9426   10.8460   23.4069 N   0  0  0  0  0  0  0  0  0  0  0  0
    9.0864    9.9225   23.8366 N   0  0  0  0  0  0  0  0  0  0  0  0
    9.1635    8.6271   23.2140 C   0  0  0  0  0  0  0  0  0  0  0  0
    8.2419   10.3786   24.8188 C   0  0  0  0  0  0  0  0  0  0  0  0
    7.2082    9.7765   25.5388 C   0  0  0  0  0  0  0  0  0  0  0  0
    6.5128   10.5549   26.4683 C   0  0  0  0  0  0  0  0  0  0  0  0
    6.8471   11.8908   26.6695 C   0  0  0  0  0  0  0  0  0  0  0  0
    5.8874   12.9054   27.9449 Br  0  0  0  0  0  0  0  0  0  0  0  0
    7.8911   12.4884   25.9629 C   0  0  0  0  0  0  0  0  0  0  0  0
    8.5996   11.7110   25.0292 C   0  0  0  0  0  0  0  0  0  0  0  0
  1  2  1  0
  2  3  1  0
  3  4  1  0
  4  5  2  0
  5  6  1  0
  6  7  1  0
  7  8  1  0
  8  9  1  0
  9 10  1  0
 10 11  2  0
 10 12  1  0
 12 13  2  0
 13 14  1  0
 14 15  1  0
 14 16  1  0
 16 17  2  0
 17 18  1  0
 18 19  2  0
 19 20  1  0
 19 21  1  0
 21 22  2  0
  6  2  2  0
 22 12  1  0
 22 16  1  0
M  END
>  <distance_score>  (21) 
0.510567

>  <smiles>  (21) 
Cc1ocnc1CCNC(=O)c1nn(C)c2ccc(Br)cc12

>  <fragmenstein_error>  (21) 
nan

>  <fragmenstein_runtime>  (21) 
nan

>  <gnina_score_min>  (21) 
6.01

>  <orig_smiles>  (21) 
nan

>  <fragmenstein_mode>  (21) 
nan

>  <rmsd(smina/fragmenstein)>  (21) 
0.405

>  <inspiration_score>  (21) 
None

>  <name>  (21) 
P497887

>  <ref_pdb>  (21) 
A2290a

>  <ref_mols>  (21) 
A2290a,A3436a

>  <subsites>  (21) 
None

>  <tags>  (21) 
openbind_a71ev2a_c1_elabs_filtered,openbind_a71ev2a_c1_elab_chemspace_filtered_scored

>  <inchikey>  (21) 
PTLSPUZRFSQXHO-UHFFFAOYSA-N

>  <scratch_subdir>  (21) 
nan

>  <smina_score_min>  (21) 
-6.12

>  <energy_score>  (21) 
-15.168538

>  <Energy>  (21) 
nan

>  <fragmenstein_outcome>  (21) 
nan

>  <alias>  (21) 
None

>  <HIPPO Pose ID>  (21) 
497887

>  <exports>  (21) 
['/opt/xchem-fragalysis-2/maxwin/openbind-hippo/a71ev2a/cycle_01/bulkdock/openbind_a71ev2a_c1_elab_chemspace.sdf', '/opt/xchem-fragalysis-2/maxwin/openbind-hippo/a71ev2a/cycle_01/syndirella/elabs/openbind_a71ev2a_c1_elab_chemspace_filtered.sdf', '/opt/xchem-fragalysis-2/maxwin/openbind-hippo/a71ev2a/cycle_01/syndirella/elabs/ASAP-0031281-001_elabs.sdf']

>  <HIPPO Compound ID>  (21) 
289826

>  <gnina_score>  (21) 
5.992

$$$$
P497894
     RDKit          3D

 24 26  0  0  0  0  0  0  0  0999 V2000
   12.6543   14.9827   22.0735 C   0  0  0  0  0  0  0  0  0  0  0  0
   11.9054   13.9815   21.2474 C   0  0  2  0  0  0  0  0  0  0  0  0
   11.2944   14.5469   19.9660 C   0  0  0  0  0  0  0  0  0  0  0  0
   10.2404   15.5790   20.0261 C   0  0  0  0  0  0  0  0  0  0  0  0
    9.8778   16.4290   19.0022 C   0  0  0  0  0  0  0  0  0  0  0  0
    9.0140   17.3482   19.4909 O   0  0  0  0  0  0  0  0  0  0  0  0
    8.8556   16.9685   20.7830 C   0  0  0  0  0  0  0  0  0  0  0  0
    9.5250   15.8921   21.1441 N   0  0  0  0  0  0  0  0  0  0  0  0
   11.0474   13.1184   22.0184 N   0  0  0  0  0  0  0  0  0  0  0  0
   10.4363   13.3067   23.4142 C   0  0  0  0  0  0  0  0  0  0  0  0
   10.4649   14.2222   24.1342 O   0  0  0  0  0  0  0  0  0  0  0  0
    9.7017   12.0809   23.7675 C   0  0  0  0  0  0  0  0  0  0  0  0
    9.9838   10.9201   23.1538 N   0  0  0  0  0  0  0  0  0  0  0  0
    9.2165   10.0168   23.7738 N   0  0  0  0  0  0  0  0  0  0  0  0
    9.4027    8.6273   23.4462 C   0  0  0  0  0  0  0  0  0  0  0  0
    8.3658   10.5553   24.7084 C   0  0  0  0  0  0  0  0  0  0  0  0
    7.3785    9.9884   25.5258 C   0  0  0  0  0  0  0  0  0  0  0  0
    6.6635   10.8385   26.3717 C   0  0  0  0  0  0  0  0  0  0  0  0
    6.9483   12.2075   26.3977 C   0  0  0  0  0  0  0  0  0  0  0  0
    6.1987   13.0736   27.3084 N   0  0  0  0  0  0  0  0  0  0  0  0
    6.7489   14.1188   27.6841 O   0  0  0  0  0  0  0  0  0  0  0  0
    5.0841   12.6841   27.6875 O   0  0  0  0  0  0  0  0  0  0  0  0
    7.9516   12.7689   25.5924 C   0  0  0  0  0  0  0  0  0  0  0  0
    8.6642   11.9166   24.7274 C   0  0  0  0  0  0  0  0  0  0  0  0
  2  1  1  1
  2  3  1  0
  3  4  1  0
  4  5  2  0
  5  6  1  0
  6  7  1  0
  7  8  2  0
  2  9  1  0
  9 10  1  0
 10 11  2  0
 10 12  1  0
 12 13  2  0
 13 14  1  0
 14 15  1  0
 14 16  1  0
 16 17  2  0
 17 18  1  0
 18 19  2  0
 19 20  1  0
 20 21  2  0
 20 22  1  0
 19 23  1  0
 23 24  2  0
  8  4  1  0
 24 12  1  0
 24 16  1  0
M  CHG  2  20   1  22  -1
M  END
>  <distance_score>  (22) 
0.717993

>  <smiles>  (22) 
C[C@H](Cc1cocn1)NC(=O)c1nn(C)c2ccc([N+](=O)[O-])cc12

>  <fragmenstein_error>  (22) 
nan

>  <fragmenstein_runtime>  (22) 
nan

>  <gnina_score_min>  (22) 
5.903

>  <orig_smiles>  (22) 
nan

>  <fragmenstein_mode>  (22) 
nan

>  <rmsd(smina/fragmenstein)>  (22) 
1.798

>  <inspiration_score>  (22) 
None

>  <name>  (22) 
P497894

>  <ref_pdb>  (22) 
A2290a

>  <ref_mols>  (22) 
A2290a,A3436a

>  <subsites>  (22) 
None

>  <tags>  (22) 
openbind_a71ev2a_c1_elabs_filtered,openbind_a71ev2a_c1_elab_chemspace_filtered_scored

>  <inchikey>  (22) 
NQAJYEHWEJRFCO-SECBINFHSA-N

>  <scratch_subdir>  (22) 
nan

>  <smina_score_min>  (22) 
-6.774

>  <energy_score>  (22) 
-20.190989

>  <Energy>  (22) 
nan

>  <fragmenstein_outcome>  (22) 
nan

>  <alias>  (22) 
None

>  <HIPPO Pose ID>  (22) 
497894

>  <exports>  (22) 
['/opt/xchem-fragalysis-2/maxwin/openbind-hippo/a71ev2a/cycle_01/bulkdock/openbind_a71ev2a_c1_elab_chemspace.sdf', '/opt/xchem-fragalysis-2/maxwin/openbind-hippo/a71ev2a/cycle_01/syndirella/elabs/openbind_a71ev2a_c1_elab_chemspace_filtered.sdf', '/opt/xchem-fragalysis-2/maxwin/openbind-hippo/a71ev2a/cycle_01/syndirella/elabs/ASAP-0031281-001_elabs.sdf']

>  <HIPPO Compound ID>  (22) 
289832

>  <gnina_score>  (22) 
6.211

$$$$
P497897
     RDKit          3D

 24 26  0  0  0  0  0  0  0  0999 V2000
    8.5864   17.4086   20.6937 C   0  0  0  0  0  0  0  0  0  0  0  0
    9.5600   16.3313   20.4570 C   0  0  0  0  0  0  0  0  0  0  0  0
   10.3473   15.7464   21.3307 N   0  0  0  0  0  0  0  0  0  0  0  0
   11.1685   14.9601   20.5708 C   0  0  0  0  0  0  0  0  0  0  0  0
   12.4080   14.3785   21.1259 C   0  0  0  0  0  0  0  0  0  0  0  0
   12.3784   14.2782   22.6330 C   0  0  0  0  0  0  0  0  0  0  0  0
   11.4039   13.3416   23.0784 N   0  0  0  0  0  0  0  0  0  0  0  0
   10.5729   13.3068   24.3590 C   0  0  0  0  0  0  0  0  0  0  0  0
   10.4909   14.0776   25.2271 O   0  0  0  0  0  0  0  0  0  0  0  0
    9.8229   12.0504   24.3267 C   0  0  0  0  0  0  0  0  0  0  0  0
   10.2334   11.0596   23.5177 N   0  0  0  0  0  0  0  0  0  0  0  0
    9.4014   10.0257   23.7819 N   0  0  0  0  0  0  0  0  0  0  0  0
    9.5527    8.7768   23.0201 C   0  0  0  0  0  0  0  0  0  0  0  0
    9.9892    9.0111   21.7595 F   0  0  0  0  0  0  0  0  0  0  0  0
    8.3836    8.1179   22.9289 F   0  0  0  0  0  0  0  0  0  0  0  0
   10.4493    7.9244   23.5661 F   0  0  0  0  0  0  0  0  0  0  0  0
    8.4613   10.3478   24.7449 C   0  0  0  0  0  0  0  0  0  0  0  0
    7.4398    9.6225   25.3608 C   0  0  0  0  0  0  0  0  0  0  0  0
    6.6140   10.2772   26.2805 C   0  0  0  0  0  0  0  0  0  0  0  0
    6.8026   11.6208   26.5833 C   0  0  0  0  0  0  0  0  0  0  0  0
    7.8400   12.3371   25.9872 C   0  0  0  0  0  0  0  0  0  0  0  0
    8.6830   11.6846   25.0688 C   0  0  0  0  0  0  0  0  0  0  0  0
   10.7509   15.0037   19.2677 C   0  0  0  0  0  0  0  0  0  0  0  0
    9.7135   15.8809   19.1792 O   0  0  0  0  0  0  0  0  0  0  0  0
  1  2  1  0
  2  3  2  0
  3  4  1  0
  4  5  1  0
  5  6  1  0
  6  7  1  0
  7  8  1  0
  8  9  2  0
  8 10  1  0
 10 11  2  0
 11 12  1  0
 12 13  1  0
 13 14  1  0
 13 15  1  0
 13 16  1  0
 12 17  1  0
 17 18  2  0
 18 19  1  0
 19 20  2  0
 20 21  1  0
 21 22  2  0
  4 23  2  0
 23 24  1  0
 24  2  1  0
 22 10  1  0
 22 17  1  0
M  END
>  <distance_score>  (23) 
0.541163

>  <smiles>  (23) 
Cc1nc(CCNC(=O)c2nn(C(F)(F)F)c3ccccc23)co1

>  <fragmenstein_error>  (23) 
nan

>  <fragmenstein_runtime>  (23) 
nan

>  <gnina_score_min>  (23) 
6.169

>  <orig_smiles>  (23) 
nan

>  <fragmenstein_mode>  (23) 
nan

>  <rmsd(smina/fragmenstein)>  (23) 
0.26

>  <inspiration_score>  (23) 
None

>  <name>  (23) 
P497897

>  <ref_pdb>  (23) 
A2290a

>  <ref_mols>  (23) 
A2290a,A3436a

>  <subsites>  (23) 
None

>  <tags>  (23) 
openbind_a71ev2a_c1_elabs_filtered,openbind_a71ev2a_c1_elab_chemspace_filtered_scored

>  <inchikey>  (23) 
ZKBLNKVTSMZQOH-UHFFFAOYSA-N

>  <scratch_subdir>  (23) 
nan

>  <smina_score_min>  (23) 
-6.095

>  <energy_score>  (23) 
-34.305412

>  <Energy>  (23) 
nan

>  <fragmenstein_outcome>  (23) 
nan

>  <alias>  (23) 
None

>  <HIPPO Pose ID>  (23) 
497897

>  <exports>  (23) 
['/opt/xchem-fragalysis-2/maxwin/openbind-hippo/a71ev2a/cycle_01/bulkdock/openbind_a71ev2a_c1_elab_chemspace.sdf', '/opt/xchem-fragalysis-2/maxwin/openbind-hippo/a71ev2a/cycle_01/syndirella/elabs/openbind_a71ev2a_c1_elab_chemspace_filtered.sdf', '/opt/xchem-fragalysis-2/maxwin/openbind-hippo/a71ev2a/cycle_01/syndirella/elabs/ASAP-0031281-001_elabs.sdf']

>  <HIPPO Compound ID>  (23) 
289834

>  <gnina_score>  (23) 
6.064

$$$$
P497899
     RDKit          3D

 24 26  0  0  0  0  0  0  0  0999 V2000
   13.0627   13.6498   23.3577 C   0  0  0  0  0  0  0  0  0  0  0  0
   11.8635   14.3169   22.7427 C   0  0  1  0  0  0  0  0  0  0  0  0
   12.0397   14.4470   21.2424 C   0  0  0  0  0  0  0  0  0  0  0  0
   10.8790   15.0805   20.5899 C   0  0  0  0  0  0  0  0  0  0  0  0
   10.6083   15.1828   19.2522 C   0  0  0  0  0  0  0  0  0  0  0  0
    9.6169   16.0998   19.0881 O   0  0  0  0  0  0  0  0  0  0  0  0
    9.3214   16.4874   20.3569 C   0  0  0  0  0  0  0  0  0  0  0  0
    9.9955   15.8571   21.2864 N   0  0  0  0  0  0  0  0  0  0  0  0
   10.8345   13.4315   23.1294 N   0  0  0  0  0  0  0  0  0  0  0  0
    9.9586   13.4156   24.3726 C   0  0  0  0  0  0  0  0  0  0  0  0
    9.8830   14.1720   25.2517 O   0  0  0  0  0  0  0  0  0  0  0  0
    9.2531   12.1490   24.3085 C   0  0  0  0  0  0  0  0  0  0  0  0
    9.6929   11.2211   23.4411 N   0  0  0  0  0  0  0  0  0  0  0  0
    9.0720   10.0846   23.8027 N   0  0  0  0  0  0  0  0  0  0  0  0
    9.4011    8.8503   23.0700 C   0  0  0  0  0  0  0  0  0  0  0  0
    9.9212    9.1120   21.8450 F   0  0  0  0  0  0  0  0  0  0  0  0
    8.3155    8.0814   22.8943 F   0  0  0  0  0  0  0  0  0  0  0  0
   10.3293    8.0962   23.6929 F   0  0  0  0  0  0  0  0  0  0  0  0
    8.1565   10.3111   24.8157 C   0  0  0  0  0  0  0  0  0  0  0  0
    7.2570    9.4925   25.4866 C   0  0  0  0  0  0  0  0  0  0  0  0
    6.4381   10.0527   26.4737 C   0  0  0  0  0  0  0  0  0  0  0  0
    6.5275   11.3989   26.8047 C   0  0  0  0  0  0  0  0  0  0  0  0
    7.4410   12.2181   26.1496 C   0  0  0  0  0  0  0  0  0  0  0  0
    8.2432   11.6633   25.1390 C   0  0  0  0  0  0  0  0  0  0  0  0
  2  1  1  1
  2  3  1  0
  3  4  1  0
  4  5  2  0
  5  6  1  0
  6  7  1  0
  7  8  2  0
  2  9  1  0
  9 10  1  0
 10 11  2  0
 10 12  1  0
 12 13  2  0
 13 14  1  0
 14 15  1  0
 15 16  1  0
 15 17  1  0
 15 18  1  0
 14 19  1  0
 19 20  2  0
 20 21  1  0
 21 22  2  0
 22 23  1  0
 23 24  2  0
  8  4  1  0
 24 12  1  0
 24 19  1  0
M  END
>  <distance_score>  (24) 
0.642356

>  <smiles>  (24) 
C[C@@H](Cc1cocn1)NC(=O)c1nn(C(F)(F)F)c2ccccc12

>  <fragmenstein_error>  (24) 
nan

>  <fragmenstein_runtime>  (24) 
nan

>  <gnina_score_min>  (24) 
6.216

>  <orig_smiles>  (24) 
nan

>  <fragmenstein_mode>  (24) 
nan

>  <rmsd(smina/fragmenstein)>  (24) 
1.372

>  <inspiration_score>  (24) 
None

>  <name>  (24) 
P497899

>  <ref_pdb>  (24) 
A2290a

>  <ref_mols>  (24) 
A2290a,A3436a

>  <subsites>  (24) 
None

>  <tags>  (24) 
openbind_a71ev2a_c1_elabs_filtered,openbind_a71ev2a_c1_elab_chemspace_filtered_scored

>  <inchikey>  (24) 
KPMIJLFQQLWRSU-VIFPVBQESA-N

>  <scratch_subdir>  (24) 
nan

>  <smina_score_min>  (24) 
-7.549

>  <energy_score>  (24) 
-1.705638

>  <Energy>  (24) 
nan

>  <fragmenstein_outcome>  (24) 
nan

>  <alias>  (24) 
None

>  <HIPPO Pose ID>  (24) 
497899

>  <exports>  (24) 
['/opt/xchem-fragalysis-2/maxwin/openbind-hippo/a71ev2a/cycle_01/bulkdock/openbind_a71ev2a_c1_elab_chemspace.sdf', '/opt/xchem-fragalysis-2/maxwin/openbind-hippo/a71ev2a/cycle_01/syndirella/elabs/openbind_a71ev2a_c1_elab_chemspace_filtered.sdf', '/opt/xchem-fragalysis-2/maxwin/openbind-hippo/a71ev2a/cycle_01/syndirella/elabs/ASAP-0031281-001_elabs.sdf']

>  <HIPPO Compound ID>  (24) 
289835

>  <gnina_score>  (24) 
5.968

$$$$
P497900
     RDKit          3D

 24 26  0  0  0  0  0  0  0  0999 V2000
   11.6893   14.5073   18.4042 C   0  0  0  0  0  0  0  0  0  0  0  0
   10.8926   14.9814   19.5245 C   0  0  0  0  0  0  0  0  0  0  0  0
    9.7836   15.7431   19.3193 O   0  0  0  0  0  0  0  0  0  0  0  0
    9.4290   16.1095   20.5810 C   0  0  0  0  0  0  0  0  0  0  0  0
   10.1697   15.5920   21.5352 N   0  0  0  0  0  0  0  0  0  0  0  0
   11.1516   14.9304   20.8626 C   0  0  0  0  0  0  0  0  0  0  0  0
   12.3857   14.3973   21.4718 C   0  0  0  0  0  0  0  0  0  0  0  0
   12.3031   14.2725   22.9622 C   0  0  0  0  0  0  0  0  0  0  0  0
   11.3167   13.3365   23.3511 N   0  0  0  0  0  0  0  0  0  0  0  0
   10.4092   13.3048   24.5729 C   0  0  0  0  0  0  0  0  0  0  0  0
   10.2654   14.0813   25.4263 O   0  0  0  0  0  0  0  0  0  0  0  0
    9.6857   12.0405   24.4880 C   0  0  0  0  0  0  0  0  0  0  0  0
   10.1353   11.0799   23.6615 N   0  0  0  0  0  0  0  0  0  0  0  0
    9.3131   10.0276   23.8727 N   0  0  0  0  0  0  0  0  0  0  0  0
    9.4980    8.8093   23.0672 C   0  0  0  0  0  0  0  0  0  0  0  0
    8.3415    8.1379   22.9290 F   0  0  0  0  0  0  0  0  0  0  0  0
   10.3958    7.9483   23.5958 F   0  0  0  0  0  0  0  0  0  0  0  0
    9.9558    9.0984   21.8254 F   0  0  0  0  0  0  0  0  0  0  0  0
    8.3518   10.3105   24.8281 C   0  0  0  0  0  0  0  0  0  0  0  0
    7.3327    9.5587   25.4085 C   0  0  0  0  0  0  0  0  0  0  0  0
    6.4817   10.1748   26.3322 C   0  0  0  0  0  0  0  0  0  0  0  0
    6.6417   11.5119   26.6739 C   0  0  0  0  0  0  0  0  0  0  0  0
    7.6756   12.2581   26.1135 C   0  0  0  0  0  0  0  0  0  0  0  0
    8.5413   11.6403   25.1935 C   0  0  0  0  0  0  0  0  0  0  0  0
  1  2  1  0
  2  3  1  0
  3  4  1  0
  4  5  2  0
  5  6  1  0
  6  7  1  0
  7  8  1  0
  8  9  1  0
  9 10  1  0
 10 11  2  0
 10 12  1  0
 12 13  2  0
 13 14  1  0
 14 15  1  0
 15 16  1  0
 15 17  1  0
 15 18  1  0
 14 19  1  0
 19 20  2  0
 20 21  1  0
 21 22  2  0
 22 23  1  0
 23 24  2  0
  6  2  2  0
 24 12  1  0
 24 19  1  0
M  END
>  <distance_score>  (25) 
0.699881

>  <smiles>  (25) 
Cc1ocnc1CCNC(=O)c1nn(C(F)(F)F)c2ccccc12

>  <fragmenstein_error>  (25) 
nan

>  <fragmenstein_runtime>  (25) 
nan

>  <gnina_score_min>  (25) 
6.04

>  <orig_smiles>  (25) 
nan

>  <fragmenstein_mode>  (25) 
nan

>  <rmsd(smina/fragmenstein)>  (25) 
0.352

>  <inspiration_score>  (25) 
None

>  <name>  (25) 
P497900

>  <ref_pdb>  (25) 
A2290a

>  <ref_mols>  (25) 
A2290a,A3436a

>  <subsites>  (25) 
None

>  <tags>  (25) 
openbind_a71ev2a_c1_elabs_filtered,openbind_a71ev2a_c1_elab_chemspace_filtered_scored

>  <inchikey>  (25) 
PXZVULLCMWPKNR-UHFFFAOYSA-N

>  <scratch_subdir>  (25) 
nan

>  <smina_score_min>  (25) 
-5.614

>  <energy_score>  (25) 
-31.954831

>  <Energy>  (25) 
nan

>  <fragmenstein_outcome>  (25) 
nan

>  <alias>  (25) 
None

>  <HIPPO Pose ID>  (25) 
497900

>  <exports>  (25) 
['/opt/xchem-fragalysis-2/maxwin/openbind-hippo/a71ev2a/cycle_01/bulkdock/openbind_a71ev2a_c1_elab_chemspace.sdf', '/opt/xchem-fragalysis-2/maxwin/openbind-hippo/a71ev2a/cycle_01/syndirella/elabs/openbind_a71ev2a_c1_elab_chemspace_filtered.sdf', '/opt/xchem-fragalysis-2/maxwin/openbind-hippo/a71ev2a/cycle_01/syndirella/elabs/ASAP-0031281-001_elabs.sdf']

>  <HIPPO Compound ID>  (25) 
289836

>  <gnina_score>  (25) 
5.887

$$$$
P497903
     RDKit          3D

 25 27  0  0  0  0  0  0  0  0999 V2000
    5.1996   14.4801   28.5962 C   0  0  0  0  0  0  0  0  0  0  0  0
    6.0851   13.7256   27.7686 O   0  0  0  0  0  0  0  0  0  0  0  0
    5.6849   12.4504   27.5432 C   0  0  0  0  0  0  0  0  0  0  0  0
    4.7027   11.9116   28.0306 O   0  0  0  0  0  0  0  0  0  0  0  0
    6.6292   11.7600   26.6234 C   0  0  0  0  0  0  0  0  0  0  0  0
    6.4226   10.4017   26.3675 C   0  0  0  0  0  0  0  0  0  0  0  0
    7.2383    9.6982   25.4755 C   0  0  0  0  0  0  0  0  0  0  0  0
    8.2659   10.3881   24.8335 C   0  0  0  0  0  0  0  0  0  0  0  0
    8.5228   11.7264   25.1096 C   0  0  0  0  0  0  0  0  0  0  0  0
    7.6977   12.4298   26.0094 C   0  0  0  0  0  0  0  0  0  0  0  0
    9.6718   12.0349   24.3466 C   0  0  0  0  0  0  0  0  0  0  0  0
   10.4586   13.2713   24.3633 C   0  0  0  0  0  0  0  0  0  0  0  0
   10.3810   14.0479   25.2270 O   0  0  0  0  0  0  0  0  0  0  0  0
   11.3147   13.2785   23.0981 N   0  0  0  0  0  0  0  0  0  0  0  0
   12.3246   14.1887   22.6671 C   0  0  0  0  0  0  0  0  0  0  0  0
   12.3830   14.3317   21.1627 C   0  0  0  0  0  0  0  0  0  0  0  0
   11.1630   14.9402   20.5936 C   0  0  0  0  0  0  0  0  0  0  0  0
   10.7584   14.9926   19.2861 C   0  0  0  0  0  0  0  0  0  0  0  0
    9.7286   15.8781   19.1909 O   0  0  0  0  0  0  0  0  0  0  0  0
    9.5657   16.3252   20.4686 C   0  0  0  0  0  0  0  0  0  0  0  0
    8.5903   17.4027   20.6990 C   0  0  0  0  0  0  0  0  0  0  0  0
   10.3464   15.7370   21.3469 N   0  0  0  0  0  0  0  0  0  0  0  0
   10.0381   11.0070   23.5587 N   0  0  0  0  0  0  0  0  0  0  0  0
    9.1836   10.0246   23.8772 N   0  0  0  0  0  0  0  0  0  0  0  0
    9.3189    8.7645   23.1884 C   0  0  0  0  0  0  0  0  0  0  0  0
  1  2  1  0
  2  3  1  0
  3  4  2  0
  3  5  1  0
  5  6  2  0
  6  7  1  0
  7  8  2  0
  8  9  1  0
  9 10  2  0
  9 11  1  0
 11 12  1  0
 12 13  2  0
 12 14  1  0
 14 15  1  0
 15 16  1  0
 16 17  1  0
 17 18  2  0
 18 19  1  0
 19 20  1  0
 20 21  1  0
 20 22  2  0
 11 23  2  0
 23 24  1  0
 24 25  1  0
 10  5  1  0
 22 17  1  0
 24  8  1  0
M  END
>  <distance_score>  (26) 
0.539836

>  <smiles>  (26) 
COC(=O)c1ccc2c(c1)c(C(=O)NCCc1coc(C)n1)nn2C

>  <fragmenstein_error>  (26) 
nan

>  <fragmenstein_runtime>  (26) 
nan

>  <gnina_score_min>  (26) 
6.278

>  <orig_smiles>  (26) 
nan

>  <fragmenstein_mode>  (26) 
nan

>  <rmsd(smina/fragmenstein)>  (26) 
0.202

>  <inspiration_score>  (26) 
None

>  <name>  (26) 
P497903

>  <ref_pdb>  (26) 
A2290a

>  <ref_mols>  (26) 
A2290a,A3436a

>  <subsites>  (26) 
None

>  <tags>  (26) 
openbind_a71ev2a_c1_elabs_filtered,openbind_a71ev2a_c1_elab_chemspace_filtered_scored

>  <inchikey>  (26) 
DYQHBGIEJPRWRT-UHFFFAOYSA-N

>  <scratch_subdir>  (26) 
nan

>  <smina_score_min>  (26) 
-6.35

>  <energy_score>  (26) 
-24.240014

>  <Energy>  (26) 
nan

>  <fragmenstein_outcome>  (26) 
nan

>  <alias>  (26) 
None

>  <HIPPO Pose ID>  (26) 
497903

>  <exports>  (26) 
['/opt/xchem-fragalysis-2/maxwin/openbind-hippo/a71ev2a/cycle_01/bulkdock/openbind_a71ev2a_c1_elab_chemspace.sdf', '/opt/xchem-fragalysis-2/maxwin/openbind-hippo/a71ev2a/cycle_01/syndirella/elabs/openbind_a71ev2a_c1_elab_chemspace_filtered.sdf', '/opt/xchem-fragalysis-2/maxwin/openbind-hippo/a71ev2a/cycle_01/syndirella/elabs/ASAP-0031281-001_elabs.sdf']

>  <HIPPO Compound ID>  (26) 
289839

>  <gnina_score>  (26) 
6.234

$$$$
P497906
     RDKit          3D

 25 27  0  0  0  0  0  0  0  0999 V2000
    8.3177   16.7512   28.1092 C   0  0  0  0  0  0  0  0  0  0  0  0
    8.6994   15.7062   27.2078 O   0  0  0  0  0  0  0  0  0  0  0  0
    7.8291   14.6471   27.2465 C   0  0  0  0  0  0  0  0  0  0  0  0
    6.8766   14.5985   28.0223 O   0  0  0  0  0  0  0  0  0  0  0  0
    8.1682   13.5374   26.3375 C   0  0  0  0  0  0  0  0  0  0  0  0
    9.1933   13.5352   25.4566 N   0  0  0  0  0  0  0  0  0  0  0  0
    9.1441   12.3047   24.8914 N   0  0  0  0  0  0  0  0  0  0  0  0
    9.9944   11.9015   23.7975 C   0  0  0  0  0  0  0  0  0  0  0  0
   11.1481   12.8238   23.5226 C   0  0  0  0  0  0  0  0  0  0  0  0
   12.1662   12.7752   24.0973 O   0  0  0  0  0  0  0  0  0  0  0  0
   10.7144   13.7003   22.3145 N   0  0  0  0  0  0  0  0  0  0  0  0
   11.4121   14.7623   21.6277 C   0  0  1  0  0  0  0  0  0  0  0  0
   12.8905   14.4912   21.6047 C   0  0  0  0  0  0  0  0  0  0  0  0
   10.8894   14.8216   20.1859 C   0  0  0  0  0  0  0  0  0  0  0  0
    9.9446   15.9325   19.9481 C   0  0  0  0  0  0  0  0  0  0  0  0
    9.7689   16.6844   18.8107 C   0  0  0  0  0  0  0  0  0  0  0  0
    8.9335   17.7128   19.1045 O   0  0  0  0  0  0  0  0  0  0  0  0
    8.6593   17.5332   20.4247 C   0  0  0  0  0  0  0  0  0  0  0  0
    9.1677   16.4415   20.9522 N   0  0  0  0  0  0  0  0  0  0  0  0
    8.1641   11.4953   25.3974 C   0  0  0  0  0  0  0  0  0  0  0  0
    7.8130   10.1771   25.1178 C   0  0  0  0  0  0  0  0  0  0  0  0
    6.7081    9.6794   25.8016 C   0  0  0  0  0  0  0  0  0  0  0  0
    6.0111   10.4315   26.7384 C   0  0  0  0  0  0  0  0  0  0  0  0
    6.3919   11.7401   27.0104 C   0  0  0  0  0  0  0  0  0  0  0  0
    7.4871   12.2837   26.3196 C   0  0  0  0  0  0  0  0  0  0  0  0
  1  2  1  0
  2  3  1  0
  3  4  2  0
  3  5  1  0
  5  6  2  0
  6  7  1  0
  7  8  1  0
  8  9  1  0
  9 10  2  0
  9 11  1  0
 11 12  1  0
 12 13  1  6
 12 14  1  0
 14 15  1  0
 15 16  2  0
 16 17  1  0
 17 18  1  0
 18 19  2  0
  7 20  1  0
 20 21  2  0
 21 22  1  0
 22 23  2  0
 23 24  1  0
 24 25  2  0
 25  5  1  0
 19 15  1  0
 25 20  1  0
M  END
>  <distance_score>  (27) 
1.699559

>  <smiles>  (27) 
COC(=O)c1nn(CC(=O)N[C@@H](C)Cc2cocn2)c2ccccc12

>  <fragmenstein_error>  (27) 
nan

>  <fragmenstein_runtime>  (27) 
nan

>  <gnina_score_min>  (27) 
5.863

>  <orig_smiles>  (27) 
nan

>  <fragmenstein_mode>  (27) 
nan

>  <rmsd(smina/fragmenstein)>  (27) 
0.67

>  <inspiration_score>  (27) 
None

>  <name>  (27) 
P497906

>  <ref_pdb>  (27) 
A2290a

>  <ref_mols>  (27) 
A2290a,A3436a

>  <subsites>  (27) 
None

>  <tags>  (27) 
openbind_a71ev2a_c1_elabs_filtered,openbind_a71ev2a_c1_elab_chemspace_filtered_scored

>  <inchikey>  (27) 
IYLAFSLXRPFYJV-NSHDSACASA-N

>  <scratch_subdir>  (27) 
nan

>  <smina_score_min>  (27) 
-7.288

>  <energy_score>  (27) 
-8.973323

>  <Energy>  (27) 
nan

>  <fragmenstein_outcome>  (27) 
nan

>  <alias>  (27) 
None

>  <HIPPO Pose ID>  (27) 
497906

>  <exports>  (27) 
['/opt/xchem-fragalysis-2/maxwin/openbind-hippo/a71ev2a/cycle_01/bulkdock/openbind_a71ev2a_c1_elab_chemspace.sdf', '/opt/xchem-fragalysis-2/maxwin/openbind-hippo/a71ev2a/cycle_01/syndirella/elabs/openbind_a71ev2a_c1_elab_chemspace_filtered.sdf', '/opt/xchem-fragalysis-2/maxwin/openbind-hippo/a71ev2a/cycle_01/syndirella/elabs/ASAP-0031281-001_elabs.sdf']

>  <HIPPO Compound ID>  (27) 
289841

>  <gnina_score>  (27) 
5.78

$$$$
P497907
     RDKit          3D

 25 27  0  0  0  0  0  0  0  0999 V2000
    4.0439   12.6687   28.7910 C   0  0  0  0  0  0  0  0  0  0  0  0
    4.8140   11.9180   27.8522 O   0  0  0  0  0  0  0  0  0  0  0  0
    6.0679   12.4022   27.6645 C   0  0  0  0  0  0  0  0  0  0  0  0
    6.5642   13.3584   28.2387 O   0  0  0  0  0  0  0  0  0  0  0  0
    6.7844   11.5996   26.6444 C   0  0  0  0  0  0  0  0  0  0  0  0
    6.4482   10.2740   26.3802 C   0  0  0  0  0  0  0  0  0  0  0  0
    7.1623    9.5280   25.4355 C   0  0  0  0  0  0  0  0  0  0  0  0
    8.2071   10.1274   24.7380 C   0  0  0  0  0  0  0  0  0  0  0  0
    8.5687   11.4362   25.0166 C   0  0  0  0  0  0  0  0  0  0  0  0
    7.8627   12.1887   25.9759 C   0  0  0  0  0  0  0  0  0  0  0  0
    9.7030   11.6430   24.2143 C   0  0  0  0  0  0  0  0  0  0  0  0
   10.6177   12.7451   24.2861 C   0  0  0  0  0  0  0  0  0  0  0  0
   10.6908   13.3975   25.2506 O   0  0  0  0  0  0  0  0  0  0  0  0
   11.3519   12.8686   22.9406 N   0  0  0  0  0  0  0  0  0  0  0  0
   12.2521   13.8652   22.4659 C   0  0  2  0  0  0  0  0  0  0  0  0
   11.8192   15.0858   23.2024 C   0  0  0  0  0  0  0  0  0  0  0  0
   12.2775   14.1739   20.9794 C   0  0  0  0  0  0  0  0  0  0  0  0
   11.0722   14.8302   20.3960 C   0  0  0  0  0  0  0  0  0  0  0  0
   10.8170   15.0254   19.0668 C   0  0  0  0  0  0  0  0  0  0  0  0
    9.7958   15.9173   18.9409 O   0  0  0  0  0  0  0  0  0  0  0  0
    9.4819   16.2327   20.2198 C   0  0  0  0  0  0  0  0  0  0  0  0
   10.1652   15.5715   21.1175 N   0  0  0  0  0  0  0  0  0  0  0  0
    9.9296   10.6456   23.3598 N   0  0  0  0  0  0  0  0  0  0  0  0
    9.0674    9.7064   23.7480 N   0  0  0  0  0  0  0  0  0  0  0  0
    9.1807    8.4381   23.0848 C   0  0  0  0  0  0  0  0  0  0  0  0
  1  2  1  0
  2  3  1  0
  3  4  2  0
  3  5  1  0
  5  6  2  0
  6  7  1  0
  7  8  2  0
  8  9  1  0
  9 10  2  0
  9 11  1  0
 11 12  1  0
 12 13  2  0
 12 14  1  0
 14 15  1  0
 15 16  1  1
 15 17  1  0
 17 18  1  0
 18 19  2  0
 19 20  1  0
 20 21  1  0
 21 22  2  0
 11 23  2  0
 23 24  1  0
 24 25  1  0
 10  5  1  0
 22 18  1  0
 24  8  1  0
M  END
>  <distance_score>  (28) 
0.586901

>  <smiles>  (28) 
COC(=O)c1ccc2c(c1)c(C(=O)N[C@H](C)Cc1cocn1)nn2C

>  <fragmenstein_error>  (28) 
nan

>  <fragmenstein_runtime>  (28) 
nan

>  <gnina_score_min>  (28) 
6.155

>  <orig_smiles>  (28) 
nan

>  <fragmenstein_mode>  (28) 
nan

>  <rmsd(smina/fragmenstein)>  (28) 
1.294

>  <inspiration_score>  (28) 
None

>  <name>  (28) 
P497907

>  <ref_pdb>  (28) 
A2290a

>  <ref_mols>  (28) 
A2290a,A3436a

>  <subsites>  (28) 
None

>  <tags>  (28) 
openbind_a71ev2a_c1_elabs_filtered,openbind_a71ev2a_c1_elab_chemspace_filtered_scored

>  <inchikey>  (28) 
WAXKGPOPNPBULI-SNVBAGLBSA-N

>  <scratch_subdir>  (28) 
nan

>  <smina_score_min>  (28) 
-6.008

>  <energy_score>  (28) 
-2.66247

>  <Energy>  (28) 
nan

>  <fragmenstein_outcome>  (28) 
nan

>  <alias>  (28) 
None

>  <HIPPO Pose ID>  (28) 
497907

>  <exports>  (28) 
['/opt/xchem-fragalysis-2/maxwin/openbind-hippo/a71ev2a/cycle_01/bulkdock/openbind_a71ev2a_c1_elab_chemspace.sdf', '/opt/xchem-fragalysis-2/maxwin/openbind-hippo/a71ev2a/cycle_01/syndirella/elabs/openbind_a71ev2a_c1_elab_chemspace_filtered.sdf', '/opt/xchem-fragalysis-2/maxwin/openbind-hippo/a71ev2a/cycle_01/syndirella/elabs/ASAP-0031281-001_elabs.sdf']

>  <HIPPO Compound ID>  (28) 
289842

>  <gnina_score>  (28) 
6.122

$$$$
P497909
     RDKit          3D

 25 27  0  0  0  0  0  0  0  0999 V2000
    7.1818   16.1749   28.0987 C   0  0  0  0  0  0  0  0  0  0  0  0
    7.3808   14.9693   27.3596 O   0  0  0  0  0  0  0  0  0  0  0  0
    8.5964   14.8772   26.7404 C   0  0  0  0  0  0  0  0  0  0  0  0
    9.4871   15.7169   26.8690 O   0  0  0  0  0  0  0  0  0  0  0  0
    8.7348   13.6573   25.9284 C   0  0  0  0  0  0  0  0  0  0  0  0
    9.7516   13.5226   25.0567 N   0  0  0  0  0  0  0  0  0  0  0  0
    9.5991   12.2946   24.5317 N   0  0  0  0  0  0  0  0  0  0  0  0
   10.4583   11.8175   23.4724 C   0  0  0  0  0  0  0  0  0  0  0  0
   11.6627   12.6972   23.1960 C   0  0  0  0  0  0  0  0  0  0  0  0
   12.6840   12.5764   23.7539 O   0  0  0  0  0  0  0  0  0  0  0  0
   11.2625   13.6294   22.0219 N   0  0  0  0  0  0  0  0  0  0  0  0
   12.0558   14.5304   21.2346 C   0  0  0  0  0  0  0  0  0  0  0  0
   11.4935   14.6307   19.8194 C   0  0  0  0  0  0  0  0  0  0  0  0
   10.3764   15.5815   19.6803 C   0  0  0  0  0  0  0  0  0  0  0  0
   10.1193   16.4239   18.6247 C   0  0  0  0  0  0  0  0  0  0  0  0
    9.2249   17.3466   19.0148 O   0  0  0  0  0  0  0  0  0  0  0  0
    9.0449   17.0438   20.3215 C   0  0  0  0  0  0  0  0  0  0  0  0
    8.3874   18.0746   21.0894 C   0  0  0  0  0  0  0  0  0  0  0  0
    9.5963   15.9266   20.7419 N   0  0  0  0  0  0  0  0  0  0  0  0
    8.5724   11.5772   25.0888 C   0  0  0  0  0  0  0  0  0  0  0  0
    8.1456   10.2603   24.9038 C   0  0  0  0  0  0  0  0  0  0  0  0
    7.0495    9.8425   25.6579 C   0  0  0  0  0  0  0  0  0  0  0  0
    6.4004   10.6964   26.5423 C   0  0  0  0  0  0  0  0  0  0  0  0
    6.8394   12.0103   26.7088 C   0  0  0  0  0  0  0  0  0  0  0  0
    7.9539   12.4598   25.9751 C   0  0  0  0  0  0  0  0  0  0  0  0
  1  2  1  0
  2  3  1  0
  3  4  2  0
  3  5  1  0
  5  6  2  0
  6  7  1  0
  7  8  1  0
  8  9  1  0
  9 10  2  0
  9 11  1  0
 11 12  1  0
 12 13  1  0
 13 14  1  0
 14 15  2  0
 15 16  1  0
 16 17  1  0
 17 18  1  0
 17 19  2  0
  7 20  1  0
 20 21  2  0
 21 22  1  0
 22 23  2  0
 23 24  1  0
 24 25  2  0
 25  5  1  0
 19 14  1  0
 25 20  1  0
M  END
>  <distance_score>  (29) 
1.55915

>  <smiles>  (29) 
COC(=O)c1nn(CC(=O)NCCc2coc(C)n2)c2ccccc12

>  <fragmenstein_error>  (29) 
nan

>  <fragmenstein_runtime>  (29) 
nan

>  <gnina_score_min>  (29) 
5.69

>  <orig_smiles>  (29) 
nan

>  <fragmenstein_mode>  (29) 
nan

>  <rmsd(smina/fragmenstein)>  (29) 
0.403

>  <inspiration_score>  (29) 
None

>  <name>  (29) 
P497909

>  <ref_pdb>  (29) 
A2290a

>  <ref_mols>  (29) 
A2290a,A3436a

>  <subsites>  (29) 
None

>  <tags>  (29) 
openbind_a71ev2a_c1_elabs_filtered,openbind_a71ev2a_c1_elab_chemspace_filtered_scored

>  <inchikey>  (29) 
NARDMBJQZZPCHY-UHFFFAOYSA-N

>  <scratch_subdir>  (29) 
nan

>  <smina_score_min>  (29) 
-6.069

>  <energy_score>  (29) 
-40.851664

>  <Energy>  (29) 
nan

>  <fragmenstein_outcome>  (29) 
nan

>  <alias>  (29) 
None

>  <HIPPO Pose ID>  (29) 
497909

>  <exports>  (29) 
['/opt/xchem-fragalysis-2/maxwin/openbind-hippo/a71ev2a/cycle_01/bulkdock/openbind_a71ev2a_c1_elab_chemspace.sdf', '/opt/xchem-fragalysis-2/maxwin/openbind-hippo/a71ev2a/cycle_01/syndirella/elabs/openbind_a71ev2a_c1_elab_chemspace_filtered.sdf', '/opt/xchem-fragalysis-2/maxwin/openbind-hippo/a71ev2a/cycle_01/syndirella/elabs/ASAP-0031281-001_elabs.sdf']

>  <HIPPO Compound ID>  (29) 
289843

>  <gnina_score>  (29) 
5.518

$$$$
P497914
     RDKit          3D

 26 28  0  0  0  0  0  0  0  0999 V2000
    8.9967   16.4134   28.2013 C   0  0  0  0  0  0  0  0  0  0  0  0
    9.1574   15.4475   27.1589 O   0  0  0  0  0  0  0  0  0  0  0  0
    8.0798   14.6008   27.0540 C   0  0  0  0  0  0  0  0  0  0  0  0
    7.0509   14.7474   27.7088 O   0  0  0  0  0  0  0  0  0  0  0  0
    8.3094   13.4463   26.1697 C   0  0  0  0  0  0  0  0  0  0  0  0
    9.3455   13.3315   25.3171 N   0  0  0  0  0  0  0  0  0  0  0  0
    9.2337   12.0791   24.8113 N   0  0  0  0  0  0  0  0  0  0  0  0
   10.1354   11.5911   23.7953 C   0  0  0  0  0  0  0  0  0  0  0  0
   11.5055   12.2247   23.8667 C   0  0  0  0  0  0  0  0  0  0  0  0
   12.4401   11.6835   24.2899 O   0  0  0  0  0  0  0  0  0  0  0  0
   11.3707   13.5870   23.2006 N   0  0  0  0  0  0  0  0  0  0  0  0
   12.3537   14.5269   22.8294 C   0  0  0  0  0  0  0  0  0  0  0  0
   12.4467   14.5283   21.3411 C   0  0  0  0  0  0  0  0  0  0  0  0
   11.1872   15.0036   20.7425 C   0  0  0  0  0  0  0  0  0  0  0  0
   10.2294   15.6853   21.4232 N   0  0  0  0  0  0  0  0  0  0  0  0
    9.5424   16.2822   20.4724 C   0  0  0  0  0  0  0  0  0  0  0  0
    8.5834   17.3877   20.6271 C   0  0  0  0  0  0  0  0  0  0  0  0
    9.8389   15.8483   19.2075 O   0  0  0  0  0  0  0  0  0  0  0  0
   10.9028   15.0216   19.4146 C   0  0  0  0  0  0  0  0  0  0  0  0
   11.7010   14.5079   18.3170 C   0  0  0  0  0  0  0  0  0  0  0  0
    8.1848   11.3672   25.3192 C   0  0  0  0  0  0  0  0  0  0  0  0
    7.7529   10.0598   25.1133 C   0  0  0  0  0  0  0  0  0  0  0  0
    6.6054    9.6751   25.8044 C   0  0  0  0  0  0  0  0  0  0  0  0
    5.9412   10.5251   26.6790 C   0  0  0  0  0  0  0  0  0  0  0  0
    6.3979   11.8214   26.8764 C   0  0  0  0  0  0  0  0  0  0  0  0
    7.5372   12.2500   26.1764 C   0  0  0  0  0  0  0  0  0  0  0  0
  1  2  1  0
  2  3  1  0
  3  4  2  0
  3  5  1  0
  5  6  2  0
  6  7  1  0
  7  8  1  0
  8  9  1  0
  9 10  2  0
  9 11  1  0
 11 12  1  0
 12 13  1  0
 13 14  1  0
 14 15  1  0
 15 16  2  0
 16 17  1  0
 16 18  1  0
 18 19  1  0
 19 20  1  0
  7 21  1  0
 21 22  2  0
 22 23  1  0
 23 24  2  0
 24 25  1  0
 25 26  2  0
 26  5  1  0
 19 14  2  0
 26 21  1  0
M  END
>  <distance_score>  (30) 
1.462321

>  <smiles>  (30) 
COC(=O)c1nn(CC(=O)NCCc2nc(C)oc2C)c2ccccc12

>  <fragmenstein_error>  (30) 
nan

>  <fragmenstein_runtime>  (30) 
nan

>  <gnina_score_min>  (30) 
5.682

>  <orig_smiles>  (30) 
nan

>  <fragmenstein_mode>  (30) 
nan

>  <rmsd(smina/fragmenstein)>  (30) 
0.494

>  <inspiration_score>  (30) 
None

>  <name>  (30) 
P497914

>  <ref_pdb>  (30) 
A2290a

>  <ref_mols>  (30) 
A2290a,A3436a

>  <subsites>  (30) 
None

>  <tags>  (30) 
openbind_a71ev2a_c1_elabs_filtered,openbind_a71ev2a_c1_elab_chemspace_filtered_scored

>  <inchikey>  (30) 
IXNCWEVJUOJTLK-UHFFFAOYSA-N

>  <scratch_subdir>  (30) 
nan

>  <smina_score_min>  (30) 
-4.995

>  <energy_score>  (30) 
-21.538638

>  <Energy>  (30) 
nan

>  <fragmenstein_outcome>  (30) 
nan

>  <alias>  (30) 
None

>  <HIPPO Pose ID>  (30) 
497914

>  <exports>  (30) 
['/opt/xchem-fragalysis-2/maxwin/openbind-hippo/a71ev2a/cycle_01/syndirella/elabs/openbind_a71ev2a_c1_elab_chemspace_filtered.sdf', '/opt/xchem-fragalysis-2/maxwin/openbind-hippo/a71ev2a/cycle_01/syndirella/elabs/ASAP-0031281-001_elabs.sdf']

>  <HIPPO Compound ID>  (30) 
289848

>  <gnina_score>  (30) 
5.681

$$$$
P497915
     RDKit          3D

 27 29  0  0  0  0  0  0  0  0999 V2000
   14.0776   12.2866   25.1599 C   0  0  0  0  0  0  0  0  0  0  0  0
   13.0720   13.2588   24.8092 O   0  0  0  0  0  0  0  0  0  0  0  0
   12.7895   13.2269   23.4835 C   0  0  0  0  0  0  0  0  0  0  0  0
   13.2773   12.3754   22.7652 O   0  0  0  0  0  0  0  0  0  0  0  0
   11.7732   14.2005   22.9492 C   0  0  1  0  0  0  0  0  0  0  0  0
   12.0084   14.3943   21.4542 C   0  0  0  0  0  0  0  0  0  0  0  0
   10.8980   15.0512   20.7405 C   0  0  0  0  0  0  0  0  0  0  0  0
   10.6424   15.0931   19.3924 C   0  0  0  0  0  0  0  0  0  0  0  0
    9.6516   16.0019   19.1775 O   0  0  0  0  0  0  0  0  0  0  0  0
    9.3465   16.4485   20.4225 C   0  0  0  0  0  0  0  0  0  0  0  0
   10.0231   15.8725   21.3863 N   0  0  0  0  0  0  0  0  0  0  0  0
   10.6680   13.3796   23.3066 N   0  0  0  0  0  0  0  0  0  0  0  0
    9.7284   13.4523   24.4962 C   0  0  0  0  0  0  0  0  0  0  0  0
    9.6479   14.2396   25.3460 O   0  0  0  0  0  0  0  0  0  0  0  0
    8.9419   12.2272   24.4549 C   0  0  0  0  0  0  0  0  0  0  0  0
    9.3488   11.2096   23.6695 N   0  0  0  0  0  0  0  0  0  0  0  0
    8.6717   10.1544   24.1326 N   0  0  0  0  0  0  0  0  0  0  0  0
    9.0522    8.8392   23.6772 C   0  0  0  0  0  0  0  0  0  0  0  0
    7.7388   10.4888   25.0858 C   0  0  0  0  0  0  0  0  0  0  0  0
    6.7915    9.7407   25.7805 C   0  0  0  0  0  0  0  0  0  0  0  0
    5.9884   10.3957   26.7145 C   0  0  0  0  0  0  0  0  0  0  0  0
    6.1494   11.7634   26.9461 C   0  0  0  0  0  0  0  0  0  0  0  0
    5.2894   12.4229   27.9262 N   0  0  0  0  0  0  0  0  0  0  0  0
    4.1615   11.9428   28.1146 O   0  0  0  0  0  0  0  0  0  0  0  0
    5.7531   13.4019   28.5274 O   0  0  0  0  0  0  0  0  0  0  0  0
    7.1130   12.5148   26.2688 C   0  0  0  0  0  0  0  0  0  0  0  0
    7.8919   11.8535   25.3061 C   0  0  0  0  0  0  0  0  0  0  0  0
  1  2  1  0
  2  3  1  0
  3  4  2  0
  3  5  1  0
  5  6  1  6
  6  7  1  0
  7  8  2  0
  8  9  1  0
  9 10  1  0
 10 11  2  0
  5 12  1  0
 12 13  1  0
 13 14  2  0
 13 15  1  0
 15 16  2  0
 16 17  1  0
 17 18  1  0
 17 19  1  0
 19 20  2  0
 20 21  1  0
 21 22  2  0
 22 23  1  0
 23 24  2  0
 23 25  1  0
 22 26  1  0
 26 27  2  0
 11  7  1  0
 27 15  1  0
 27 19  1  0
M  CHG  2  23   1  25  -1
M  END
>  <distance_score>  (31) 
0.855717

>  <smiles>  (31) 
COC(=O)[C@@H](Cc1cocn1)NC(=O)c1nn(C)c2ccc([N+](=O)[O-])cc12

>  <fragmenstein_error>  (31) 
nan

>  <fragmenstein_runtime>  (31) 
nan

>  <gnina_score_min>  (31) 
5.892

>  <orig_smiles>  (31) 
nan

>  <fragmenstein_mode>  (31) 
nan

>  <rmsd(smina/fragmenstein)>  (31) 
0.63

>  <inspiration_score>  (31) 
None

>  <name>  (31) 
P497915

>  <ref_pdb>  (31) 
A2290a

>  <ref_mols>  (31) 
A2290a,A3436a

>  <subsites>  (31) 
None

>  <tags>  (31) 
openbind_a71ev2a_c1_elabs_filtered,openbind_a71ev2a_c1_elab_chemspace_filtered_scored

>  <inchikey>  (31) 
YBFFWHXYRDALLY-GFCCVEGCSA-N

>  <scratch_subdir>  (31) 
nan

>  <smina_score_min>  (31) 
-4.539

>  <energy_score>  (31) 
-14.732368

>  <Energy>  (31) 
nan

>  <fragmenstein_outcome>  (31) 
nan

>  <alias>  (31) 
None

>  <HIPPO Pose ID>  (31) 
497915

>  <exports>  (31) 
['/opt/xchem-fragalysis-2/maxwin/openbind-hippo/a71ev2a/cycle_01/bulkdock/openbind_a71ev2a_c1_elab_chemspace.sdf', '/opt/xchem-fragalysis-2/maxwin/openbind-hippo/a71ev2a/cycle_01/syndirella/elabs/openbind_a71ev2a_c1_elab_chemspace_filtered.sdf', '/opt/xchem-fragalysis-2/maxwin/openbind-hippo/a71ev2a/cycle_01/syndirella/elabs/ASAP-0031281-001_elabs.sdf']

>  <HIPPO Compound ID>  (31) 
289849

>  <gnina_score>  (31) 
6.087

$$$$
P497918
     RDKit          3D

 27 30  0  0  0  0  0  0  0  0999 V2000
    8.5858   17.4353   20.6486 C   0  0  0  0  0  0  0  0  0  0  0  0
    9.5384   16.3333   20.4474 C   0  0  0  0  0  0  0  0  0  0  0  0
   10.2401   15.7014   21.3587 N   0  0  0  0  0  0  0  0  0  0  0  0
   11.0976   14.9147   20.6426 C   0  0  0  0  0  0  0  0  0  0  0  0
   12.2713   14.2872   21.2865 C   0  0  0  0  0  0  0  0  0  0  0  0
   12.2910   14.4723   22.7954 C   0  0  0  0  0  0  0  0  0  0  0  0
   11.2254   13.7807   23.4546 N   0  0  0  0  0  0  0  0  0  0  0  0
   10.6784   13.9175   24.8909 C   0  0  0  0  0  0  0  0  0  0  0  0
   10.9592   14.6691   25.7399 O   0  0  0  0  0  0  0  0  0  0  0  0
    9.6831   12.8580   25.0206 C   0  0  0  0  0  0  0  0  0  0  0  0
    9.9371   11.7563   24.3107 N   0  0  0  0  0  0  0  0  0  0  0  0
    8.9496   10.9349   24.5981 N   0  0  0  0  0  0  0  0  0  0  0  0
    8.9984    9.6261   24.0387 C   0  0  0  0  0  0  0  0  0  0  0  0
   10.1371    9.4433   23.0270 C   0  0  1  0  0  0  0  0  0  0  0  0
   11.0105    8.2835   23.3516 C   0  0  0  0  0  0  0  0  0  0  0  0
   10.0441    7.2774   23.2689 N   0  0  0  0  0  0  0  0  0  0  0  0
    9.2211    7.6468   22.2415 C   0  0  0  0  0  0  0  0  0  0  0  0
    8.3959    6.9333   21.7252 O   0  0  0  0  0  0  0  0  0  0  0  0
    9.5359    8.9093   21.8757 O   0  0  0  0  0  0  0  0  0  0  0  0
    8.0449   11.4122   25.4879 C   0  0  0  0  0  0  0  0  0  0  0  0
    6.9165   10.8285   26.0691 C   0  0  0  0  0  0  0  0  0  0  0  0
    6.1819   11.6302   26.9374 C   0  0  0  0  0  0  0  0  0  0  0  0
    6.5683   12.9451   27.2029 C   0  0  0  0  0  0  0  0  0  0  0  0
    7.7151   13.5033   26.6222 C   0  0  0  0  0  0  0  0  0  0  0  0
    8.4769   12.7127   25.7534 C   0  0  0  0  0  0  0  0  0  0  0  0
   10.7709   14.9934   19.3132 C   0  0  0  0  0  0  0  0  0  0  0  0
    9.7639   15.9027   19.1744 O   0  0  0  0  0  0  0  0  0  0  0  0
  1  2  1  0
  2  3  2  0
  3  4  1  0
  4  5  1  0
  5  6  1  0
  6  7  1  0
  7  8  1  0
  8  9  2  0
  8 10  1  0
 10 11  2  0
 11 12  1  0
 12 13  1  0
 14 13  1  1
 14 15  1  0
 15 16  1  0
 16 17  1  0
 17 18  2  0
 17 19  1  0
 12 20  1  0
 20 21  2  0
 21 22  1  0
 22 23  2  0
 23 24  1  0
 24 25  2  0
  4 26  2  0
 26 27  1  0
 27  2  1  0
 25 10  1  0
 19 14  1  0
 25 20  1  0
M  END
>  <distance_score>  (32) 
1.182859

>  <smiles>  (32) 
Cc1nc(CCNC(=O)c2nn(C[C@H]3CNC(=O)O3)c3ccccc23)co1

>  <fragmenstein_error>  (32) 
nan

>  <fragmenstein_runtime>  (32) 
nan

>  <gnina_score_min>  (32) 
6.211

>  <orig_smiles>  (32) 
nan

>  <fragmenstein_mode>  (32) 
nan

>  <rmsd(smina/fragmenstein)>  (32) 
0.292

>  <inspiration_score>  (32) 
None

>  <name>  (32) 
P497918

>  <ref_pdb>  (32) 
A2290a

>  <ref_mols>  (32) 
A2290a,A3436a

>  <subsites>  (32) 
None

>  <tags>  (32) 
openbind_a71ev2a_c1_elabs_filtered,openbind_a71ev2a_c1_elab_chemspace_filtered_scored

>  <inchikey>  (32) 
RJCGBTDHNBEIKH-CYBMUJFWSA-N

>  <scratch_subdir>  (32) 
nan

>  <smina_score_min>  (32) 
-1.644

>  <energy_score>  (32) 
-27.498361

>  <Energy>  (32) 
nan

>  <fragmenstein_outcome>  (32) 
nan

>  <alias>  (32) 
None

>  <HIPPO Pose ID>  (32) 
497918

>  <exports>  (32) 
['/opt/xchem-fragalysis-2/maxwin/openbind-hippo/a71ev2a/cycle_01/bulkdock/openbind_a71ev2a_c1_elab_chemspace.sdf', '/opt/xchem-fragalysis-2/maxwin/openbind-hippo/a71ev2a/cycle_01/syndirella/elabs/openbind_a71ev2a_c1_elab_chemspace_filtered.sdf', '/opt/xchem-fragalysis-2/maxwin/openbind-hippo/a71ev2a/cycle_01/syndirella/elabs/ASAP-0031281-001_elabs.sdf']

>  <HIPPO Compound ID>  (32) 
289854

>  <gnina_score>  (32) 
6.235

$$$$
P497919
     RDKit          3D

 27 29  0  0  0  0  0  0  0  0999 V2000
   14.4612   11.9699   24.9513 C   0  0  0  0  0  0  0  0  0  0  0  0
   13.6387   12.5309   23.9051 O   0  0  0  0  0  0  0  0  0  0  0  0
   12.7016   13.4311   24.2705 C   0  0  0  0  0  0  0  0  0  0  0  0
   12.4456   13.6798   25.4511 O   0  0  0  0  0  0  0  0  0  0  0  0
   11.8754   14.0616   23.1448 C   0  0  1  0  0  0  0  0  0  0  0  0
   12.2916   14.1067   21.6851 C   0  0  0  0  0  0  0  0  0  0  0  0
   11.2430   14.7876   20.8556 C   0  0  0  0  0  0  0  0  0  0  0  0
   11.0036   14.7767   19.5012 C   0  0  0  0  0  0  0  0  0  0  0  0
    9.9561   15.6159   19.2423 O   0  0  0  0  0  0  0  0  0  0  0  0
    9.6221   16.1120   20.4573 C   0  0  0  0  0  0  0  0  0  0  0  0
   10.3323   15.6316   21.4486 N   0  0  0  0  0  0  0  0  0  0  0  0
   10.7068   13.2855   23.3754 N   0  0  0  0  0  0  0  0  0  0  0  0
    9.5294   13.5241   24.3075 C   0  0  0  0  0  0  0  0  0  0  0  0
    9.2781   14.4315   24.9868 O   0  0  0  0  0  0  0  0  0  0  0  0
    8.7654   12.2921   24.2744 C   0  0  0  0  0  0  0  0  0  0  0  0
    9.1643   11.2852   23.4729 N   0  0  0  0  0  0  0  0  0  0  0  0
    8.5990   10.1948   24.0314 N   0  0  0  0  0  0  0  0  0  0  0  0
    9.1469    8.8683   23.7414 C   0  0  0  0  0  0  0  0  0  0  0  0
    8.7067    7.9978   24.6713 F   0  0  0  0  0  0  0  0  0  0  0  0
    8.7919    8.3681   22.5478 F   0  0  0  0  0  0  0  0  0  0  0  0
   10.5027    8.8829   23.7721 F   0  0  0  0  0  0  0  0  0  0  0  0
    7.6931   10.5212   25.0264 C   0  0  0  0  0  0  0  0  0  0  0  0
    6.8288    9.7637   25.8161 C   0  0  0  0  0  0  0  0  0  0  0  0
    6.0989   10.4101   26.8157 C   0  0  0  0  0  0  0  0  0  0  0  0
    6.2283   11.7770   27.0277 C   0  0  0  0  0  0  0  0  0  0  0  0
    7.0822   12.5338   26.2300 C   0  0  0  0  0  0  0  0  0  0  0  0
    7.7956   11.8941   25.2034 C   0  0  0  0  0  0  0  0  0  0  0  0
  1  2  1  0
  2  3  1  0
  3  4  2  0
  3  5  1  0
  5  6  1  6
  6  7  1  0
  7  8  2  0
  8  9  1  0
  9 10  1  0
 10 11  2  0
  5 12  1  0
 12 13  1  0
 13 14  2  0
 13 15  1  0
 15 16  2  0
 16 17  1  0
 17 18  1  0
 18 19  1  0
 18 20  1  0
 18 21  1  0
 17 22  1  0
 22 23  2  0
 23 24  1  0
 24 25  2  0
 25 26  1  0
 26 27  2  0
 11  7  1  0
 27 15  1  0
 27 22  1  0
M  END
>  <distance_score>  (33) 
0.955289

>  <smiles>  (33) 
COC(=O)[C@@H](Cc1cocn1)NC(=O)c1nn(C(F)(F)F)c2ccccc12

>  <fragmenstein_error>  (33) 
nan

>  <fragmenstein_runtime>  (33) 
nan

>  <gnina_score_min>  (33) 
6.136

>  <orig_smiles>  (33) 
nan

>  <fragmenstein_mode>  (33) 
nan

>  <rmsd(smina/fragmenstein)>  (33) 
0.474

>  <inspiration_score>  (33) 
None

>  <name>  (33) 
P497919

>  <ref_pdb>  (33) 
A2290a

>  <ref_mols>  (33) 
A2290a,A3436a

>  <subsites>  (33) 
None

>  <tags>  (33) 
openbind_a71ev2a_c1_elabs_filtered,openbind_a71ev2a_c1_elab_chemspace_filtered_scored

>  <inchikey>  (33) 
QFEYEOQDTBOXIB-LLVKDONJSA-N

>  <scratch_subdir>  (33) 
nan

>  <smina_score_min>  (33) 
-3.468

>  <energy_score>  (33) 
-10.975621

>  <Energy>  (33) 
nan

>  <fragmenstein_outcome>  (33) 
nan

>  <alias>  (33) 
None

>  <HIPPO Pose ID>  (33) 
497919

>  <exports>  (33) 
['/opt/xchem-fragalysis-2/maxwin/openbind-hippo/a71ev2a/cycle_01/syndirella/elabs/openbind_a71ev2a_c1_elab_chemspace_filtered.sdf', '/opt/xchem-fragalysis-2/maxwin/openbind-hippo/a71ev2a/cycle_01/syndirella/elabs/ASAP-0031281-001_elabs.sdf']

>  <HIPPO Compound ID>  (33) 
289855

>  <gnina_score>  (33) 
5.97

$$$$
P497922
     RDKit          3D

 28 30  0  0  0  0  0  0  0  0999 V2000
    9.1968    8.9314   23.6274 C   0  0  0  0  0  0  0  0  0  0  0  0
    8.6000   10.2171   23.9049 N   0  0  0  0  0  0  0  0  0  0  0  0
    8.9109   11.2503   23.1066 N   0  0  0  0  0  0  0  0  0  0  0  0
    8.2213   12.2952   23.6156 C   0  0  0  0  0  0  0  0  0  0  0  0
    8.5142   13.6717   23.1807 C   0  0  0  0  0  0  0  0  0  0  0  0
    7.8935   14.5918   23.5218 O   0  0  0  0  0  0  0  0  0  0  0  0
    9.7854   13.5915   22.3395 N   0  0  0  0  0  0  0  0  0  0  0  0
   10.6228   14.6300   21.8151 C   0  0  2  0  0  0  0  0  0  0  0  0
   10.7157   14.7958   20.3269 C   0  0  0  0  0  0  0  0  0  0  0  0
    9.8915   15.9643   19.8925 C   0  0  0  0  0  0  0  0  0  0  0  0
    9.8790   16.6532   18.7047 C   0  0  0  0  0  0  0  0  0  0  0  0
    9.0470   17.7222   18.8209 O   0  0  0  0  0  0  0  0  0  0  0  0
    8.6272   17.6658   20.1118 C   0  0  0  0  0  0  0  0  0  0  0  0
    9.0768   16.6308   20.7816 N   0  0  0  0  0  0  0  0  0  0  0  0
   11.8809   14.2014   22.5281 C   0  0  0  0  0  0  0  0  0  0  0  0
   12.7727   13.5169   22.0616 O   0  0  0  0  0  0  0  0  0  0  0  0
   11.8111   14.6323   23.8316 O   0  0  0  0  0  0  0  0  0  0  0  0
   12.0252   13.7036   24.9265 C   0  0  0  0  0  0  0  0  0  0  0  0
   11.9260   14.5374   26.2284 C   0  0  0  0  0  0  0  0  0  0  0  0
   13.2815   12.8541   24.7205 C   0  0  0  0  0  0  0  0  0  0  0  0
   10.8396   12.7892   24.9695 C   0  0  0  0  0  0  0  0  0  0  0  0
    7.5668   11.9347   24.8191 C   0  0  0  0  0  0  0  0  0  0  0  0
    6.8664   12.6310   25.8199 C   0  0  0  0  0  0  0  0  0  0  0  0
    6.2932   11.8969   26.8496 C   0  0  0  0  0  0  0  0  0  0  0  0
    5.5994   12.5312   27.8043 F   0  0  0  0  0  0  0  0  0  0  0  0
    6.4023   10.5155   26.9012 C   0  0  0  0  0  0  0  0  0  0  0  0
    7.1424    9.8261   25.9400 C   0  0  0  0  0  0  0  0  0  0  0  0
    7.7615   10.5626   24.9343 C   0  0  0  0  0  0  0  0  0  0  0  0
  1  2  1  0
  2  3  1  0
  3  4  2  0
  4  5  1  0
  5  6  2  0
  5  7  1  0
  7  8  1  0
  8  9  1  6
  9 10  1  0
 10 11  2  0
 11 12  1  0
 12 13  1  0
 13 14  2  0
  8 15  1  0
 15 16  2  0
 15 17  1  0
 17 18  1  0
 18 19  1  0
 18 20  1  0
 18 21  1  0
  4 22  1  0
 22 23  2  0
 23 24  1  0
 24 25  1  0
 24 26  2  0
 26 27  1  0
 27 28  2  0
 28  2  1  0
 14 10  1  0
 28 22  1  0
M  END
>  <distance_score>  (34) 
1.402286

>  <smiles>  (34) 
Cn1nc(C(=O)N[C@H](Cc2cocn2)C(=O)OC(C)(C)C)c2cc(F)ccc21

>  <fragmenstein_error>  (34) 
nan

>  <fragmenstein_runtime>  (34) 
nan

>  <gnina_score_min>  (34) 
5.69

>  <orig_smiles>  (34) 
nan

>  <fragmenstein_mode>  (34) 
nan

>  <rmsd(smina/fragmenstein)>  (34) 
1.753

>  <inspiration_score>  (34) 
None

>  <name>  (34) 
P497922

>  <ref_pdb>  (34) 
A2290a

>  <ref_mols>  (34) 
A2290a,A3436a

>  <subsites>  (34) 
None

>  <tags>  (34) 
openbind_a71ev2a_c1_elabs_filtered,openbind_a71ev2a_c1_elab_chemspace_filtered_scored

>  <inchikey>  (34) 
ABNAGSZVCSZFJI-CQSZACIVSA-N

>  <scratch_subdir>  (34) 
nan

>  <smina_score_min>  (34) 
-6.433

>  <energy_score>  (34) 
-2.56079

>  <Energy>  (34) 
nan

>  <fragmenstein_outcome>  (34) 
nan

>  <alias>  (34) 
None

>  <HIPPO Pose ID>  (34) 
497922

>  <exports>  (34) 
['/opt/xchem-fragalysis-2/maxwin/openbind-hippo/a71ev2a/cycle_01/syndirella/elabs/openbind_a71ev2a_c1_elab_chemspace_filtered.sdf', '/opt/xchem-fragalysis-2/maxwin/openbind-hippo/a71ev2a/cycle_01/syndirella/elabs/ASAP-0031281-001_elabs.sdf']

>  <HIPPO Compound ID>  (34) 
289860

>  <gnina_score>  (34) 
6.246

$$$$
P497926
     RDKit          3D

 28 31  0  0  0  0  0  0  0  0999 V2000
    7.6835   19.2117   19.5787 C   0  0  0  0  0  0  0  0  0  0  0  0
    8.3418   17.9318   19.7639 C   0  0  0  0  0  0  0  0  0  0  0  0
    8.3257   17.2620   20.9686 C   0  0  0  0  0  0  0  0  0  0  0  0
    8.8426   16.0050   21.0206 C   0  0  0  0  0  0  0  0  0  0  0  0
    9.6426   15.6075   19.9683 C   0  0  0  0  0  0  0  0  0  0  0  0
   10.5966   14.6285   20.2811 C   0  0  0  0  0  0  0  0  0  0  0  0
   10.8338   14.2160   21.4977 N   0  0  0  0  0  0  0  0  0  0  0  0
   12.1547   13.9831   21.4479 C   0  0  0  0  0  0  0  0  0  0  0  0
   12.8749   13.7025   22.6729 C   0  0  0  0  0  0  0  0  0  0  0  0
   12.1217   13.9940   23.9391 C   0  0  0  0  0  0  0  0  0  0  0  0
   11.0235   13.1511   24.1626 N   0  0  0  0  0  0  0  0  0  0  0  0
    9.7724   13.3614   24.9904 C   0  0  0  0  0  0  0  0  0  0  0  0
    9.4707   14.2365   25.6905 O   0  0  0  0  0  0  0  0  0  0  0  0
    8.9982   12.1399   24.8177 C   0  0  0  0  0  0  0  0  0  0  0  0
    9.4528   11.1536   24.0173 N   0  0  0  0  0  0  0  0  0  0  0  0
    8.6499   10.1219   24.2912 N   0  0  0  0  0  0  0  0  0  0  0  0
    8.9881    8.8321   23.7421 C   0  0  0  0  0  0  0  0  0  0  0  0
    7.6696   10.4282   25.2039 C   0  0  0  0  0  0  0  0  0  0  0  0
    6.6513    9.6849   25.7904 C   0  0  0  0  0  0  0  0  0  0  0  0
    5.8267   10.3117   26.7269 C   0  0  0  0  0  0  0  0  0  0  0  0
    6.0053   11.6511   27.0506 C   0  0  0  0  0  0  0  0  0  0  0  0
    4.8592   12.4618   28.3175 Br  0  0  0  0  0  0  0  0  0  0  0  0
    7.0187   12.3993   26.4635 C   0  0  0  0  0  0  0  0  0  0  0  0
    7.8529   11.7657   25.5290 C   0  0  0  0  0  0  0  0  0  0  0  0
   12.6089   14.0906   20.1619 C   0  0  0  0  0  0  0  0  0  0  0  0
   11.5901   14.4771   19.3785 O   0  0  0  0  0  0  0  0  0  0  0  0
    9.7561   16.3319   18.8002 C   0  0  0  0  0  0  0  0  0  0  0  0
    9.0011   17.4406   18.6535 C   0  0  0  0  0  0  0  0  0  0  0  0
  1  2  1  0
  2  3  2  0
  3  4  1  0
  4  5  2  0
  5  6  1  0
  6  7  2  0
  7  8  1  0
  8  9  1  0
  9 10  1  0
 10 11  1  0
 11 12  1  0
 12 13  2  0
 12 14  1  0
 14 15  2  0
 15 16  1  0
 16 17  1  0
 16 18  1  0
 18 19  2  0
 19 20  1  0
 20 21  2  0
 21 22  1  0
 21 23  1  0
 23 24  2  0
  8 25  2  0
 25 26  1  0
  5 27  1  0
 27 28  2  0
 28  2  1  0
 26  6  1  0
 24 14  1  0
 24 18  1  0
M  END
>  <distance_score>  (35) 
1.692655

>  <smiles>  (35) 
Cc1ccc(-c2nc(CCNC(=O)c3nn(C)c4ccc(Br)cc34)co2)cc1

>  <fragmenstein_error>  (35) 
nan

>  <fragmenstein_runtime>  (35) 
nan

>  <gnina_score_min>  (35) 
5.74

>  <orig_smiles>  (35) 
nan

>  <fragmenstein_mode>  (35) 
nan

>  <rmsd(smina/fragmenstein)>  (35) 
1.525

>  <inspiration_score>  (35) 
None

>  <name>  (35) 
P497926

>  <ref_pdb>  (35) 
A2290a

>  <ref_mols>  (35) 
A2290a,A3436a

>  <subsites>  (35) 
None

>  <tags>  (35) 
openbind_a71ev2a_c1_elabs_filtered,openbind_a71ev2a_c1_elab_chemspace_filtered_scored

>  <inchikey>  (35) 
JSEXGLFPJSGJFL-UHFFFAOYSA-N

>  <scratch_subdir>  (35) 
nan

>  <smina_score_min>  (35) 
-5.98

>  <energy_score>  (35) 
-7.132841

>  <Energy>  (35) 
nan

>  <fragmenstein_outcome>  (35) 
nan

>  <alias>  (35) 
None

>  <HIPPO Pose ID>  (35) 
497926

>  <exports>  (35) 
['/opt/xchem-fragalysis-2/maxwin/openbind-hippo/a71ev2a/cycle_01/syndirella/elabs/openbind_a71ev2a_c1_elab_chemspace_filtered.sdf', '/opt/xchem-fragalysis-2/maxwin/openbind-hippo/a71ev2a/cycle_01/syndirella/elabs/ASAP-0031281-001_elabs.sdf']

>  <HIPPO Compound ID>  (35) 
289866

>  <gnina_score>  (35) 
6.298

$$$$
P497927
     RDKit          3D

 28 30  0  0  0  0  0  0  0  0999 V2000
    6.8020   16.1083   27.8311 C   0  0  0  0  0  0  0  0  0  0  0  0
    7.2070   14.9073   27.1719 O   0  0  0  0  0  0  0  0  0  0  0  0
    8.5141   14.8943   26.7773 C   0  0  0  0  0  0  0  0  0  0  0  0
    9.3123   15.7977   27.0214 O   0  0  0  0  0  0  0  0  0  0  0  0
    8.8795   13.6823   26.0294 C   0  0  0  0  0  0  0  0  0  0  0  0
   10.0865   13.5927   25.4400 N   0  0  0  0  0  0  0  0  0  0  0  0
   10.0855   12.3967   24.8233 N   0  0  0  0  0  0  0  0  0  0  0  0
   11.1798   12.0923   23.9153 C   0  0  0  0  0  0  0  0  0  0  0  0
   11.3134   13.2069   22.9135 C   0  0  0  0  0  0  0  0  0  0  0  0
   12.2540   13.8869   22.8058 O   0  0  0  0  0  0  0  0  0  0  0  0
    9.9425   13.2726   22.2016 N   0  0  0  0  0  0  0  0  0  0  0  0
    9.4119   14.2456   21.2797 C   0  0  2  0  0  0  0  0  0  0  0  0
   10.3390   15.4020   21.0275 C   0  0  0  0  0  0  0  0  0  0  0  0
    9.6730   16.4411   20.2287 C   0  0  0  0  0  0  0  0  0  0  0  0
    9.7417   16.7114   18.8855 C   0  0  0  0  0  0  0  0  0  0  0  0
    8.9306   17.7694   18.6180 O   0  0  0  0  0  0  0  0  0  0  0  0
    8.4311   18.1082   19.8388 C   0  0  0  0  0  0  0  0  0  0  0  0
    8.8503   17.3533   20.8274 N   0  0  0  0  0  0  0  0  0  0  0  0
    7.9746   14.3367   21.8146 C   0  0  0  0  0  0  0  0  0  0  0  0
    7.2410   13.3433   21.7624 O   0  0  0  0  0  0  0  0  0  0  0  0
    7.6053   15.4744   22.4091 O   0  0  0  0  0  0  0  0  0  0  0  0
    6.3239   15.4386   23.0382 C   0  0  0  0  0  0  0  0  0  0  0  0
    8.9837   11.6296   25.1044 C   0  0  0  0  0  0  0  0  0  0  0  0
    8.6410   10.3157   24.7764 C   0  0  0  0  0  0  0  0  0  0  0  0
    7.4685    9.8095   25.3383 C   0  0  0  0  0  0  0  0  0  0  0  0
    6.6336   10.5951   26.1251 C   0  0  0  0  0  0  0  0  0  0  0  0
    6.9570   11.9270   26.3869 C   0  0  0  0  0  0  0  0  0  0  0  0
    8.1665   12.4500   25.8894 C   0  0  0  0  0  0  0  0  0  0  0  0
  1  2  1  0
  2  3  1  0
  3  4  2  0
  3  5  1  0
  5  6  2  0
  6  7  1  0
  7  8  1  0
  8  9  1  0
  9 10  2  0
  9 11  1  0
 11 12  1  0
 12 13  1  1
 13 14  1  0
 14 15  2  0
 15 16  1  0
 16 17  1  0
 17 18  2  0
 12 19  1  0
 19 20  2  0
 19 21  1  0
 21 22  1  0
  7 23  1  0
 23 24  2  0
 24 25  1  0
 25 26  2  0
 26 27  1  0
 27 28  2  0
 28  5  1  0
 18 14  1  0
 28 23  1  0
M  END
>  <distance_score>  (36) 
1.836773

>  <smiles>  (36) 
COC(=O)c1nn(CC(=O)N[C@H](Cc2cocn2)C(=O)OC)c2ccccc12

>  <fragmenstein_error>  (36) 
nan

>  <fragmenstein_runtime>  (36) 
nan

>  <gnina_score_min>  (36) 
6.04

>  <orig_smiles>  (36) 
nan

>  <fragmenstein_mode>  (36) 
nan

>  <rmsd(smina/fragmenstein)>  (36) 
0.351

>  <inspiration_score>  (36) 
None

>  <name>  (36) 
P497927

>  <ref_pdb>  (36) 
A2290a

>  <ref_mols>  (36) 
A2290a,A3436a

>  <subsites>  (36) 
None

>  <tags>  (36) 
openbind_a71ev2a_c1_elabs_filtered,openbind_a71ev2a_c1_elab_chemspace_filtered_scored

>  <inchikey>  (36) 
XDQKNPYCLDNQOO-CYBMUJFWSA-N

>  <scratch_subdir>  (36) 
nan

>  <smina_score_min>  (36) 
-7.273

>  <energy_score>  (36) 
-1.56021

>  <Energy>  (36) 
nan

>  <fragmenstein_outcome>  (36) 
nan

>  <alias>  (36) 
None

>  <HIPPO Pose ID>  (36) 
497927

>  <exports>  (36) 
['/opt/xchem-fragalysis-2/maxwin/openbind-hippo/a71ev2a/cycle_01/bulkdock/openbind_a71ev2a_c1_elab_chemspace.sdf', '/opt/xchem-fragalysis-2/maxwin/openbind-hippo/a71ev2a/cycle_01/syndirella/elabs/openbind_a71ev2a_c1_elab_chemspace_filtered.sdf', '/opt/xchem-fragalysis-2/maxwin/openbind-hippo/a71ev2a/cycle_01/syndirella/elabs/ASAP-0031281-001_elabs.sdf']

>  <HIPPO Compound ID>  (36) 
289869

>  <gnina_score>  (36) 
6.121

$$$$
P497929
     RDKit          3D

 29 32  0  0  0  0  0  0  0  0999 V2000
    8.9884    8.9675   23.8221 C   0  0  0  0  0  0  0  0  0  0  0  0
    8.6160   10.2464   24.3817 N   0  0  0  0  0  0  0  0  0  0  0  0
    9.3443   11.3178   24.0579 N   0  0  0  0  0  0  0  0  0  0  0  0
    8.9054   12.2890   24.8947 C   0  0  0  0  0  0  0  0  0  0  0  0
    9.6348   13.5615   24.9690 C   0  0  0  0  0  0  0  0  0  0  0  0
    9.4734   14.3999   25.7551 O   0  0  0  0  0  0  0  0  0  0  0  0
   10.6627   13.4338   23.8661 N   0  0  0  0  0  0  0  0  0  0  0  0
   11.6565   14.3407   23.4227 C   0  0  0  0  0  0  0  0  0  0  0  0
   12.0896   14.0990   21.9929 C   0  0  0  0  0  0  0  0  0  0  0  0
   12.4567   12.6564   21.9223 C   0  0  0  0  0  0  0  0  0  0  0  0
   13.2733   14.9902   21.7073 C   0  0  0  0  0  0  0  0  0  0  0  0
   11.1251   14.4693   20.9514 C   0  0  0  0  0  0  0  0  0  0  0  0
   11.3384   14.3631   19.5963 C   0  0  0  0  0  0  0  0  0  0  0  0
   10.4894   15.1837   18.9872 O   0  0  0  0  0  0  0  0  0  0  0  0
    9.8747   15.8071   20.0121 C   0  0  0  0  0  0  0  0  0  0  0  0
    9.2087   16.9924   19.6305 C   0  0  0  0  0  0  0  0  0  0  0  0
    9.0252   17.2693   18.2860 C   0  0  0  0  0  0  0  0  0  0  0  0
    8.1423   18.2419   17.9473 C   0  0  0  0  0  0  0  0  0  0  0  0
    7.5844   19.0185   18.9376 C   0  0  0  0  0  0  0  0  0  0  0  0
    7.9675   18.8978   20.2405 C   0  0  0  0  0  0  0  0  0  0  0  0
    8.7087   17.8230   20.6094 C   0  0  0  0  0  0  0  0  0  0  0  0
   10.1186   15.3365   21.2097 N   0  0  0  0  0  0  0  0  0  0  0  0
    7.8112   11.8617   25.6542 C   0  0  0  0  0  0  0  0  0  0  0  0
    6.9852   12.4597   26.6161 C   0  0  0  0  0  0  0  0  0  0  0  0
    5.9956   11.6786   27.2036 C   0  0  0  0  0  0  0  0  0  0  0  0
    4.8548   12.4443   28.5036 Br  0  0  0  0  0  0  0  0  0  0  0  0
    5.8316   10.3420   26.8550 C   0  0  0  0  0  0  0  0  0  0  0  0
    6.6501    9.7459   25.8946 C   0  0  0  0  0  0  0  0  0  0  0  0
    7.6441   10.5230   25.3097 C   0  0  0  0  0  0  0  0  0  0  0  0
  1  2  1  0
  2  3  1  0
  3  4  2  0
  4  5  1  0
  5  6  2  0
  5  7  1  0
  7  8  1  0
  8  9  1  0
  9 10  1  0
  9 11  1  0
  9 12  1  0
 12 13  2  0
 13 14  1  0
 14 15  1  0
 15 16  1  0
 16 17  2  0
 17 18  1  0
 18 19  2  0
 19 20  1  0
 20 21  2  0
 15 22  2  0
  4 23  1  0
 23 24  2  0
 24 25  1  0
 25 26  1  0
 25 27  2  0
 27 28  1  0
 28 29  2  0
 29  2  1  0
 22 12  1  0
 29 23  1  0
 21 16  1  0
M  END
>  <distance_score>  (37) 
1.275325

>  <smiles>  (37) 
Cn1nc(C(=O)NCC(C)(C)c2coc(-c3ccccc3)n2)c2cc(Br)ccc21

>  <fragmenstein_error>  (37) 
nan

>  <fragmenstein_runtime>  (37) 
nan

>  <gnina_score_min>  (37) 
5.696

>  <orig_smiles>  (37) 
nan

>  <fragmenstein_mode>  (37) 
nan

>  <rmsd(smina/fragmenstein)>  (37) 
2.939

>  <inspiration_score>  (37) 
None

>  <name>  (37) 
P497929

>  <ref_pdb>  (37) 
A2290a

>  <ref_mols>  (37) 
A2290a,A3436a

>  <subsites>  (37) 
None

>  <tags>  (37) 
openbind_a71ev2a_c1_elabs_filtered,openbind_a71ev2a_c1_elab_chemspace_filtered_scored

>  <inchikey>  (37) 
PGGHLJVEZRQSGC-UHFFFAOYSA-N

>  <scratch_subdir>  (37) 
nan

>  <smina_score_min>  (37) 
-6.726

>  <energy_score>  (37) 
-2.32094

>  <Energy>  (37) 
nan

>  <fragmenstein_outcome>  (37) 
nan

>  <alias>  (37) 
None

>  <HIPPO Pose ID>  (37) 
497929

>  <exports>  (37) 
['/opt/xchem-fragalysis-2/maxwin/openbind-hippo/a71ev2a/cycle_01/syndirella/elabs/openbind_a71ev2a_c1_elab_chemspace_filtered.sdf', '/opt/xchem-fragalysis-2/maxwin/openbind-hippo/a71ev2a/cycle_01/syndirella/elabs/ASAP-0031281-001_elabs.sdf']

>  <HIPPO Compound ID>  (37) 
289871

>  <gnina_score>  (37) 
6.326

$$$$
P497931
     RDKit          3D

 29 32  0  0  0  0  0  0  0  0999 V2000
    8.9947    8.9850   23.8177 C   0  0  0  0  0  0  0  0  0  0  0  0
    8.6203   10.2631   24.3769 N   0  0  0  0  0  0  0  0  0  0  0  0
    9.3397   11.3380   24.0432 N   0  0  0  0  0  0  0  0  0  0  0  0
    8.9320   12.2956   24.9100 C   0  0  0  0  0  0  0  0  0  0  0  0
    9.6821   13.5539   24.9998 C   0  0  0  0  0  0  0  0  0  0  0  0
    9.6415   14.3061   25.8827 O   0  0  0  0  0  0  0  0  0  0  0  0
   10.5433   13.5450   23.7562 N   0  0  0  0  0  0  0  0  0  0  0  0
   11.6043   14.3966   23.3639 C   0  0  0  0  0  0  0  0  0  0  0  0
   12.0884   14.1054   21.9627 C   0  0  0  0  0  0  0  0  0  0  0  0
   12.4434   12.6573   21.9546 C   0  0  0  0  0  0  0  0  0  0  0  0
   13.2831   14.9846   21.6952 C   0  0  0  0  0  0  0  0  0  0  0  0
   11.1483   14.4603   20.8937 C   0  0  0  0  0  0  0  0  0  0  0  0
   11.3865   14.3673   19.5427 C   0  0  0  0  0  0  0  0  0  0  0  0
   10.5390   15.1887   18.9276 O   0  0  0  0  0  0  0  0  0  0  0  0
    9.8905   15.7849   19.9474 C   0  0  0  0  0  0  0  0  0  0  0  0
    9.2190   16.9728   19.5854 C   0  0  0  0  0  0  0  0  0  0  0  0
    8.7338   17.7905   20.5847 C   0  0  0  0  0  0  0  0  0  0  0  0
    7.9911   18.8746   20.2468 C   0  0  0  0  0  0  0  0  0  0  0  0
    7.5913   19.0182   18.9511 C   0  0  0  0  0  0  0  0  0  0  0  0
    8.1305   18.2504   17.9423 C   0  0  0  0  0  0  0  0  0  0  0  0
    9.0124   17.2659   18.2505 C   0  0  0  0  0  0  0  0  0  0  0  0
   10.1154   15.2988   21.1410 N   0  0  0  0  0  0  0  0  0  0  0  0
    7.8459   11.8664   25.6808 C   0  0  0  0  0  0  0  0  0  0  0  0
    7.0409   12.4560   26.6637 C   0  0  0  0  0  0  0  0  0  0  0  0
    6.0524   11.6751   27.2444 C   0  0  0  0  0  0  0  0  0  0  0  0
    5.2687   12.2074   28.1919 F   0  0  0  0  0  0  0  0  0  0  0  0
    5.8620   10.3504   26.8779 C   0  0  0  0  0  0  0  0  0  0  0  0
    6.6607    9.7577   25.8997 C   0  0  0  0  0  0  0  0  0  0  0  0
    7.6577   10.5347   25.3162 C   0  0  0  0  0  0  0  0  0  0  0  0
  1  2  1  0
  2  3  1  0
  3  4  2  0
  4  5  1  0
  5  6  2  0
  5  7  1  0
  7  8  1  0
  8  9  1  0
  9 10  1  0
  9 11  1  0
  9 12  1  0
 12 13  2  0
 13 14  1  0
 14 15  1  0
 15 16  1  0
 16 17  2  0
 17 18  1  0
 18 19  2  0
 19 20  1  0
 20 21  2  0
 15 22  2  0
  4 23  1  0
 23 24  2  0
 24 25  1  0
 25 26  1  0
 25 27  2  0
 27 28  1  0
 28 29  2  0
 29  2  1  0
 22 12  1  0
 29 23  1  0
 21 16  1  0
M  END
>  <distance_score>  (38) 
1.274591

>  <smiles>  (38) 
Cn1nc(C(=O)NCC(C)(C)c2coc(-c3ccccc3)n2)c2cc(F)ccc21

>  <fragmenstein_error>  (38) 
nan

>  <fragmenstein_runtime>  (38) 
nan

>  <gnina_score_min>  (38) 
5.634

>  <orig_smiles>  (38) 
nan

>  <fragmenstein_mode>  (38) 
nan

>  <rmsd(smina/fragmenstein)>  (38) 
2.999

>  <inspiration_score>  (38) 
None

>  <name>  (38) 
P497931

>  <ref_pdb>  (38) 
A2290a

>  <ref_mols>  (38) 
A2290a,A3436a

>  <subsites>  (38) 
None

>  <tags>  (38) 
openbind_a71ev2a_c1_elabs_filtered,openbind_a71ev2a_c1_elab_chemspace_filtered_scored

>  <inchikey>  (38) 
HXJKDVQNPIQOAF-UHFFFAOYSA-N

>  <scratch_subdir>  (38) 
nan

>  <smina_score_min>  (38) 
-6.544

>  <energy_score>  (38) 
-25.953507

>  <Energy>  (38) 
nan

>  <fragmenstein_outcome>  (38) 
nan

>  <alias>  (38) 
None

>  <HIPPO Pose ID>  (38) 
497931

>  <exports>  (38) 
['/opt/xchem-fragalysis-2/maxwin/openbind-hippo/a71ev2a/cycle_01/syndirella/elabs/openbind_a71ev2a_c1_elab_chemspace_filtered.sdf', '/opt/xchem-fragalysis-2/maxwin/openbind-hippo/a71ev2a/cycle_01/syndirella/elabs/ASAP-0031281-001_elabs.sdf']

>  <HIPPO Compound ID>  (38) 
289874

>  <gnina_score>  (38) 
6.305

$$$$
P497933
     RDKit          3D

 30 33  0  0  0  0  0  0  0  0999 V2000
    9.1951    8.8257   23.2932 C   0  0  0  0  0  0  0  0  0  0  0  0
    9.0000   10.0641   24.0064 N   0  0  0  0  0  0  0  0  0  0  0  0
    9.8227   11.0794   23.7202 N   0  0  0  0  0  0  0  0  0  0  0  0
    9.4234   12.0707   24.5402 C   0  0  0  0  0  0  0  0  0  0  0  0
   10.1861   13.3133   24.6211 C   0  0  0  0  0  0  0  0  0  0  0  0
   10.0053   14.1214   25.4361 O   0  0  0  0  0  0  0  0  0  0  0  0
   11.1940   13.2675   23.4836 N   0  0  0  0  0  0  0  0  0  0  0  0
   12.2515   14.1478   23.1556 C   0  0  0  0  0  0  0  0  0  0  0  0
   12.6577   14.0760   21.7156 C   0  0  0  0  0  0  0  0  0  0  0  0
   11.6622   14.5533   20.7689 C   0  0  0  0  0  0  0  0  0  0  0  0
   11.7073   14.4078   19.4103 C   0  0  0  0  0  0  0  0  0  0  0  0
   10.6803   15.0877   18.8961 O   0  0  0  0  0  0  0  0  0  0  0  0
   10.1273   15.7019   19.9661 C   0  0  0  0  0  0  0  0  0  0  0  0
    9.3362   16.8356   19.6261 C   0  0  0  0  0  0  0  0  0  0  0  0
    9.1092   17.1601   18.2977 C   0  0  0  0  0  0  0  0  0  0  0  0
    8.2314   18.1560   17.9959 C   0  0  0  0  0  0  0  0  0  0  0  0
    7.7064   18.9109   19.0136 C   0  0  0  0  0  0  0  0  0  0  0  0
    6.7882   19.8182   18.7269 F   0  0  0  0  0  0  0  0  0  0  0  0
    8.0872   18.7427   20.3073 C   0  0  0  0  0  0  0  0  0  0  0  0
    8.8324   17.6448   20.6238 C   0  0  0  0  0  0  0  0  0  0  0  0
   10.6032   15.3320   21.1328 N   0  0  0  0  0  0  0  0  0  0  0  0
    8.2814   11.7170   25.2800 C   0  0  0  0  0  0  0  0  0  0  0  0
    7.4523   12.3785   26.2034 C   0  0  0  0  0  0  0  0  0  0  0  0
    6.4061   11.6515   26.7778 C   0  0  0  0  0  0  0  0  0  0  0  0
    5.5184   12.3075   27.7367 N   0  0  0  0  0  0  0  0  0  0  0  0
    5.9809   13.2557   28.3862 O   0  0  0  0  0  0  0  0  0  0  0  0
    4.3738   11.8485   27.8667 O   0  0  0  0  0  0  0  0  0  0  0  0
    6.2063   10.3031   26.4785 C   0  0  0  0  0  0  0  0  0  0  0  0
    7.0396    9.6533   25.5651 C   0  0  0  0  0  0  0  0  0  0  0  0
    8.0599   10.3819   24.9579 C   0  0  0  0  0  0  0  0  0  0  0  0
  1  2  1  0
  2  3  1  0
  3  4  2  0
  4  5  1  0
  5  6  2  0
  5  7  1  0
  7  8  1  0
  8  9  1  0
  9 10  1  0
 10 11  2  0
 11 12  1  0
 12 13  1  0
 13 14  1  0
 14 15  2  0
 15 16  1  0
 16 17  2  0
 17 18  1  0
 17 19  1  0
 19 20  2  0
 13 21  2  0
  4 22  1  0
 22 23  2  0
 23 24  1  0
 24 25  1  0
 25 26  2  0
 25 27  1  0
 24 28  2  0
 28 29  1  0
 29 30  2  0
 30  2  1  0
 21 10  1  0
 30 22  1  0
 20 14  1  0
M  CHG  2  25   1  27  -1
M  END
>  <distance_score>  (39) 
0.987896

>  <smiles>  (39) 
Cn1nc(C(=O)NCCc2coc(-c3ccc(F)cc3)n2)c2cc([N+](=O)[O-])ccc21

>  <fragmenstein_error>  (39) 
nan

>  <fragmenstein_runtime>  (39) 
nan

>  <gnina_score_min>  (39) 
6.066

>  <orig_smiles>  (39) 
nan

>  <fragmenstein_mode>  (39) 
nan

>  <rmsd(smina/fragmenstein)>  (39) 
1.134

>  <inspiration_score>  (39) 
None

>  <name>  (39) 
P497933

>  <ref_pdb>  (39) 
A2290a

>  <ref_mols>  (39) 
A2290a,A3436a

>  <subsites>  (39) 
None

>  <tags>  (39) 
openbind_a71ev2a_c1_elabs_filtered,openbind_a71ev2a_c1_elab_chemspace_filtered_scored

>  <inchikey>  (39) 
RYDWFUWLWADDSJ-UHFFFAOYSA-N

>  <scratch_subdir>  (39) 
nan

>  <smina_score_min>  (39) 
-6.291

>  <energy_score>  (39) 
-10.927329

>  <Energy>  (39) 
nan

>  <fragmenstein_outcome>  (39) 
nan

>  <alias>  (39) 
None

>  <HIPPO Pose ID>  (39) 
497933

>  <exports>  (39) 
['/opt/xchem-fragalysis-2/maxwin/openbind-hippo/a71ev2a/cycle_01/bulkdock/openbind_a71ev2a_c1_elab_chemspace.sdf', '/opt/xchem-fragalysis-2/maxwin/openbind-hippo/a71ev2a/cycle_01/syndirella/elabs/openbind_a71ev2a_c1_elab_chemspace_filtered.sdf', '/opt/xchem-fragalysis-2/maxwin/openbind-hippo/a71ev2a/cycle_01/syndirella/elabs/ASAP-0031281-001_elabs.sdf']

>  <HIPPO Compound ID>  (39) 
289883

>  <gnina_score>  (39) 
6.436

$$$$
P497934
     RDKit          3D

 30 32  0  0  0  0  0  0  0  0999 V2000
    9.1645    8.9850   23.7182 C   0  0  0  0  0  0  0  0  0  0  0  0
    8.6420   10.2842   24.0748 N   0  0  0  0  0  0  0  0  0  0  0  0
    9.0298   11.3424   23.3554 N   0  0  0  0  0  0  0  0  0  0  0  0
    8.3347   12.3811   23.8722 C   0  0  0  0  0  0  0  0  0  0  0  0
    8.5235   13.7298   23.3171 C   0  0  0  0  0  0  0  0  0  0  0  0
    8.0188   14.6907   23.7261 O   0  0  0  0  0  0  0  0  0  0  0  0
    9.5602   13.5507   22.2194 N   0  0  0  0  0  0  0  0  0  0  0  0
   10.2833   14.5311   21.4385 C   0  0  2  0  0  0  0  0  0  0  0  0
    9.7274   14.8742   20.1035 C   0  0  0  0  0  0  0  0  0  0  0  0
    9.4817   16.3020   19.8828 C   0  0  0  0  0  0  0  0  0  0  0  0
    9.5690   16.9998   18.7039 C   0  0  0  0  0  0  0  0  0  0  0  0
    8.8947   18.1671   18.8632 O   0  0  0  0  0  0  0  0  0  0  0  0
    8.5014   18.1400   20.1676 C   0  0  0  0  0  0  0  0  0  0  0  0
    8.8629   17.0653   20.8317 N   0  0  0  0  0  0  0  0  0  0  0  0
   11.5697   13.7632   21.1917 C   0  0  0  0  0  0  0  0  0  0  0  0
   12.3528   13.9824   20.2710 O   0  0  0  0  0  0  0  0  0  0  0  0
   11.8071   12.8163   22.1943 O   0  0  0  0  0  0  0  0  0  0  0  0
   12.3783   13.3679   23.3816 C   0  0  0  0  0  0  0  0  0  0  0  0
   13.0438   12.2910   24.2160 C   0  0  0  0  0  0  0  0  0  0  0  0
   13.3324   14.3958   22.8697 C   0  0  0  0  0  0  0  0  0  0  0  0
   11.4144   13.9534   24.4148 C   0  0  0  0  0  0  0  0  0  0  0  0
    7.6197   11.9973   25.0195 C   0  0  0  0  0  0  0  0  0  0  0  0
    6.8355   12.6717   25.9685 C   0  0  0  0  0  0  0  0  0  0  0  0
    6.1413   11.8942   26.8986 C   0  0  0  0  0  0  0  0  0  0  0  0
    5.2725   12.5564   27.8659 N   0  0  0  0  0  0  0  0  0  0  0  0
    5.6399   13.6557   28.3022 O   0  0  0  0  0  0  0  0  0  0  0  0
    4.2426   11.9591   28.2119 O   0  0  0  0  0  0  0  0  0  0  0  0
    6.2273   10.5004   26.9070 C   0  0  0  0  0  0  0  0  0  0  0  0
    7.0474    9.8436   25.9897 C   0  0  0  0  0  0  0  0  0  0  0  0
    7.7613   10.6125   25.0750 C   0  0  0  0  0  0  0  0  0  0  0  0
  1  2  1  0
  2  3  1  0
  3  4  2  0
  4  5  1  0
  5  6  2  0
  5  7  1  0
  7  8  1  0
  8  9  1  6
  9 10  1  0
 10 11  2  0
 11 12  1  0
 12 13  1  0
 13 14  2  0
  8 15  1  0
 15 16  2  0
 15 17  1  0
 17 18  1  0
 18 19  1  0
 18 20  1  0
 18 21  1  0
  4 22  1  0
 22 23  2  0
 23 24  1  0
 24 25  1  0
 25 26  2  0
 25 27  1  0
 24 28  2  0
 28 29  1  0
 29 30  2  0
 30  2  1  0
 14 10  1  0
 30 22  1  0
M  CHG  2  25   1  27  -1
M  END
>  <distance_score>  (40) 
1.622746

>  <smiles>  (40) 
Cn1nc(C(=O)N[C@H](Cc2cocn2)C(=O)OC(C)(C)C)c2cc([N+](=O)[O-])ccc21

>  <fragmenstein_error>  (40) 
nan

>  <fragmenstein_runtime>  (40) 
nan

>  <gnina_score_min>  (40) 
5.956

>  <orig_smiles>  (40) 
nan

>  <fragmenstein_mode>  (40) 
nan

>  <rmsd(smina/fragmenstein)>  (40) 
0.771

>  <inspiration_score>  (40) 
None

>  <name>  (40) 
P497934

>  <ref_pdb>  (40) 
A2290a

>  <ref_mols>  (40) 
A2290a,A3436a

>  <subsites>  (40) 
None

>  <tags>  (40) 
openbind_a71ev2a_c1_elabs_filtered,openbind_a71ev2a_c1_elab_chemspace_filtered_scored

>  <inchikey>  (40) 
IAHYIZYCEDBICE-CQSZACIVSA-N

>  <scratch_subdir>  (40) 
nan

>  <smina_score_min>  (40) 
-5.908

>  <energy_score>  (40) 
-21.844889

>  <Energy>  (40) 
nan

>  <fragmenstein_outcome>  (40) 
nan

>  <alias>  (40) 
None

>  <HIPPO Pose ID>  (40) 
497934

>  <exports>  (40) 
['/opt/xchem-fragalysis-2/maxwin/openbind-hippo/a71ev2a/cycle_01/bulkdock/openbind_a71ev2a_c1_elab_chemspace.sdf', '/opt/xchem-fragalysis-2/maxwin/openbind-hippo/a71ev2a/cycle_01/syndirella/elabs/openbind_a71ev2a_c1_elab_chemspace_filtered.sdf', '/opt/xchem-fragalysis-2/maxwin/openbind-hippo/a71ev2a/cycle_01/syndirella/elabs/ASAP-0031281-001_elabs.sdf']

>  <HIPPO Compound ID>  (40) 
289885

>  <gnina_score>  (40) 
6.309

$$$$
P497935
     RDKit          3D

 30 33  0  0  0  0  0  0  0  0999 V2000
    3.5376   12.2883   28.9178 C   0  0  0  0  0  0  0  0  0  0  0  0
    4.4082   11.6779   27.9645 O   0  0  0  0  0  0  0  0  0  0  0  0
    5.6247   12.2739   27.8783 C   0  0  0  0  0  0  0  0  0  0  0  0
    6.0075   13.2293   28.5337 O   0  0  0  0  0  0  0  0  0  0  0  0
    6.4549   11.6003   26.8507 C   0  0  0  0  0  0  0  0  0  0  0  0
    6.2590   10.2605   26.5135 C   0  0  0  0  0  0  0  0  0  0  0  0
    7.0683    9.6324   25.5621 C   0  0  0  0  0  0  0  0  0  0  0  0
    8.0745   10.3716   24.9461 C   0  0  0  0  0  0  0  0  0  0  0  0
    8.2991   11.7007   25.2875 C   0  0  0  0  0  0  0  0  0  0  0  0
    7.4892   12.3300   26.2511 C   0  0  0  0  0  0  0  0  0  0  0  0
    9.4285   12.0704   24.5327 C   0  0  0  0  0  0  0  0  0  0  0  0
   10.2120   13.3021   24.6276 C   0  0  0  0  0  0  0  0  0  0  0  0
   10.0590   14.0926   25.4663 O   0  0  0  0  0  0  0  0  0  0  0  0
   11.2496   13.2300   23.5149 N   0  0  0  0  0  0  0  0  0  0  0  0
   12.2567   14.1494   23.1344 C   0  0  0  0  0  0  0  0  0  0  0  0
   12.6298   14.0714   21.6854 C   0  0  0  0  0  0  0  0  0  0  0  0
   11.6247   14.5586   20.7533 C   0  0  0  0  0  0  0  0  0  0  0  0
   11.6605   14.4189   19.3936 C   0  0  0  0  0  0  0  0  0  0  0  0
   10.6418   15.1160   18.8875 O   0  0  0  0  0  0  0  0  0  0  0  0
   10.1004   15.7331   19.9613 C   0  0  0  0  0  0  0  0  0  0  0  0
    9.3093   16.8681   19.6226 C   0  0  0  0  0  0  0  0  0  0  0  0
    9.0691   17.1913   18.2961 C   0  0  0  0  0  0  0  0  0  0  0  0
    8.1907   18.1927   17.9980 C   0  0  0  0  0  0  0  0  0  0  0  0
    7.6592   18.9564   19.0116 C   0  0  0  0  0  0  0  0  0  0  0  0
    8.0632   18.7737   20.3023 C   0  0  0  0  0  0  0  0  0  0  0  0
    8.8119   17.6775   20.6193 C   0  0  0  0  0  0  0  0  0  0  0  0
   10.5803   15.3545   21.1254 N   0  0  0  0  0  0  0  0  0  0  0  0
    9.8224   11.0867   23.6997 N   0  0  0  0  0  0  0  0  0  0  0  0
    9.0060   10.0662   23.9830 N   0  0  0  0  0  0  0  0  0  0  0  0
    9.2108    8.8284   23.2702 C   0  0  0  0  0  0  0  0  0  0  0  0
  1  2  1  0
  2  3  1  0
  3  4  2  0
  3  5  1  0
  5  6  2  0
  6  7  1  0
  7  8  2  0
  8  9  1  0
  9 10  2  0
  9 11  1  0
 11 12  1  0
 12 13  2  0
 12 14  1  0
 14 15  1  0
 15 16  1  0
 16 17  1  0
 17 18  2  0
 18 19  1  0
 19 20  1  0
 20 21  1  0
 21 22  2  0
 22 23  1  0
 23 24  2  0
 24 25  1  0
 25 26  2  0
 20 27  2  0
 11 28  2  0
 28 29  1  0
 29 30  1  0
 10  5  1  0
 27 17  1  0
 29  8  1  0
 26 21  1  0
M  END
>  <distance_score>  (41) 
0.974508

>  <smiles>  (41) 
COC(=O)c1ccc2c(c1)c(C(=O)NCCc1coc(-c3ccccc3)n1)nn2C

>  <fragmenstein_error>  (41) 
nan

>  <fragmenstein_runtime>  (41) 
nan

>  <gnina_score_min>  (41) 
6.172

>  <orig_smiles>  (41) 
nan

>  <fragmenstein_mode>  (41) 
nan

>  <rmsd(smina/fragmenstein)>  (41) 
0.829

>  <inspiration_score>  (41) 
None

>  <name>  (41) 
P497935

>  <ref_pdb>  (41) 
A2290a

>  <ref_mols>  (41) 
A2290a,A3436a

>  <subsites>  (41) 
None

>  <tags>  (41) 
openbind_a71ev2a_c1_elabs_filtered,openbind_a71ev2a_c1_elab_chemspace_filtered_scored

>  <inchikey>  (41) 
GBQBFWSOOYJIDV-UHFFFAOYSA-N

>  <scratch_subdir>  (41) 
nan

>  <smina_score_min>  (41) 
-6.166

>  <energy_score>  (41) 
-26.88325

>  <Energy>  (41) 
nan

>  <fragmenstein_outcome>  (41) 
nan

>  <alias>  (41) 
None

>  <HIPPO Pose ID>  (41) 
497935

>  <exports>  (41) 
['/opt/xchem-fragalysis-2/maxwin/openbind-hippo/a71ev2a/cycle_01/syndirella/elabs/openbind_a71ev2a_c1_elab_chemspace_filtered.sdf', '/opt/xchem-fragalysis-2/maxwin/openbind-hippo/a71ev2a/cycle_01/syndirella/elabs/ASAP-0031281-001_elabs.sdf']

>  <HIPPO Compound ID>  (41) 
289892

>  <gnina_score>  (41) 
6.384

$$$$
P497936
     RDKit          3D

 30 33  0  0  0  0  0  0  0  0999 V2000
   14.3771   11.9901   24.9248 C   0  0  0  0  0  0  0  0  0  0  0  0
   13.4850   12.5609   23.9456 O   0  0  0  0  0  0  0  0  0  0  0  0
   12.5639   13.4395   24.4004 C   0  0  0  0  0  0  0  0  0  0  0  0
   12.4067   13.6878   25.5963 O   0  0  0  0  0  0  0  0  0  0  0  0
   11.6594   14.0876   23.3526 C   0  0  1  0  0  0  0  0  0  0  0  0
   12.0131   13.9554   21.8730 C   0  0  0  0  0  0  0  0  0  0  0  0
   11.0664   14.7049   20.9885 C   0  0  0  0  0  0  0  0  0  0  0  0
   10.9688   14.7668   19.6169 C   0  0  0  0  0  0  0  0  0  0  0  0
    9.9866   15.6601   19.2952 O   0  0  0  0  0  0  0  0  0  0  0  0
    9.5520   16.1148   20.4944 C   0  0  0  0  0  0  0  0  0  0  0  0
   10.1223   15.5429   21.5271 N   0  0  0  0  0  0  0  0  0  0  0  0
   10.4053   13.4989   23.7424 N   0  0  0  0  0  0  0  0  0  0  0  0
    9.4464   13.8571   24.8937 C   0  0  0  0  0  0  0  0  0  0  0  0
    9.4813   14.7343   25.6619 O   0  0  0  0  0  0  0  0  0  0  0  0
    8.4587   12.7881   24.9413 C   0  0  0  0  0  0  0  0  0  0  0  0
    8.5481   11.8035   24.0366 N   0  0  0  0  0  0  0  0  0  0  0  0
    7.9690   10.7782   24.6512 N   0  0  0  0  0  0  0  0  0  0  0  0
    8.3986    9.4487   24.3151 C   0  0  0  0  0  0  0  0  0  0  0  0
    9.2488    9.4615   23.0693 C   0  0  2  0  0  0  0  0  0  0  0  0
    9.1492    8.1507   22.3727 C   0  0  0  0  0  0  0  0  0  0  0  0
   10.0089    7.4172   23.1777 N   0  0  0  0  0  0  0  0  0  0  0  0
   10.9860    8.2485   23.5727 C   0  0  0  0  0  0  0  0  0  0  0  0
   12.0319    7.8722   24.0244 O   0  0  0  0  0  0  0  0  0  0  0  0
   10.6106    9.5392   23.4531 O   0  0  0  0  0  0  0  0  0  0  0  0
    7.2214   11.1197   25.7326 C   0  0  0  0  0  0  0  0  0  0  0  0
    6.3964   10.3700   26.5683 C   0  0  0  0  0  0  0  0  0  0  0  0
    5.8583   11.0381   27.6645 C   0  0  0  0  0  0  0  0  0  0  0  0
    6.1611   12.3771   27.9180 C   0  0  0  0  0  0  0  0  0  0  0  0
    7.0123   13.1008   27.0801 C   0  0  0  0  0  0  0  0  0  0  0  0
    7.5285   12.4606   25.9504 C   0  0  0  0  0  0  0  0  0  0  0  0
  1  2  1  0
  2  3  1  0
  3  4  2  0
  3  5  1  0
  5  6  1  6
  6  7  1  0
  7  8  2  0
  8  9  1  0
  9 10  1  0
 10 11  2  0
  5 12  1  0
 12 13  1  0
 13 14  2  0
 13 15  1  0
 15 16  2  0
 16 17  1  0
 17 18  1  0
 19 18  1  1
 19 20  1  0
 20 21  1  0
 21 22  1  0
 22 23  2  0
 22 24  1  0
 17 25  1  0
 25 26  2  0
 26 27  1  0
 27 28  2  0
 28 29  1  0
 29 30  2  0
 11  7  1  0
 30 15  1  0
 24 19  1  0
 30 25  1  0
M  END
>  <distance_score>  (42) 
1.533607

>  <smiles>  (42) 
COC(=O)[C@@H](Cc1cocn1)NC(=O)c1nn(C[C@@H]2CNC(=O)O2)c2ccccc12

>  <fragmenstein_error>  (42) 
nan

>  <fragmenstein_runtime>  (42) 
nan

>  <gnina_score_min>  (42) 
6.078

>  <orig_smiles>  (42) 
nan

>  <fragmenstein_mode>  (42) 
nan

>  <rmsd(smina/fragmenstein)>  (42) 
0.861

>  <inspiration_score>  (42) 
None

>  <name>  (42) 
P497936

>  <ref_pdb>  (42) 
A2290a

>  <ref_mols>  (42) 
A2290a,A3436a

>  <subsites>  (42) 
None

>  <tags>  (42) 
openbind_a71ev2a_c1_elabs_filtered,openbind_a71ev2a_c1_elab_chemspace_filtered_scored

>  <inchikey>  (42) 
BMRKSVKHVNSEEK-GXTWGEPZSA-N

>  <scratch_subdir>  (42) 
nan

>  <smina_score_min>  (42) 
-1.619

>  <energy_score>  (42) 
-35.463734

>  <Energy>  (42) 
nan

>  <fragmenstein_outcome>  (42) 
nan

>  <alias>  (42) 
None

>  <HIPPO Pose ID>  (42) 
497936

>  <exports>  (42) 
['/opt/xchem-fragalysis-2/maxwin/openbind-hippo/a71ev2a/cycle_01/syndirella/elabs/openbind_a71ev2a_c1_elab_chemspace_filtered.sdf', '/opt/xchem-fragalysis-2/maxwin/openbind-hippo/a71ev2a/cycle_01/syndirella/elabs/ASAP-0031281-001_elabs.sdf']

>  <HIPPO Compound ID>  (42) 
289894

>  <gnina_score>  (42) 
6.097

$$$$
P497940
     RDKit          3D

 22 25  0  0  0  0  0  0  0  0999 V2000
    9.6927   12.8345   25.7568 O   0  0  0  0  0  0  0  0  0  0  0  0
    9.2849   11.9130   25.0731 C   0  0  0  0  0  0  0  0  0  0  0  0
    9.8884   11.5154   23.7763 C   0  0  0  0  0  0  0  0  0  0  0  0
    9.7554    9.9996   23.8417 C   0  0  0  0  0  0  0  0  0  0  0  0
    8.4439    9.8388   24.5200 C   0  0  0  0  0  0  0  0  0  0  0  0
    8.2553   10.9921   25.3696 N   0  0  0  0  0  0  0  0  0  0  0  0
    6.8683   11.4503   25.4581 C   0  0  1  0  0  0  0  0  0  0  0  0
    6.2009   11.4419   26.8341 C   0  0  0  0  0  0  0  0  0  0  0  0
    6.1029   12.7878   27.5479 C   0  0  0  0  0  0  0  0  0  0  0  0
    5.8446   13.9742   26.6042 C   0  0  0  0  0  0  0  0  0  0  0  0
    6.8936   13.9231   25.5105 C   0  0  2  0  0  0  0  0  0  0  0  0
    6.9918   15.1168   24.6665 N   0  0  0  0  0  0  0  0  0  0  0  0
    8.2905   15.3430   24.3013 C   0  0  0  0  0  0  0  0  0  0  0  0
    8.8235   15.0879   23.1273 N   0  0  0  0  0  0  0  0  0  0  0  0
   10.2038   15.3834   23.2014 C   0  0  0  0  0  0  0  0  0  0  0  0
   11.1128   15.2976   22.0124 C   0  0  0  0  0  0  0  0  0  0  0  0
   10.5104   15.8924   20.7859 C   0  0  0  0  0  0  0  0  0  0  0  0
   10.7331   15.3082   19.4156 C   0  0  0  0  0  0  0  0  0  0  0  0
    9.4321   15.0993   20.1374 C   0  0  0  0  0  0  0  0  0  0  0  0
   10.7192   15.7636   24.3648 N   0  0  0  0  0  0  0  0  0  0  0  0
    9.4774   15.8856   25.4338 S   0  0  0  0  0  0  0  0  0  0  0  0
    6.6296   12.7087   24.6479 C   0  0  0  0  0  0  0  0  0  0  0  0
  1  2  2  0
  2  3  1  0
  3  4  1  0
  4  5  1  0
  5  6  1  0
  7  6  1  1
  7  8  1  0
  8  9  1  0
  9 10  1  0
 10 11  1  0
 11 12  1  6
 12 13  1  0
 13 14  2  0
 14 15  1  0
 15 16  1  0
 16 17  1  0
 17 18  1  0
 18 19  1  0
 15 20  2  0
 20 21  1  0
 11 22  1  0
  6  2  1  0
 22  7  1  0
 21 13  1  0
 19 17  1  0
M  END
>  <distance_score>  (43) 
1.839909

>  <smiles>  (43) 
O=C1CCCN1[C@H]1CCC[C@H](Nc2nc(CC3CC3)ns2)C1

>  <fragmenstein_error>  (43) 
nan

>  <fragmenstein_runtime>  (43) 
nan

>  <gnina_score_min>  (43) 
5.642

>  <orig_smiles>  (43) 
nan

>  <fragmenstein_mode>  (43) 
nan

>  <rmsd(smina/fragmenstein)>  (43) 
0.765

>  <inspiration_score>  (43) 
None

>  <name>  (43) 
P497940

>  <ref_pdb>  (43) 
A4311a

>  <ref_mols>  (43) 
A4311a,A1140a

>  <subsites>  (43) 
None

>  <tags>  (43) 
openbind_a71ev2a_c1_elabs_filtered,openbind_a71ev2a_c1_elab_chemspace_filtered_scored

>  <inchikey>  (43) 
YTOJLNPWANFHBH-STQMWFEESA-N

>  <scratch_subdir>  (43) 
nan

>  <smina_score_min>  (43) 
-5.603

>  <energy_score>  (43) 
-32.974618

>  <Energy>  (43) 
nan

>  <fragmenstein_outcome>  (43) 
nan

>  <alias>  (43) 
None

>  <HIPPO Pose ID>  (43) 
497940

>  <exports>  (43) 
['/opt/xchem-fragalysis-2/maxwin/openbind-hippo/a71ev2a/cycle_01/syndirella/elabs/openbind_a71ev2a_c1_elab_chemspace_filtered.sdf']

>  <HIPPO Compound ID>  (43) 
289925

>  <gnina_score>  (43) 
5.674

$$$$
P497949
     RDKit          3D

 24 27  0  0  0  0  0  0  0  0999 V2000
   23.9297   11.3108   -2.4748 C   0  0  0  0  0  0  0  0  0  0  0  0
   23.5036   12.5024   -1.8246 O   0  0  0  0  0  0  0  0  0  0  0  0
   23.9619   12.7232   -0.5556 C   0  0  0  0  0  0  0  0  0  0  0  0
   24.8596   11.9002    0.1225 C   0  0  0  0  0  0  0  0  0  0  0  0
   25.1860   12.1748    1.4455 C   0  0  0  0  0  0  0  0  0  0  0  0
   24.5917   13.2523    2.0987 C   0  0  0  0  0  0  0  0  0  0  0  0
   23.7277   14.1270    1.4114 C   0  0  0  0  0  0  0  0  0  0  0  0
   23.4457   13.8794    0.0594 C   0  0  0  0  0  0  0  0  0  0  0  0
   22.5856   14.8221   -0.7642 C   0  0  0  0  0  0  0  0  0  0  0  0
   22.3168   16.2244   -0.2010 C   0  0  0  0  0  0  0  0  0  0  0  0
   23.0056   16.5158    1.1103 C   0  0  0  0  0  0  0  0  0  0  0  0
   23.0773   15.3273    2.0769 C   0  0  2  0  0  0  0  0  0  0  0  0
   23.9308   15.8255    3.1202 O   0  0  0  0  0  0  0  0  0  0  0  0
   21.6992   14.9920    2.7210 C   0  0  0  0  0  0  0  0  0  0  0  0
   20.5826   14.5411    1.8985 N   0  0  0  0  0  0  0  0  0  0  0  0
   19.4784   13.5014    2.1896 C   0  0  0  0  0  0  0  0  0  0  0  0
   19.2445   12.9004    3.1597 O   0  0  0  0  0  0  0  0  0  0  0  0
   18.5851   13.3790    0.9571 C   0  0  1  0  0  0  0  0  0  0  0  0
   17.6400   12.1488    0.9520 C   0  0  0  0  0  0  0  0  0  0  0  0
   16.2596   12.7858    0.9053 C   0  0  1  0  0  0  0  0  0  0  0  0
   15.9218   13.4576    2.2324 C   0  0  0  0  0  0  0  0  0  0  0  0
   16.7863   14.7149    2.1896 C   0  0  0  0  0  0  0  0  0  0  0  0
   17.5707   14.5180    0.8920 C   0  0  2  0  0  0  0  0  0  0  0  0
   16.5330   13.9252    0.0639 O   0  0  0  0  0  0  0  0  0  0  0  0
  1  2  1  0
  2  3  1  0
  3  4  2  0
  4  5  1  0
  5  6  2  0
  6  7  1  0
  7  8  2  0
  8  9  1  0
  9 10  1  0
 10 11  1  0
 11 12  1  0
 12 13  1  1
 12 14  1  0
 14 15  1  0
 15 16  1  0
 16 17  2  0
 18 16  1  1
 18 19  1  0
 20 19  1  1
 20 21  1  0
 21 22  1  0
 23 22  1  1
 23 24  1  0
  8  3  1  0
 23 18  1  0
 12  7  1  0
 24 20  1  0
M  END
>  <distance_score>  (44) 
1.89674

>  <smiles>  (44) 
COc1cccc2c1CCC[C@@]2(O)CNC(=O)[C@H]1C[C@H]2CC[C@@H]1O2

>  <fragmenstein_error>  (44) 
nan

>  <fragmenstein_runtime>  (44) 
nan

>  <gnina_score_min>  (44) 
4.105

>  <orig_smiles>  (44) 
nan

>  <fragmenstein_mode>  (44) 
nan

>  <rmsd(smina/fragmenstein)>  (44) 
1.621

>  <inspiration_score>  (44) 
None

>  <name>  (44) 
P497949

>  <ref_pdb>  (44) 
A0239a

>  <ref_mols>  (44) 
A0239a,A0608a

>  <subsites>  (44) 
None

>  <tags>  (44) 
openbind_a71ev2a_c1_elabs_filtered,openbind_a71ev2a_c1_elab_chemspace_filtered_scored

>  <inchikey>  (44) 
HXWOWIMAYZUQNK-MSPRAJMNSA-N

>  <scratch_subdir>  (44) 
nan

>  <smina_score_min>  (44) 
-4.963

>  <energy_score>  (44) 
-15.338723

>  <Energy>  (44) 
nan

>  <fragmenstein_outcome>  (44) 
nan

>  <alias>  (44) 
None

>  <HIPPO Pose ID>  (44) 
497949

>  <exports>  (44) 
['/opt/xchem-fragalysis-2/maxwin/openbind-hippo/a71ev2a/cycle_01/bulkdock/openbind_a71ev2a_c1_elab_chemspace.sdf', '/opt/xchem-fragalysis-2/maxwin/openbind-hippo/a71ev2a/cycle_01/syndirella/elabs/openbind_a71ev2a_c1_elab_chemspace_filtered.sdf']

>  <HIPPO Compound ID>  (44) 
290288

>  <gnina_score>  (44) 
4.1

$$$$
P497956
     RDKit          3D

 24 27  0  0  0  0  0  0  0  0999 V2000
   14.5018    9.7310   -1.3507 C   0  0  0  0  0  0  0  0  0  0  0  0
   14.7608   10.8267   -0.4817 O   0  0  0  0  0  0  0  0  0  0  0  0
   16.0745   11.1320   -0.2231 C   0  0  0  0  0  0  0  0  0  0  0  0
   17.1588   10.4083   -0.7110 C   0  0  0  0  0  0  0  0  0  0  0  0
   18.4502   10.7876   -0.3734 C   0  0  0  0  0  0  0  0  0  0  0  0
   18.6655   11.8835    0.4632 C   0  0  0  0  0  0  0  0  0  0  0  0
   17.6094   12.6493    0.9721 C   0  0  0  0  0  0  0  0  0  0  0  0
   16.2950   12.2663    0.5970 C   0  0  0  0  0  0  0  0  0  0  0  0
   15.0826   13.0309    1.0768 C   0  0  0  0  0  0  0  0  0  0  0  0
   15.4022   14.4202    1.5929 C   0  0  0  0  0  0  0  0  0  0  0  0
   16.5832   14.3540    2.5405 C   0  0  0  0  0  0  0  0  0  0  0  0
   17.8745   13.9046    1.8155 C   0  0  2  0  0  0  0  0  0  0  0  0
   18.2264   14.9857    0.9440 O   0  0  0  0  0  0  0  0  0  0  0  0
   18.9400   13.7729    2.9496 C   0  0  0  0  0  0  0  0  0  0  0  0
   20.3376   14.0938    2.7212 N   0  0  0  0  0  0  0  0  0  0  0  0
   21.1406   14.2117    1.4005 C   0  0  0  0  0  0  0  0  0  0  0  0
   20.7850   14.1448    0.2912 O   0  0  0  0  0  0  0  0  0  0  0  0
   22.5902   14.5236    1.8084 C   0  0  1  0  0  0  0  0  0  0  0  0
   23.5715   14.4442    0.6214 C   0  0  0  0  0  0  0  0  0  0  0  0
   23.9815   15.9175    0.4526 C   0  0  1  0  0  0  0  0  0  0  0  0
   22.7589   16.7087    0.8815 C   0  0  0  0  0  0  0  0  0  0  0  0
   22.7019   16.0057    2.2294 C   0  0  2  0  0  0  0  0  0  0  0  0
   24.1240   16.2769    2.7172 C   0  0  0  0  0  0  0  0  0  0  0  0
   24.9190   16.2065    1.5134 O   0  0  0  0  0  0  0  0  0  0  0  0
  1  2  1  0
  2  3  1  0
  3  4  2  0
  4  5  1  0
  5  6  2  0
  6  7  1  0
  7  8  2  0
  8  9  1  0
  9 10  1  0
 10 11  1  0
 11 12  1  0
 12 13  1  6
 12 14  1  0
 14 15  1  0
 15 16  1  0
 16 17  2  0
 18 16  1  6
 18 19  1  0
 20 19  1  1
 20 21  1  0
 21 22  1  0
 22 23  1  1
 23 24  1  0
  8  3  1  0
 22 18  1  0
 12  7  1  0
 24 20  1  0
M  END
>  <distance_score>  (45) 
1.550559

>  <smiles>  (45) 
COc1cccc2c1CCC[C@@]2(O)CNC(=O)[C@H]1C[C@H]2C[C@@H]1CO2

>  <fragmenstein_error>  (45) 
nan

>  <fragmenstein_runtime>  (45) 
nan

>  <gnina_score_min>  (45) 
3.75

>  <orig_smiles>  (45) 
nan

>  <fragmenstein_mode>  (45) 
nan

>  <rmsd(smina/fragmenstein)>  (45) 
0.83

>  <inspiration_score>  (45) 
None

>  <name>  (45) 
P497956

>  <ref_pdb>  (45) 
A0239a

>  <ref_mols>  (45) 
A0239a,A0608a

>  <subsites>  (45) 
None

>  <tags>  (45) 
openbind_a71ev2a_c1_elabs_filtered,openbind_a71ev2a_c1_elab_chemspace_filtered_scored

>  <inchikey>  (45) 
BOCYLHIKGKUYBN-PITQQHRWSA-N

>  <scratch_subdir>  (45) 
nan

>  <smina_score_min>  (45) 
-3.932

>  <energy_score>  (45) 
-29.897738

>  <Energy>  (45) 
nan

>  <fragmenstein_outcome>  (45) 
nan

>  <alias>  (45) 
None

>  <HIPPO Pose ID>  (45) 
497956

>  <exports>  (45) 
['/opt/xchem-fragalysis-2/maxwin/openbind-hippo/a71ev2a/cycle_01/bulkdock/openbind_a71ev2a_c1_elab_chemspace.sdf', '/opt/xchem-fragalysis-2/maxwin/openbind-hippo/a71ev2a/cycle_01/syndirella/elabs/openbind_a71ev2a_c1_elab_chemspace_filtered.sdf']

>  <HIPPO Compound ID>  (45) 
290291

>  <gnina_score>  (45) 
4.001

$$$$
P497960
     RDKit          3D

 24 27  0  0  0  0  0  0  0  0999 V2000
   13.9062   17.5433    4.2380 C   0  0  0  0  0  0  0  0  0  0  0  0
   15.1855   16.9695    4.0043 O   0  0  0  0  0  0  0  0  0  0  0  0
   15.2197   15.8046    3.2907 C   0  0  0  0  0  0  0  0  0  0  0  0
   14.1228   15.0496    2.9000 C   0  0  0  0  0  0  0  0  0  0  0  0
   14.3090   13.8706    2.1757 C   0  0  0  0  0  0  0  0  0  0  0  0
   15.5961   13.4277    1.8316 C   0  0  0  0  0  0  0  0  0  0  0  0
   16.7210   14.1642    2.2433 C   0  0  0  0  0  0  0  0  0  0  0  0
   16.4994   15.3697    2.9434 C   0  0  0  0  0  0  0  0  0  0  0  0
   18.1443   13.7553    1.8520 C   0  0  1  0  0  0  0  0  0  0  0  0
   18.5106   14.7031    0.8411 O   0  0  0  0  0  0  0  0  0  0  0  0
   19.1066   13.8635    3.0773 C   0  0  0  0  0  0  0  0  0  0  0  0
   20.5139   14.1134    2.8396 N   0  0  0  0  0  0  0  0  0  0  0  0
   21.3659   13.9286    1.5600 C   0  0  0  0  0  0  0  0  0  0  0  0
   21.0505   13.6199    0.4806 O   0  0  0  0  0  0  0  0  0  0  0  0
   22.7956   14.3488    1.9427 C   0  0  1  0  0  0  0  0  0  0  0  0
   23.7950   14.1772    0.7804 C   0  0  0  0  0  0  0  0  0  0  0  0
   24.1339   15.6389    0.4354 C   0  0  1  0  0  0  0  0  0  0  0  0
   22.8701   16.4151    0.7606 C   0  0  0  0  0  0  0  0  0  0  0  0
   22.8371   15.8785    2.1832 C   0  0  2  0  0  0  0  0  0  0  0  0
   24.2393   16.2742    2.6402 C   0  0  0  0  0  0  0  0  0  0  0  0
   25.0461   16.1047    1.4551 O   0  0  0  0  0  0  0  0  0  0  0  0
   18.1956   12.3270    1.2616 C   0  0  0  0  0  0  0  0  0  0  0  0
   17.0528   12.0745    0.2869 C   0  0  0  0  0  0  0  0  0  0  0  0
   15.7240   12.1630    1.0215 C   0  0  0  0  0  0  0  0  0  0  0  0
  1  2  1  0
  2  3  1  0
  3  4  2  0
  4  5  1  0
  5  6  2  0
  6  7  1  0
  7  8  2  0
  7  9  1  0
  9 10  1  6
  9 11  1  0
 11 12  1  0
 12 13  1  0
 13 14  2  0
 15 13  1  6
 15 16  1  0
 17 16  1  1
 17 18  1  0
 18 19  1  0
 19 20  1  1
 20 21  1  0
  9 22  1  0
 22 23  1  0
 23 24  1  0
  8  3  1  0
 19 15  1  0
 24  6  1  0
 21 17  1  0
M  END
>  <distance_score>  (46) 
1.473425

>  <smiles>  (46) 
COc1ccc2c(c1)[C@@](O)(CNC(=O)[C@H]1C[C@H]3C[C@@H]1CO3)CCC2

>  <fragmenstein_error>  (46) 
nan

>  <fragmenstein_runtime>  (46) 
nan

>  <gnina_score_min>  (46) 
3.631

>  <orig_smiles>  (46) 
nan

>  <fragmenstein_mode>  (46) 
nan

>  <rmsd(smina/fragmenstein)>  (46) 
1.123

>  <inspiration_score>  (46) 
None

>  <name>  (46) 
P497960

>  <ref_pdb>  (46) 
A0239a

>  <ref_mols>  (46) 
A0239a,A0608a

>  <subsites>  (46) 
None

>  <tags>  (46) 
openbind_a71ev2a_c1_elabs_filtered,openbind_a71ev2a_c1_elab_chemspace_filtered_scored

>  <inchikey>  (46) 
VHKHGPRIIBCJMA-RGPZOAQRSA-N

>  <scratch_subdir>  (46) 
nan

>  <smina_score_min>  (46) 
-4.321

>  <energy_score>  (46) 
-18.756726

>  <Energy>  (46) 
nan

>  <fragmenstein_outcome>  (46) 
nan

>  <alias>  (46) 
None

>  <HIPPO Pose ID>  (46) 
497960

>  <exports>  (46) 
['/opt/xchem-fragalysis-2/maxwin/openbind-hippo/a71ev2a/cycle_01/bulkdock/openbind_a71ev2a_c1_elab_chemspace.sdf', '/opt/xchem-fragalysis-2/maxwin/openbind-hippo/a71ev2a/cycle_01/syndirella/elabs/openbind_a71ev2a_c1_elab_chemspace_filtered.sdf']

>  <HIPPO Compound ID>  (46) 
290292

>  <gnina_score>  (46) 
3.818

$$$$
P497963
     RDKit          3D

 25 27  0  0  0  0  0  0  0  0999 V2000
   23.9921   10.7571   -2.3612 C   0  0  0  0  0  0  0  0  0  0  0  0
   24.6905   10.8923   -1.1292 O   0  0  0  0  0  0  0  0  0  0  0  0
   24.5642   12.0703   -0.4699 C   0  0  0  0  0  0  0  0  0  0  0  0
   24.8892   12.0375    0.8816 C   0  0  0  0  0  0  0  0  0  0  0  0
   24.6414   13.1348    1.6862 C   0  0  0  0  0  0  0  0  0  0  0  0
   24.0750   14.2896    1.1290 C   0  0  0  0  0  0  0  0  0  0  0  0
   23.9332   14.3819   -0.2655 C   0  0  0  0  0  0  0  0  0  0  0  0
   24.1538   13.2538   -1.0552 C   0  0  0  0  0  0  0  0  0  0  0  0
   23.4207   15.6380   -0.9345 C   0  0  0  0  0  0  0  0  0  0  0  0
   23.4816   16.8770   -0.0411 C   0  0  0  0  0  0  0  0  0  0  0  0
   22.8454   16.5652    1.3014 C   0  0  0  0  0  0  0  0  0  0  0  0
   23.6143   15.4327    2.0155 C   0  0  2  0  0  0  0  0  0  0  0  0
   24.8049   16.0706    2.5204 O   0  0  0  0  0  0  0  0  0  0  0  0
   22.7941   14.9378    3.2320 C   0  0  0  0  0  0  0  0  0  0  0  0
   21.3744   14.6483    3.0916 N   0  0  0  0  0  0  0  0  0  0  0  0
   20.5693   14.1282    1.8744 C   0  0  0  0  0  0  0  0  0  0  0  0
   20.9060   13.9254    0.7773 O   0  0  0  0  0  0  0  0  0  0  0  0
   19.1175   14.0105    2.3632 C   0  0  0  0  0  0  0  0  0  0  0  0
   18.1536   13.6166    1.2241 C   0  0  1  0  0  0  0  0  0  0  0  0
   18.2267   12.1077    0.9712 C   0  0  0  0  0  0  0  0  0  0  0  0
   16.7271   14.1441    1.5073 C   0  0  1  0  0  0  0  0  0  0  0  0
   15.8448   14.2738    0.2700 C   0  0  0  0  0  0  0  0  0  0  0  0
   15.0526   12.9957    0.2329 C   0  0  0  0  0  0  0  0  0  0  0  0
   15.0224   12.5603    1.6773 C   0  0  0  0  0  0  0  0  0  0  0  0
   16.0190   13.2888    2.4117 O   0  0  0  0  0  0  0  0  0  0  0  0
  1  2  1  0
  2  3  1  0
  3  4  2  0
  4  5  1  0
  5  6  2  0
  6  7  1  0
  7  8  2  0
  7  9  1  0
  9 10  1  0
 10 11  1  0
 11 12  1  0
 12 13  1  1
 12 14  1  0
 14 15  1  0
 15 16  1  0
 16 17  2  0
 16 18  1  0
 18 19  1  0
 19 20  1  1
 19 21  1  0
 21 22  1  6
 22 23  1  0
 23 24  1  0
 24 25  1  0
  8  3  1  0
 25 21  1  0
 12  6  1  0
M  END
>  <distance_score>  (47) 
1.913811

>  <smiles>  (47) 
COc1ccc2c(c1)CCC[C@@]2(O)CNC(=O)C[C@@H](C)[C@H]1CCCO1

>  <fragmenstein_error>  (47) 
nan

>  <fragmenstein_runtime>  (47) 
nan

>  <gnina_score_min>  (47) 
4.163

>  <orig_smiles>  (47) 
nan

>  <fragmenstein_mode>  (47) 
nan

>  <rmsd(smina/fragmenstein)>  (47) 
0.708

>  <inspiration_score>  (47) 
None

>  <name>  (47) 
P497963

>  <ref_pdb>  (47) 
A0239a

>  <ref_mols>  (47) 
A0239a,A0608a

>  <subsites>  (47) 
None

>  <tags>  (47) 
openbind_a71ev2a_c1_elabs_filtered,openbind_a71ev2a_c1_elab_chemspace_filtered_scored

>  <inchikey>  (47) 
BKZCIFRWWXZYGW-LXGCGDOSSA-N

>  <scratch_subdir>  (47) 
nan

>  <smina_score_min>  (47) 
-3.859

>  <energy_score>  (47) 
-33.480355

>  <Energy>  (47) 
nan

>  <fragmenstein_outcome>  (47) 
nan

>  <alias>  (47) 
None

>  <HIPPO Pose ID>  (47) 
497963

>  <exports>  (47) 
['/opt/xchem-fragalysis-2/maxwin/openbind-hippo/a71ev2a/cycle_01/bulkdock/openbind_a71ev2a_c1_elab_chemspace.sdf', '/opt/xchem-fragalysis-2/maxwin/openbind-hippo/a71ev2a/cycle_01/syndirella/elabs/openbind_a71ev2a_c1_elab_chemspace_filtered.sdf']

>  <HIPPO Compound ID>  (47) 
290303

>  <gnina_score>  (47) 
4.39

$$$$
P497965
     RDKit          3D

 25 28  0  0  0  0  0  0  0  0999 V2000
   13.9500   17.2822    4.4038 C   0  0  0  0  0  0  0  0  0  0  0  0
   15.2476   16.7212    4.2487 O   0  0  0  0  0  0  0  0  0  0  0  0
   15.3404   15.6045    3.4659 C   0  0  0  0  0  0  0  0  0  0  0  0
   14.2811   14.8112    3.0500 C   0  0  0  0  0  0  0  0  0  0  0  0
   14.5188   13.6830    2.2646 C   0  0  0  0  0  0  0  0  0  0  0  0
   15.8208   13.3409    1.8681 C   0  0  0  0  0  0  0  0  0  0  0  0
   16.9097   14.1335    2.2795 C   0  0  0  0  0  0  0  0  0  0  0  0
   16.6362   15.2673    3.0739 C   0  0  0  0  0  0  0  0  0  0  0  0
   18.3216   13.8943    1.7360 C   0  0  1  0  0  0  0  0  0  0  0  0
   18.4209   14.8980    0.7177 O   0  0  0  0  0  0  0  0  0  0  0  0
   19.4188   14.1139    2.8254 C   0  0  0  0  0  0  0  0  0  0  0  0
   20.8142   14.2231    2.4259 N   0  0  0  0  0  0  0  0  0  0  0  0
   21.4465   14.5843    1.0489 C   0  0  0  0  0  0  0  0  0  0  0  0
   20.9425   14.7726    0.0097 O   0  0  0  0  0  0  0  0  0  0  0  0
   22.9707   14.7878    1.2577 C   0  0  1  0  0  0  0  0  0  0  0  0
   23.7104   13.1990    1.5975 Cl  0  0  0  0  0  0  0  0  0  0  0  0
   23.6660   15.4474    0.0434 C   0  0  0  0  0  0  0  0  0  0  0  0
   24.1417   16.7780    0.6311 C   0  0  1  0  0  0  0  0  0  0  0  0
   22.9680   17.6970    0.9726 C   0  0  0  0  0  0  0  0  0  0  0  0
   22.4404   17.0748    2.2630 C   0  0  0  0  0  0  0  0  0  0  0  0
   23.2933   15.8083    2.3722 C   0  0  2  0  0  0  0  0  0  0  0  0
   24.5693   16.3515    1.9400 O   0  0  0  0  0  0  0  0  0  0  0  0
   18.4727   12.4951    1.1070 C   0  0  0  0  0  0  0  0  0  0  0  0
   17.2947   12.1491    0.2033 C   0  0  0  0  0  0  0  0  0  0  0  0
   16.0046   12.1161    1.0089 C   0  0  0  0  0  0  0  0  0  0  0  0
  1  2  1  0
  2  3  1  0
  3  4  2  0
  4  5  1  0
  5  6  2  0
  6  7  1  0
  7  8  2  0
  7  9  1  0
  9 10  1  6
  9 11  1  0
 11 12  1  0
 12 13  1  0
 13 14  2  0
 13 15  1  0
 15 16  1  1
 15 17  1  0
 18 17  1  6
 18 19  1  0
 19 20  1  0
 21 20  1  6
 21 22  1  0
  9 23  1  0
 23 24  1  0
 24 25  1  0
  8  3  1  0
 21 15  1  0
 25  6  1  0
 22 18  1  0
M  END
>  <distance_score>  (48) 
1.382142

>  <smiles>  (48) 
COc1ccc2c(c1)[C@@](O)(CNC(=O)[C@@]1(Cl)C[C@H]3CC[C@@H]1O3)CCC2

>  <fragmenstein_error>  (48) 
nan

>  <fragmenstein_runtime>  (48) 
nan

>  <gnina_score_min>  (48) 
4.104

>  <orig_smiles>  (48) 
nan

>  <fragmenstein_mode>  (48) 
nan

>  <rmsd(smina/fragmenstein)>  (48) 
1.435

>  <inspiration_score>  (48) 
None

>  <name>  (48) 
P497965

>  <ref_pdb>  (48) 
A0239a

>  <ref_mols>  (48) 
A0239a,A0608a

>  <subsites>  (48) 
None

>  <tags>  (48) 
openbind_a71ev2a_c1_elabs_filtered,openbind_a71ev2a_c1_elab_chemspace_filtered_scored

>  <inchikey>  (48) 
LUWCWHLJXZQXGV-TWKWOARYSA-N

>  <scratch_subdir>  (48) 
nan

>  <smina_score_min>  (48) 
-4.386

>  <energy_score>  (48) 
-31.950254

>  <Energy>  (48) 
nan

>  <fragmenstein_outcome>  (48) 
nan

>  <alias>  (48) 
None

>  <HIPPO Pose ID>  (48) 
497965

>  <exports>  (48) 
['/opt/xchem-fragalysis-2/maxwin/openbind-hippo/a71ev2a/cycle_01/bulkdock/openbind_a71ev2a_c1_elab_chemspace.sdf', '/opt/xchem-fragalysis-2/maxwin/openbind-hippo/a71ev2a/cycle_01/syndirella/elabs/openbind_a71ev2a_c1_elab_chemspace_filtered.sdf']

>  <HIPPO Compound ID>  (48) 
290304

>  <gnina_score>  (48) 
3.954

$$$$
P497968
     RDKit          3D

 25 27  0  0  0  0  0  0  0  0999 V2000
   21.8824   12.2446   -1.2431 C   0  0  0  0  0  0  0  0  0  0  0  0
   23.2063   12.6658   -1.5848 O   0  0  0  0  0  0  0  0  0  0  0  0
   23.8890   12.9439   -0.4352 C   0  0  0  0  0  0  0  0  0  0  0  0
   24.7351   11.9765    0.0940 C   0  0  0  0  0  0  0  0  0  0  0  0
   25.2767   12.1775    1.3553 C   0  0  0  0  0  0  0  0  0  0  0  0
   24.9283   13.3192    2.0795 C   0  0  0  0  0  0  0  0  0  0  0  0
   24.1270   14.3289    1.5032 C   0  0  0  0  0  0  0  0  0  0  0  0
   23.6695   14.1726    0.1934 C   0  0  0  0  0  0  0  0  0  0  0  0
   22.9148   15.2568   -0.5477 C   0  0  0  0  0  0  0  0  0  0  0  0
   22.9004   16.6623    0.0603 C   0  0  0  0  0  0  0  0  0  0  0  0
   23.6695   16.7961    1.3542 C   0  0  0  0  0  0  0  0  0  0  0  0
   23.6653   15.5563    2.2588 C   0  0  2  0  0  0  0  0  0  0  0  0
   24.6101   15.8952    3.2767 O   0  0  0  0  0  0  0  0  0  0  0  0
   22.2956   15.3243    2.9581 C   0  0  0  0  0  0  0  0  0  0  0  0
   21.1048   15.1137    2.1537 N   0  0  0  0  0  0  0  0  0  0  0  0
   19.9703   14.0661    2.2904 C   0  0  0  0  0  0  0  0  0  0  0  0
   19.7792   13.2625    3.1136 O   0  0  0  0  0  0  0  0  0  0  0  0
   19.0658   14.2675    1.0773 C   0  0  0  0  0  0  0  0  0  0  0  0
   17.9429   13.2233    0.9011 C   0  0  1  0  0  0  0  0  0  0  0  0
   18.4606   11.7919    0.8125 C   0  0  0  0  0  0  0  0  0  0  0  0
   16.8086   13.3831    1.9314 C   0  0  2  0  0  0  0  0  0  0  0  0
   15.6826   12.3674    1.8049 C   0  0  0  0  0  0  0  0  0  0  0  0
   14.8713   12.8954    0.6525 C   0  0  0  0  0  0  0  0  0  0  0  0
   14.9895   14.3903    0.8603 C   0  0  0  0  0  0  0  0  0  0  0  0
   16.1480   14.6397    1.6790 O   0  0  0  0  0  0  0  0  0  0  0  0
  1  2  1  0
  2  3  1  0
  3  4  2  0
  4  5  1  0
  5  6  2  0
  6  7  1  0
  7  8  2  0
  8  9  1  0
  9 10  1  0
 10 11  1  0
 11 12  1  0
 12 13  1  1
 12 14  1  0
 14 15  1  0
 15 16  1  0
 16 17  2  0
 16 18  1  0
 18 19  1  0
 19 20  1  1
 19 21  1  0
 21 22  1  6
 22 23  1  0
 23 24  1  0
 24 25  1  0
  8  3  1  0
 25 21  1  0
 12  7  1  0
M  END
>  <distance_score>  (49) 
1.910764

>  <smiles>  (49) 
COc1cccc2c1CCC[C@@]2(O)CNC(=O)C[C@@H](C)[C@@H]1CCCO1

>  <fragmenstein_error>  (49) 
nan

>  <fragmenstein_runtime>  (49) 
nan

>  <gnina_score_min>  (49) 
4.22

>  <orig_smiles>  (49) 
nan

>  <fragmenstein_mode>  (49) 
nan

>  <rmsd(smina/fragmenstein)>  (49) 
2.029

>  <inspiration_score>  (49) 
None

>  <name>  (49) 
P497968

>  <ref_pdb>  (49) 
A0239a

>  <ref_mols>  (49) 
A0239a,A0608a

>  <subsites>  (49) 
None

>  <tags>  (49) 
openbind_a71ev2a_c1_elabs_filtered,openbind_a71ev2a_c1_elab_chemspace_filtered_scored

>  <inchikey>  (49) 
LISNEMOUEMHTHM-CFLQYTFWSA-N

>  <scratch_subdir>  (49) 
nan

>  <smina_score_min>  (49) 
-5.198

>  <energy_score>  (49) 
-30.324853

>  <Energy>  (49) 
nan

>  <fragmenstein_outcome>  (49) 
nan

>  <alias>  (49) 
None

>  <HIPPO Pose ID>  (49) 
497968

>  <exports>  (49) 
['/opt/xchem-fragalysis-2/maxwin/openbind-hippo/a71ev2a/cycle_01/bulkdock/openbind_a71ev2a_c1_elab_chemspace.sdf', '/opt/xchem-fragalysis-2/maxwin/openbind-hippo/a71ev2a/cycle_01/syndirella/elabs/openbind_a71ev2a_c1_elab_chemspace_filtered.sdf']

>  <HIPPO Compound ID>  (49) 
290305

>  <gnina_score>  (49) 
4.165

$$$$
P497970
     RDKit          3D

 25 27  0  0  0  0  0  0  0  0999 V2000
   23.3770   11.2031   -2.4365 C   0  0  0  0  0  0  0  0  0  0  0  0
   23.0129   12.2548   -1.5511 O   0  0  0  0  0  0  0  0  0  0  0  0
   23.8668   12.5294   -0.5192 C   0  0  0  0  0  0  0  0  0  0  0  0
   24.9608   11.7421   -0.1580 C   0  0  0  0  0  0  0  0  0  0  0  0
   25.7295   12.0807    0.9523 C   0  0  0  0  0  0  0  0  0  0  0  0
   25.4052   13.2050    1.7070 C   0  0  0  0  0  0  0  0  0  0  0  0
   24.3274   14.0306    1.3383 C   0  0  0  0  0  0  0  0  0  0  0  0
   23.5639   13.6931    0.2065 C   0  0  0  0  0  0  0  0  0  0  0  0
   22.3798   14.5479   -0.1870 C   0  0  0  0  0  0  0  0  0  0  0  0
   22.5441   16.0466    0.0737 C   0  0  0  0  0  0  0  0  0  0  0  0
   23.4995   16.4127    1.1960 C   0  0  0  0  0  0  0  0  0  0  0  0
   23.9354   15.2672    2.1256 C   0  0  2  0  0  0  0  0  0  0  0  0
   25.1038   15.8102    2.7637 O   0  0  0  0  0  0  0  0  0  0  0  0
   22.8784   14.9440    3.2105 C   0  0  0  0  0  0  0  0  0  0  0  0
   21.4794   14.9626    2.8388 N   0  0  0  0  0  0  0  0  0  0  0  0
   20.3011   14.0972    3.3294 C   0  0  0  0  0  0  0  0  0  0  0  0
   20.2849   13.1828    4.0523 O   0  0  0  0  0  0  0  0  0  0  0  0
   18.9766   14.5115    2.6851 C   0  0  1  0  0  0  0  0  0  0  0  0
   18.8645   15.9351    2.1879 C   0  0  0  0  0  0  0  0  0  0  0  0
   18.6445   13.4505    1.6364 C   0  0  0  0  0  0  0  0  0  0  0  0
   17.2623   13.5440    1.0210 C   0  0  2  0  0  0  0  0  0  0  0  0
   16.1040   13.4967    2.0048 C   0  0  0  0  0  0  0  0  0  0  0  0
   15.0489   12.7842    1.1975 C   0  0  0  0  0  0  0  0  0  0  0  0
   15.8766   11.7512    0.4686 C   0  0  0  0  0  0  0  0  0  0  0  0
   17.1148   12.3985    0.1589 O   0  0  0  0  0  0  0  0  0  0  0  0
  1  2  1  0
  2  3  1  0
  3  4  2  0
  4  5  1  0
  5  6  2  0
  6  7  1  0
  7  8  2  0
  8  9  1  0
  9 10  1  0
 10 11  1  0
 11 12  1  0
 12 13  1  1
 12 14  1  0
 14 15  1  0
 15 16  1  0
 16 17  2  0
 16 18  1  0
 18 19  1  6
 18 20  1  0
 21 20  1  1
 21 22  1  0
 22 23  1  0
 23 24  1  0
 24 25  1  0
  8  3  1  0
 25 21  1  0
 12  7  1  0
M  END
>  <distance_score>  (50) 
1.615824

>  <smiles>  (50) 
COc1cccc2c1CCC[C@@]2(O)CNC(=O)[C@@H](C)C[C@@H]1CCCO1

>  <fragmenstein_error>  (50) 
nan

>  <fragmenstein_runtime>  (50) 
nan

>  <gnina_score_min>  (50) 
4.217

>  <orig_smiles>  (50) 
nan

>  <fragmenstein_mode>  (50) 
nan

>  <rmsd(smina/fragmenstein)>  (50) 
1.626

>  <inspiration_score>  (50) 
None

>  <name>  (50) 
P497970

>  <ref_pdb>  (50) 
A0239a

>  <ref_mols>  (50) 
A0239a,A0608a

>  <subsites>  (50) 
None

>  <tags>  (50) 
openbind_a71ev2a_c1_elabs_filtered,openbind_a71ev2a_c1_elab_chemspace_filtered_scored

>  <inchikey>  (50) 
BVYNHIXIESFGBQ-AUSJPIAWSA-N

>  <scratch_subdir>  (50) 
nan

>  <smina_score_min>  (50) 
-5.29

>  <energy_score>  (50) 
-16.65896

>  <Energy>  (50) 
nan

>  <fragmenstein_outcome>  (50) 
nan

>  <alias>  (50) 
None

>  <HIPPO Pose ID>  (50) 
497970

>  <exports>  (50) 
['/opt/xchem-fragalysis-2/maxwin/openbind-hippo/a71ev2a/cycle_01/bulkdock/openbind_a71ev2a_c1_elab_chemspace.sdf', '/opt/xchem-fragalysis-2/maxwin/openbind-hippo/a71ev2a/cycle_01/syndirella/elabs/openbind_a71ev2a_c1_elab_chemspace_filtered.sdf']

>  <HIPPO Compound ID>  (50) 
290306

>  <gnina_score>  (50) 
4.582

$$$$
P497972
     RDKit          3D

 25 28  0  0  0  0  0  0  0  0999 V2000
   23.7084   11.1327   -2.4990 C   0  0  0  0  0  0  0  0  0  0  0  0
   23.1806   12.1962   -1.7155 O   0  0  0  0  0  0  0  0  0  0  0  0
   23.8477   12.5243   -0.5698 C   0  0  0  0  0  0  0  0  0  0  0  0
   24.9637   11.8497   -0.0716 C   0  0  0  0  0  0  0  0  0  0  0  0
   25.5216   12.2267    1.1474 C   0  0  0  0  0  0  0  0  0  0  0  0
   24.9680   13.2817    1.8691 C   0  0  0  0  0  0  0  0  0  0  0  0
   23.8773   14.0066    1.3540 C   0  0  0  0  0  0  0  0  0  0  0  0
   23.3172   13.6210    0.1258 C   0  0  0  0  0  0  0  0  0  0  0  0
   22.0820   14.3374   -0.3747 C   0  0  0  0  0  0  0  0  0  0  0  0
   22.0903   15.8487   -0.1269 C   0  0  0  0  0  0  0  0  0  0  0  0
   22.8110   16.2920    1.1326 C   0  0  0  0  0  0  0  0  0  0  0  0
   23.2237   15.1671    2.0914 C   0  0  2  0  0  0  0  0  0  0  0  0
   24.2006   15.8092    2.9310 O   0  0  0  0  0  0  0  0  0  0  0  0
   22.0644   14.6590    2.9954 C   0  0  0  0  0  0  0  0  0  0  0  0
   20.6658   14.8550    2.6124 N   0  0  0  0  0  0  0  0  0  0  0  0
   19.4437   13.9065    2.7407 C   0  0  0  0  0  0  0  0  0  0  0  0
   19.3819   12.7986    3.0996 O   0  0  0  0  0  0  0  0  0  0  0  0
   18.1680   14.6597    2.3136 C   0  0  2  0  0  0  0  0  0  0  0  0
   16.8667   13.9495    2.8059 C   0  0  0  0  0  0  0  0  0  0  0  0
   16.1695   13.0578    1.7757 C   0  0  2  0  0  0  0  0  0  0  0  0
   16.9723   11.8685    1.2810 C   0  0  0  0  0  0  0  0  0  0  0  0
   17.8347   12.4427    0.1768 C   0  0  0  0  0  0  0  0  0  0  0  0
   17.3276   13.8726    0.0281 C   0  0  2  0  0  0  0  0  0  0  0  0
   18.1517   14.8997    0.8019 C   0  0  0  0  0  0  0  0  0  0  0  0
   16.0118   13.8625    0.6039 O   0  0  0  0  0  0  0  0  0  0  0  0
  1  2  1  0
  2  3  1  0
  3  4  2  0
  4  5  1  0
  5  6  2  0
  6  7  1  0
  7  8  2  0
  8  9  1  0
  9 10  1  0
 10 11  1  0
 11 12  1  0
 12 13  1  1
 12 14  1  0
 14 15  1  0
 15 16  1  0
 16 17  2  0
 18 16  1  6
 18 19  1  0
 20 19  1  1
 20 21  1  0
 21 22  1  0
 23 22  1  1
 23 24  1  0
 23 25  1  0
  8  3  1  0
 24 18  1  0
 12  7  1  0
 25 20  1  0
M  END
>  <distance_score>  (51) 
1.966433

>  <smiles>  (51) 
COc1cccc2c1CCC[C@@]2(O)CNC(=O)[C@H]1C[C@H]2CC[C@@H](C1)O2

>  <fragmenstein_error>  (51) 
nan

>  <fragmenstein_runtime>  (51) 
nan

>  <gnina_score_min>  (51) 
4.312

>  <orig_smiles>  (51) 
nan

>  <fragmenstein_mode>  (51) 
nan

>  <rmsd(smina/fragmenstein)>  (51) 
1.66

>  <inspiration_score>  (51) 
None

>  <name>  (51) 
P497972

>  <ref_pdb>  (51) 
A0239a

>  <ref_mols>  (51) 
A0239a,A0608a

>  <subsites>  (51) 
None

>  <tags>  (51) 
openbind_a71ev2a_c1_elabs_filtered,openbind_a71ev2a_c1_elab_chemspace_filtered_scored

>  <inchikey>  (51) 
DAHHKZSQAMNCEZ-IGMJJTELSA-N

>  <scratch_subdir>  (51) 
nan

>  <smina_score_min>  (51) 
-5.425

>  <energy_score>  (51) 
-27.362721

>  <Energy>  (51) 
nan

>  <fragmenstein_outcome>  (51) 
nan

>  <alias>  (51) 
None

>  <HIPPO Pose ID>  (51) 
497972

>  <exports>  (51) 
['/opt/xchem-fragalysis-2/maxwin/openbind-hippo/a71ev2a/cycle_01/bulkdock/openbind_a71ev2a_c1_elab_chemspace.sdf', '/opt/xchem-fragalysis-2/maxwin/openbind-hippo/a71ev2a/cycle_01/syndirella/elabs/openbind_a71ev2a_c1_elab_chemspace_filtered.sdf']

>  <HIPPO Compound ID>  (51) 
290308

>  <gnina_score>  (51) 
4.178

$$$$
P497973
     RDKit          3D

 25 28  0  0  0  0  0  0  0  0999 V2000
   25.5926   11.8274   -2.6816 C   0  0  0  0  0  0  0  0  0  0  0  0
   25.1441   13.0034   -2.0186 O   0  0  0  0  0  0  0  0  0  0  0  0
   25.2257   13.0116   -0.6574 C   0  0  0  0  0  0  0  0  0  0  0  0
   25.7889   12.0106    0.1305 C   0  0  0  0  0  0  0  0  0  0  0  0
   25.6507   12.0618    1.5150 C   0  0  0  0  0  0  0  0  0  0  0  0
   24.8296   13.0266    2.0963 C   0  0  0  0  0  0  0  0  0  0  0  0
   24.2290   14.0046    1.2908 C   0  0  0  0  0  0  0  0  0  0  0  0
   24.5976   14.1024   -0.0591 C   0  0  0  0  0  0  0  0  0  0  0  0
   24.1415   15.2968   -0.8777 C   0  0  0  0  0  0  0  0  0  0  0  0
   23.8032   16.4960    0.0154 C   0  0  0  0  0  0  0  0  0  0  0  0
   22.8264   16.1569    1.1354 C   0  0  0  0  0  0  0  0  0  0  0  0
   22.8955   14.6948    1.6078 C   0  0  2  0  0  0  0  0  0  0  0  0
   22.6154   14.7199    2.9953 O   0  0  0  0  0  0  0  0  0  0  0  0
   21.8660   13.7968    0.8348 C   0  0  0  0  0  0  0  0  0  0  0  0
   20.4521   13.9242    1.0295 N   0  0  0  0  0  0  0  0  0  0  0  0
   19.2911   12.9864    0.6125 C   0  0  0  0  0  0  0  0  0  0  0  0
   19.3133   11.9315    0.1158 O   0  0  0  0  0  0  0  0  0  0  0  0
   17.9743   13.6821    0.9172 C   0  0  2  0  0  0  0  0  0  0  0  0
   17.8855   14.2457    2.3411 C   0  0  0  0  0  0  0  0  0  0  0  0
   16.6606   13.5442    2.8992 C   0  0  1  0  0  0  0  0  0  0  0  0
   15.3532   14.0130    2.2741 C   0  0  0  0  0  0  0  0  0  0  0  0
   15.5245   13.3405    0.9428 C   0  0  0  0  0  0  0  0  0  0  0  0
   14.6976   13.3823    0.0447 O   0  0  0  0  0  0  0  0  0  0  0  0
   16.8543   12.6337    0.9095 C   0  0  2  0  0  0  0  0  0  0  0  0
   16.8030   12.2379    2.3159 O   0  0  0  0  0  0  0  0  0  0  0  0
  1  2  1  0
  2  3  1  0
  3  4  2  0
  4  5  1  0
  5  6  2  0
  6  7  1  0
  7  8  2  0
  8  9  1  0
  9 10  1  0
 10 11  1  0
 11 12  1  0
 12 13  1  1
 12 14  1  0
 14 15  1  0
 15 16  1  0
 16 17  2  0
 18 16  1  1
 18 19  1  0
 20 19  1  6
 20 21  1  0
 21 22  1  0
 22 23  2  0
 24 22  1  1
 24 25  1  0
  8  3  1  0
 24 18  1  0
 12  7  1  0
 25 20  1  0
M  END
>  <distance_score>  (52) 
1.873206

>  <smiles>  (52) 
COc1cccc2c1CCC[C@@]2(O)CNC(=O)[C@@H]1C[C@H]2CC(=O)[C@@H]1O2

>  <fragmenstein_error>  (52) 
nan

>  <fragmenstein_runtime>  (52) 
nan

>  <gnina_score_min>  (52) 
4.327

>  <orig_smiles>  (52) 
nan

>  <fragmenstein_mode>  (52) 
nan

>  <rmsd(smina/fragmenstein)>  (52) 
2.259

>  <inspiration_score>  (52) 
None

>  <name>  (52) 
P497973

>  <ref_pdb>  (52) 
A0239a

>  <ref_mols>  (52) 
A0239a,A0608a

>  <subsites>  (52) 
None

>  <tags>  (52) 
openbind_a71ev2a_c1_elabs_filtered,openbind_a71ev2a_c1_elab_chemspace_filtered_scored

>  <inchikey>  (52) 
BEJWVWCCEKMBLR-MIYAWITISA-N

>  <scratch_subdir>  (52) 
nan

>  <smina_score_min>  (52) 
-4.877

>  <energy_score>  (52) 
-3.412752

>  <Energy>  (52) 
nan

>  <fragmenstein_outcome>  (52) 
nan

>  <alias>  (52) 
None

>  <HIPPO Pose ID>  (52) 
497973

>  <exports>  (52) 
['/opt/xchem-fragalysis-2/maxwin/openbind-hippo/a71ev2a/cycle_01/bulkdock/openbind_a71ev2a_c1_elab_chemspace.sdf', '/opt/xchem-fragalysis-2/maxwin/openbind-hippo/a71ev2a/cycle_01/syndirella/elabs/openbind_a71ev2a_c1_elab_chemspace_filtered.sdf']

>  <HIPPO Compound ID>  (52) 
290311

>  <gnina_score>  (52) 
4.284

$$$$
P497975
     RDKit          3D

 25 27  0  0  0  0  0  0  0  0999 V2000
   24.0626   11.1210   -2.4977 C   0  0  0  0  0  0  0  0  0  0  0  0
   23.7492   12.3754   -1.9049 O   0  0  0  0  0  0  0  0  0  0  0  0
   24.2197   12.6073   -0.6435 C   0  0  0  0  0  0  0  0  0  0  0  0
   25.0175   11.7339    0.0901 C   0  0  0  0  0  0  0  0  0  0  0  0
   25.3612   12.0444    1.4017 C   0  0  0  0  0  0  0  0  0  0  0  0
   24.8591   13.1987    1.9974 C   0  0  0  0  0  0  0  0  0  0  0  0
   24.0657   14.1037    1.2646 C   0  0  0  0  0  0  0  0  0  0  0  0
   23.8331   13.8397   -0.0944 C   0  0  0  0  0  0  0  0  0  0  0  0
   23.1887   14.8740   -0.9970 C   0  0  0  0  0  0  0  0  0  0  0  0
   23.3310   16.2921   -0.4454 C   0  0  0  0  0  0  0  0  0  0  0  0
   22.7285   16.3043    0.9389 C   0  0  0  0  0  0  0  0  0  0  0  0
   23.5128   15.3752    1.9035 C   0  0  2  0  0  0  0  0  0  0  0  0
   24.6359   16.1777    2.3175 O   0  0  0  0  0  0  0  0  0  0  0  0
   22.6375   15.0700    3.1567 C   0  0  0  0  0  0  0  0  0  0  0  0
   21.2170   15.3293    2.9746 N   0  0  0  0  0  0  0  0  0  0  0  0
   20.0241   14.3545    2.8814 C   0  0  0  0  0  0  0  0  0  0  0  0
   19.9825   13.1980    3.0125 O   0  0  0  0  0  0  0  0  0  0  0  0
   18.7931   15.1622    2.4966 C   0  0  0  0  0  0  0  0  0  0  0  0
   17.9696   14.3785    1.4726 C   0  0  0  0  0  0  0  0  0  0  0  0
   17.1710   13.2155    2.0818 C   0  0  2  0  0  0  0  0  0  0  0  0
   17.3977   11.9012    1.3518 C   0  0  0  0  0  0  0  0  0  0  0  0
   16.5410   12.0473    0.1171 C   0  0  0  0  0  0  0  0  0  0  0  0
   15.4233   12.9846    0.5625 C   0  0  1  0  0  0  0  0  0  0  0  0
   14.0635   12.3178    0.6102 C   0  0  0  0  0  0  0  0  0  0  0  0
   15.7645   13.4712    1.8785 O   0  0  0  0  0  0  0  0  0  0  0  0
  1  2  1  0
  2  3  1  0
  3  4  2  0
  4  5  1  0
  5  6  2  0
  6  7  1  0
  7  8  2  0
  8  9  1  0
  9 10  1  0
 10 11  1  0
 11 12  1  0
 12 13  1  1
 12 14  1  0
 14 15  1  0
 15 16  1  0
 16 17  2  0
 16 18  1  0
 18 19  1  0
 20 19  1  6
 20 21  1  0
 21 22  1  0
 22 23  1  0
 23 24  1  1
 23 25  1  0
  8  3  1  0
 25 20  1  0
 12  7  1  0
M  END
>  <distance_score>  (53) 
1.618711

>  <smiles>  (53) 
COc1cccc2c1CCC[C@@]2(O)CNC(=O)CC[C@@H]1CC[C@@H](C)O1

>  <fragmenstein_error>  (53) 
nan

>  <fragmenstein_runtime>  (53) 
nan

>  <gnina_score_min>  (53) 
4.304

>  <orig_smiles>  (53) 
nan

>  <fragmenstein_mode>  (53) 
nan

>  <rmsd(smina/fragmenstein)>  (53) 
1.746

>  <inspiration_score>  (53) 
None

>  <name>  (53) 
P497975

>  <ref_pdb>  (53) 
A0239a

>  <ref_mols>  (53) 
A0239a,A0608a

>  <subsites>  (53) 
None

>  <tags>  (53) 
openbind_a71ev2a_c1_elabs_filtered,openbind_a71ev2a_c1_elab_chemspace_filtered_scored

>  <inchikey>  (53) 
CWXFLDWVNQHFAK-QEEYODRMSA-N

>  <scratch_subdir>  (53) 
nan

>  <smina_score_min>  (53) 
-5.216

>  <energy_score>  (53) 
-28.631216

>  <Energy>  (53) 
nan

>  <fragmenstein_outcome>  (53) 
nan

>  <alias>  (53) 
None

>  <HIPPO Pose ID>  (53) 
497975

>  <exports>  (53) 
['/opt/xchem-fragalysis-2/maxwin/openbind-hippo/a71ev2a/cycle_01/bulkdock/openbind_a71ev2a_c1_elab_chemspace.sdf', '/opt/xchem-fragalysis-2/maxwin/openbind-hippo/a71ev2a/cycle_01/syndirella/elabs/openbind_a71ev2a_c1_elab_chemspace_filtered.sdf']

>  <HIPPO Compound ID>  (53) 
290312

>  <gnina_score>  (53) 
4.102

$$$$
P497978
     RDKit          3D

 25 28  0  0  0  0  0  0  0  0999 V2000
   13.8137   17.4099    4.2649 C   0  0  0  0  0  0  0  0  0  0  0  0
   15.1073   16.8674    4.0348 O   0  0  0  0  0  0  0  0  0  0  0  0
   15.1739   15.7160    3.3016 C   0  0  0  0  0  0  0  0  0  0  0  0
   14.0970   14.9544    2.8717 C   0  0  0  0  0  0  0  0  0  0  0  0
   14.3151   13.7869    2.1388 C   0  0  0  0  0  0  0  0  0  0  0  0
   15.6152   13.3681    1.8151 C   0  0  0  0  0  0  0  0  0  0  0  0
   16.7212   14.1194    2.2522 C   0  0  0  0  0  0  0  0  0  0  0  0
   16.4670   15.3060    2.9737 C   0  0  0  0  0  0  0  0  0  0  0  0
   18.1539   13.7490    1.8539 C   0  0  1  0  0  0  0  0  0  0  0  0
   18.4775   14.7075    0.8381 O   0  0  0  0  0  0  0  0  0  0  0  0
   19.1228   13.9046    3.0658 C   0  0  0  0  0  0  0  0  0  0  0  0
   20.5510   13.9744    2.8291 N   0  0  0  0  0  0  0  0  0  0  0  0
   21.3532   13.9617    1.5032 C   0  0  0  0  0  0  0  0  0  0  0  0
   20.9926   13.8156    0.4031 O   0  0  0  0  0  0  0  0  0  0  0  0
   22.8042   14.3007    1.8827 C   0  0  1  0  0  0  0  0  0  0  0  0
   23.7701   14.1907    0.6863 C   0  0  0  0  0  0  0  0  0  0  0  0
   24.1368   15.6705    0.4373 C   0  0  1  0  0  0  0  0  0  0  0  0
   24.6874   15.9694   -0.9357 C   0  0  0  0  0  0  0  0  0  0  0  0
   22.8988   16.4521    0.8531 C   0  0  0  0  0  0  0  0  0  0  0  0
   22.8889   15.8085    2.2324 C   0  0  2  0  0  0  0  0  0  0  0  0
   24.3111   16.1380    2.6801 C   0  0  0  0  0  0  0  0  0  0  0  0
   25.0852   16.0402    1.4650 O   0  0  0  0  0  0  0  0  0  0  0  0
   18.2429   12.3219    1.2703 C   0  0  0  0  0  0  0  0  0  0  0  0
   17.1155   12.0426    0.2848 C   0  0  0  0  0  0  0  0  0  0  0  0
   15.7760   12.1095    1.0012 C   0  0  0  0  0  0  0  0  0  0  0  0
  1  2  1  0
  2  3  1  0
  3  4  2  0
  4  5  1  0
  5  6  2  0
  6  7  1  0
  7  8  2  0
  7  9  1  0
  9 10  1  6
  9 11  1  0
 11 12  1  0
 12 13  1  0
 13 14  2  0
 15 13  1  6
 15 16  1  0
 16 17  1  0
 17 18  1  6
 17 19  1  0
 19 20  1  0
 20 21  1  6
 21 22  1  0
  9 23  1  0
 23 24  1  0
 24 25  1  0
  8  3  1  0
 20 15  1  0
 25  6  1  0
 22 17  1  0
M  END
>  <distance_score>  (54) 
1.478359

>  <smiles>  (54) 
COc1ccc2c(c1)[C@@](O)(CNC(=O)[C@H]1C[C@@]3(C)C[C@@H]1CO3)CCC2

>  <fragmenstein_error>  (54) 
nan

>  <fragmenstein_runtime>  (54) 
nan

>  <gnina_score_min>  (54) 
4.143

>  <orig_smiles>  (54) 
nan

>  <fragmenstein_mode>  (54) 
nan

>  <rmsd(smina/fragmenstein)>  (54) 
1.307

>  <inspiration_score>  (54) 
None

>  <name>  (54) 
P497978

>  <ref_pdb>  (54) 
A0239a

>  <ref_mols>  (54) 
A0239a,A0608a

>  <subsites>  (54) 
None

>  <tags>  (54) 
openbind_a71ev2a_c1_elabs_filtered,openbind_a71ev2a_c1_elab_chemspace_filtered_scored

>  <inchikey>  (54) 
DWDKQKXNLLSXFO-NVRFMJDISA-N

>  <scratch_subdir>  (54) 
nan

>  <smina_score_min>  (54) 
-4.653

>  <energy_score>  (54) 
-23.763616

>  <Energy>  (54) 
nan

>  <fragmenstein_outcome>  (54) 
nan

>  <alias>  (54) 
None

>  <HIPPO Pose ID>  (54) 
497978

>  <exports>  (54) 
['/opt/xchem-fragalysis-2/maxwin/openbind-hippo/a71ev2a/cycle_01/bulkdock/openbind_a71ev2a_c1_elab_chemspace.sdf', '/opt/xchem-fragalysis-2/maxwin/openbind-hippo/a71ev2a/cycle_01/syndirella/elabs/openbind_a71ev2a_c1_elab_chemspace_filtered.sdf']

>  <HIPPO Compound ID>  (54) 
290313

>  <gnina_score>  (54) 
3.982

$$$$
P497981
     RDKit          3D

 25 28  0  0  0  0  0  0  0  0999 V2000
   23.9448   11.3512   -2.4968 C   0  0  0  0  0  0  0  0  0  0  0  0
   23.6147   12.5879   -1.8749 O   0  0  0  0  0  0  0  0  0  0  0  0
   24.0633   12.7845   -0.6000 C   0  0  0  0  0  0  0  0  0  0  0  0
   24.8683   11.8983    0.1124 C   0  0  0  0  0  0  0  0  0  0  0  0
   25.1770   12.1591    1.4434 C   0  0  0  0  0  0  0  0  0  0  0  0
   24.6310   13.2727    2.0778 C   0  0  0  0  0  0  0  0  0  0  0  0
   23.8482   14.1989    1.3618 C   0  0  0  0  0  0  0  0  0  0  0  0
   23.6392   13.9840   -0.0075 C   0  0  0  0  0  0  0  0  0  0  0  0
   22.9662   15.0510   -0.8436 C   0  0  0  0  0  0  0  0  0  0  0  0
   23.2721   16.4426   -0.2917 C   0  0  0  0  0  0  0  0  0  0  0  0
   22.7555   16.5711    1.1249 C   0  0  0  0  0  0  0  0  0  0  0  0
   23.1892   15.3966    2.0422 C   0  0  2  0  0  0  0  0  0  0  0  0
   24.1369   15.9830    2.9418 O   0  0  0  0  0  0  0  0  0  0  0  0
   21.9401   14.9326    2.8400 C   0  0  0  0  0  0  0  0  0  0  0  0
   20.7970   14.4827    2.0519 N   0  0  0  0  0  0  0  0  0  0  0  0
   19.6121   13.5757    2.4354 C   0  0  0  0  0  0  0  0  0  0  0  0
   19.3217   13.1083    3.4600 O   0  0  0  0  0  0  0  0  0  0  0  0
   18.7791   13.3421    1.1759 C   0  0  1  0  0  0  0  0  0  0  0  0
   17.8446   12.1073    1.2223 C   0  0  0  0  0  0  0  0  0  0  0  0
   16.4759   12.7138    0.9227 C   0  0  2  0  0  0  0  0  0  0  0  0
   15.4596   11.7067    0.4658 C   0  0  0  0  0  0  0  0  0  0  0  0
   16.8195   13.8293   -0.0462 C   0  0  0  0  0  0  0  0  0  0  0  0
   17.7773   14.4821    0.9406 C   0  0  1  0  0  0  0  0  0  0  0  0
   16.8340   14.6255    2.1401 C   0  0  0  0  0  0  0  0  0  0  0  0
   16.0383   13.4189    2.1072 O   0  0  0  0  0  0  0  0  0  0  0  0
  1  2  1  0
  2  3  1  0
  3  4  2  0
  4  5  1  0
  5  6  2  0
  6  7  1  0
  7  8  2  0
  8  9  1  0
  9 10  1  0
 10 11  1  0
 11 12  1  0
 12 13  1  1
 12 14  1  0
 14 15  1  0
 15 16  1  0
 16 17  2  0
 18 16  1  1
 18 19  1  0
 19 20  1  0
 20 21  1  6
 20 22  1  0
 22 23  1  0
 23 24  1  1
 24 25  1  0
  8  3  1  0
 23 18  1  0
 12  7  1  0
 25 20  1  0
M  END
>  <distance_score>  (55) 
1.96554

>  <smiles>  (55) 
COc1cccc2c1CCC[C@@]2(O)CNC(=O)[C@H]1C[C@]2(C)C[C@H]1CO2

>  <fragmenstein_error>  (55) 
nan

>  <fragmenstein_runtime>  (55) 
nan

>  <gnina_score_min>  (55) 
4.463

>  <orig_smiles>  (55) 
nan

>  <fragmenstein_mode>  (55) 
nan

>  <rmsd(smina/fragmenstein)>  (55) 
1.238

>  <inspiration_score>  (55) 
None

>  <name>  (55) 
P497981

>  <ref_pdb>  (55) 
A0239a

>  <ref_mols>  (55) 
A0239a,A0608a

>  <subsites>  (55) 
None

>  <tags>  (55) 
openbind_a71ev2a_c1_elabs_filtered,openbind_a71ev2a_c1_elab_chemspace_filtered_scored

>  <inchikey>  (55) 
OWLKIOWVSAFHRJ-OASIQESESA-N

>  <scratch_subdir>  (55) 
nan

>  <smina_score_min>  (55) 
-5.388

>  <energy_score>  (55) 
-33.210045

>  <Energy>  (55) 
nan

>  <fragmenstein_outcome>  (55) 
nan

>  <alias>  (55) 
None

>  <HIPPO Pose ID>  (55) 
497981

>  <exports>  (55) 
['/opt/xchem-fragalysis-2/maxwin/openbind-hippo/a71ev2a/cycle_01/bulkdock/openbind_a71ev2a_c1_elab_chemspace.sdf', '/opt/xchem-fragalysis-2/maxwin/openbind-hippo/a71ev2a/cycle_01/syndirella/elabs/openbind_a71ev2a_c1_elab_chemspace_filtered.sdf']

>  <HIPPO Compound ID>  (55) 
290314

>  <gnina_score>  (55) 
4.283

$$$$
P497982
     RDKit          3D

 25 28  0  0  0  0  0  0  0  0999 V2000
   23.7427   11.1178   -2.5260 C   0  0  0  0  0  0  0  0  0  0  0  0
   23.2791   12.2420   -1.7880 O   0  0  0  0  0  0  0  0  0  0  0  0
   23.9152   12.5304   -0.6138 C   0  0  0  0  0  0  0  0  0  0  0  0
   24.9754   11.7985   -0.0776 C   0  0  0  0  0  0  0  0  0  0  0  0
   25.4928   12.1335    1.1701 C   0  0  0  0  0  0  0  0  0  0  0  0
   24.9499   13.1992    1.8828 C   0  0  0  0  0  0  0  0  0  0  0  0
   23.9196   13.9838    1.3294 C   0  0  0  0  0  0  0  0  0  0  0  0
   23.4097   13.6496    0.0669 C   0  0  0  0  0  0  0  0  0  0  0  0
   22.2482   14.4313   -0.5039 C   0  0  0  0  0  0  0  0  0  0  0  0
   22.2335   15.9252   -0.1715 C   0  0  0  0  0  0  0  0  0  0  0  0
   22.9406   16.3145    1.1118 C   0  0  0  0  0  0  0  0  0  0  0  0
   23.3012   15.1620    2.0598 C   0  0  2  0  0  0  0  0  0  0  0  0
   24.2950   15.7602    2.9143 O   0  0  0  0  0  0  0  0  0  0  0  0
   22.1151   14.7237    2.9576 C   0  0  0  0  0  0  0  0  0  0  0  0
   20.7455   14.6973    2.4544 N   0  0  0  0  0  0  0  0  0  0  0  0
   19.5118   13.8832    2.9314 C   0  0  0  0  0  0  0  0  0  0  0  0
   19.4233   13.0544    3.7483 O   0  0  0  0  0  0  0  0  0  0  0  0
   18.2329   14.3431    2.1483 C   0  0  2  0  0  0  0  0  0  0  0  0
   18.1169   15.8732    2.1322 C   0  0  0  0  0  0  0  0  0  0  0  0
   16.9186   13.7219    2.7402 C   0  0  0  0  0  0  0  0  0  0  0  0
   16.4506   12.7812    1.6342 C   0  0  1  0  0  0  0  0  0  0  0  0
   15.8704   13.5959    0.4880 C   0  0  0  0  0  0  0  0  0  0  0  0
   17.1329   14.1805   -0.1452 C   0  0  0  0  0  0  0  0  0  0  0  0
   18.2383   13.6614    0.7708 C   0  0  2  0  0  0  0  0  0  0  0  0
   17.7031   12.3463    1.0752 O   0  0  0  0  0  0  0  0  0  0  0  0
  1  2  1  0
  2  3  1  0
  3  4  2  0
  4  5  1  0
  5  6  2  0
  6  7  1  0
  7  8  2  0
  8  9  1  0
  9 10  1  0
 10 11  1  0
 11 12  1  0
 12 13  1  1
 12 14  1  0
 14 15  1  0
 15 16  1  0
 16 17  2  0
 16 18  1  0
 18 19  1  6
 18 20  1  0
 21 20  1  1
 21 22  1  0
 22 23  1  0
 24 23  1  6
 24 25  1  0
  8  3  1  0
 24 18  1  0
 12  7  1  0
 25 21  1  0
M  END
>  <distance_score>  (56) 
1.981763

>  <smiles>  (56) 
COc1cccc2c1CCC[C@@]2(O)CNC(=O)[C@]1(C)C[C@H]2CC[C@@H]1O2

>  <fragmenstein_error>  (56) 
nan

>  <fragmenstein_runtime>  (56) 
nan

>  <gnina_score_min>  (56) 
4.356

>  <orig_smiles>  (56) 
nan

>  <fragmenstein_mode>  (56) 
nan

>  <rmsd(smina/fragmenstein)>  (56) 
1.638

>  <inspiration_score>  (56) 
None

>  <name>  (56) 
P497982

>  <ref_pdb>  (56) 
A0239a

>  <ref_mols>  (56) 
A0239a,A0608a

>  <subsites>  (56) 
None

>  <tags>  (56) 
openbind_a71ev2a_c1_elabs_filtered,openbind_a71ev2a_c1_elab_chemspace_filtered_scored

>  <inchikey>  (56) 
RSKWVPWGPQJTOD-ISJOWMGUSA-N

>  <scratch_subdir>  (56) 
nan

>  <smina_score_min>  (56) 
-5.386

>  <energy_score>  (56) 
-12.091218

>  <Energy>  (56) 
nan

>  <fragmenstein_outcome>  (56) 
nan

>  <alias>  (56) 
None

>  <HIPPO Pose ID>  (56) 
497982

>  <exports>  (56) 
['/opt/xchem-fragalysis-2/maxwin/openbind-hippo/a71ev2a/cycle_01/bulkdock/openbind_a71ev2a_c1_elab_chemspace.sdf', '/opt/xchem-fragalysis-2/maxwin/openbind-hippo/a71ev2a/cycle_01/syndirella/elabs/openbind_a71ev2a_c1_elab_chemspace_filtered.sdf']

>  <HIPPO Compound ID>  (56) 
290315

>  <gnina_score>  (56) 
4.136

$$$$
P497986
     RDKit          3D

 25 28  0  0  0  0  0  0  0  0999 V2000
   16.5197    9.4006   -2.5004 C   0  0  0  0  0  0  0  0  0  0  0  0
   17.8025    9.6994   -1.9532 O   0  0  0  0  0  0  0  0  0  0  0  0
   17.8152   10.6667   -0.9887 C   0  0  0  0  0  0  0  0  0  0  0  0
   19.0401   11.2775   -0.7653 C   0  0  0  0  0  0  0  0  0  0  0  0
   19.1635   12.3067    0.1761 C   0  0  0  0  0  0  0  0  0  0  0  0
   18.0666   12.7667    0.9193 C   0  0  0  0  0  0  0  0  0  0  0  0
   16.8230   12.1394    0.6774 C   0  0  0  0  0  0  0  0  0  0  0  0
   16.7192   11.0758   -0.2405 C   0  0  0  0  0  0  0  0  0  0  0  0
   15.5579   12.5523    1.3822 C   0  0  0  0  0  0  0  0  0  0  0  0
   15.6258   13.9602    1.9408 C   0  0  0  0  0  0  0  0  0  0  0  0
   16.9115   14.1219    2.7342 C   0  0  0  0  0  0  0  0  0  0  0  0
   18.1728   13.9859    1.8377 C   0  0  2  0  0  0  0  0  0  0  0  0
   18.1673   15.1637    1.0178 O   0  0  0  0  0  0  0  0  0  0  0  0
   19.3682   14.0625    2.8403 C   0  0  0  0  0  0  0  0  0  0  0  0
   20.7358   14.2209    2.3837 N   0  0  0  0  0  0  0  0  0  0  0  0
   21.2964   14.8471    1.0792 C   0  0  0  0  0  0  0  0  0  0  0  0
   20.7405   15.2607    0.1393 O   0  0  0  0  0  0  0  0  0  0  0  0
   22.8390   14.9309    1.2220 C   0  0  1  0  0  0  0  0  0  0  0  0
   23.4843   13.5365    1.3238 C   0  0  0  0  0  0  0  0  0  0  0  0
   23.4837   15.7123    0.0394 C   0  0  0  0  0  0  0  0  0  0  0  0
   24.0698   16.9382    0.7397 C   0  0  1  0  0  0  0  0  0  0  0  0
   22.9671   17.8747    1.2301 C   0  0  0  0  0  0  0  0  0  0  0  0
   22.4524   17.1401    2.4645 C   0  0  0  0  0  0  0  0  0  0  0  0
   23.2438   15.8320    2.4108 C   0  0  2  0  0  0  0  0  0  0  0  0
   24.5281   16.3449    1.9741 O   0  0  0  0  0  0  0  0  0  0  0  0
  1  2  1  0
  2  3  1  0
  3  4  2  0
  4  5  1  0
  5  6  2  0
  6  7  1  0
  7  8  2  0
  7  9  1  0
  9 10  1  0
 10 11  1  0
 11 12  1  0
 12 13  1  6
 12 14  1  0
 14 15  1  0
 15 16  1  0
 16 17  2  0
 16 18  1  0
 18 19  1  1
 18 20  1  0
 21 20  1  6
 21 22  1  0
 22 23  1  0
 24 23  1  6
 24 25  1  0
  8  3  1  0
 24 18  1  0
 12  6  1  0
 25 21  1  0
M  END
>  <distance_score>  (57) 
1.372729

>  <smiles>  (57) 
COc1ccc2c(c1)CCC[C@@]2(O)CNC(=O)[C@@]1(C)C[C@H]2CC[C@@H]1O2

>  <fragmenstein_error>  (57) 
nan

>  <fragmenstein_runtime>  (57) 
nan

>  <gnina_score_min>  (57) 
3.933

>  <orig_smiles>  (57) 
nan

>  <fragmenstein_mode>  (57) 
nan

>  <rmsd(smina/fragmenstein)>  (57) 
0.726

>  <inspiration_score>  (57) 
None

>  <name>  (57) 
P497986

>  <ref_pdb>  (57) 
A0239a

>  <ref_mols>  (57) 
A0239a,A0608a

>  <subsites>  (57) 
None

>  <tags>  (57) 
openbind_a71ev2a_c1_elabs_filtered,openbind_a71ev2a_c1_elab_chemspace_filtered_scored

>  <inchikey>  (57) 
CVXUSMXTXWMCFG-DJABAAGCSA-N

>  <scratch_subdir>  (57) 
nan

>  <smina_score_min>  (57) 
-4.107

>  <energy_score>  (57) 
-26.123856

>  <Energy>  (57) 
nan

>  <fragmenstein_outcome>  (57) 
nan

>  <alias>  (57) 
None

>  <HIPPO Pose ID>  (57) 
497986

>  <exports>  (57) 
['/opt/xchem-fragalysis-2/maxwin/openbind-hippo/a71ev2a/cycle_01/bulkdock/openbind_a71ev2a_c1_elab_chemspace.sdf', '/opt/xchem-fragalysis-2/maxwin/openbind-hippo/a71ev2a/cycle_01/syndirella/elabs/openbind_a71ev2a_c1_elab_chemspace_filtered.sdf']

>  <HIPPO Compound ID>  (57) 
290316

>  <gnina_score>  (57) 
3.956

$$$$
P497989
     RDKit          3D

 25 28  0  0  0  0  0  0  0  0999 V2000
   16.8070    9.5064   -2.8348 C   0  0  0  0  0  0  0  0  0  0  0  0
   18.0332    9.7897   -2.1628 O   0  0  0  0  0  0  0  0  0  0  0  0
   17.9405   10.7246   -1.1711 C   0  0  0  0  0  0  0  0  0  0  0  0
   19.0969   11.4468   -0.9124 C   0  0  0  0  0  0  0  0  0  0  0  0
   19.0965   12.4650    0.0455 C   0  0  0  0  0  0  0  0  0  0  0  0
   17.9401   12.7851    0.7782 C   0  0  0  0  0  0  0  0  0  0  0  0
   16.7738   12.0365    0.5137 C   0  0  0  0  0  0  0  0  0  0  0  0
   16.7959   10.9920   -0.4289 C   0  0  0  0  0  0  0  0  0  0  0  0
   15.4760   12.2982    1.2301 C   0  0  0  0  0  0  0  0  0  0  0  0
   15.3737   13.7204    1.7539 C   0  0  0  0  0  0  0  0  0  0  0  0
   16.6166   14.0509    2.5621 C   0  0  0  0  0  0  0  0  0  0  0  0
   17.8970   14.0061    1.6988 C   0  0  2  0  0  0  0  0  0  0  0  0
   17.8691   15.1783    0.8556 O   0  0  0  0  0  0  0  0  0  0  0  0
   19.0703   14.1853    2.6900 C   0  0  0  0  0  0  0  0  0  0  0  0
   20.3423   14.4846    2.0893 N   0  0  0  0  0  0  0  0  0  0  0  0
   21.7731   14.3047    2.6335 C   0  0  0  0  0  0  0  0  0  0  0  0
   22.1479   13.8163    3.6190 O   0  0  0  0  0  0  0  0  0  0  0  0
   22.7183   14.8792    1.5817 C   0  0  2  0  0  0  0  0  0  0  0  0
   24.1912   14.4740    1.8122 C   0  0  0  0  0  0  0  0  0  0  0  0
   24.8412   15.8394    2.1061 C   0  0  2  0  0  0  0  0  0  0  0  0
   26.1953   15.7716    2.7683 C   0  0  0  0  0  0  0  0  0  0  0  0
   23.7595   16.6059    2.8530 C   0  0  0  0  0  0  0  0  0  0  0  0
   22.7577   16.4129    1.7293 C   0  0  1  0  0  0  0  0  0  0  0  0
   23.5668   16.9827    0.5711 C   0  0  0  0  0  0  0  0  0  0  0  0
   24.9123   16.5454    0.8405 O   0  0  0  0  0  0  0  0  0  0  0  0
  1  2  1  0
  2  3  1  0
  3  4  2  0
  4  5  1  0
  5  6  2  0
  6  7  1  0
  7  8  2  0
  7  9  1  0
  9 10  1  0
 10 11  1  0
 11 12  1  0
 12 13  1  6
 12 14  1  0
 14 15  1  0
 15 16  1  0
 16 17  2  0
 18 16  1  1
 18 19  1  0
 19 20  1  0
 20 21  1  1
 20 22  1  0
 22 23  1  0
 23 24  1  6
 24 25  1  0
  8  3  1  0
 23 18  1  0
 12  6  1  0
 25 20  1  0
M  END
>  <distance_score>  (58) 
1.776537

>  <smiles>  (58) 
COc1ccc2c(c1)CCC[C@@]2(O)CNC(=O)[C@@H]1C[C@]2(C)C[C@H]1CO2

>  <fragmenstein_error>  (58) 
nan

>  <fragmenstein_runtime>  (58) 
nan

>  <gnina_score_min>  (58) 
3.943

>  <orig_smiles>  (58) 
nan

>  <fragmenstein_mode>  (58) 
nan

>  <rmsd(smina/fragmenstein)>  (58) 
1.028

>  <inspiration_score>  (58) 
None

>  <name>  (58) 
P497989

>  <ref_pdb>  (58) 
A0239a

>  <ref_mols>  (58) 
A0239a,A0608a

>  <subsites>  (58) 
None

>  <tags>  (58) 
openbind_a71ev2a_c1_elabs_filtered,openbind_a71ev2a_c1_elab_chemspace_filtered_scored

>  <inchikey>  (58) 
AQPVHQZSSDZUJW-SOHDHNSJSA-N

>  <scratch_subdir>  (58) 
nan

>  <smina_score_min>  (58) 
-4.512

>  <energy_score>  (58) 
-33.025837

>  <Energy>  (58) 
nan

>  <fragmenstein_outcome>  (58) 
nan

>  <alias>  (58) 
None

>  <HIPPO Pose ID>  (58) 
497989

>  <exports>  (58) 
['/opt/xchem-fragalysis-2/maxwin/openbind-hippo/a71ev2a/cycle_01/bulkdock/openbind_a71ev2a_c1_elab_chemspace.sdf', '/opt/xchem-fragalysis-2/maxwin/openbind-hippo/a71ev2a/cycle_01/syndirella/elabs/openbind_a71ev2a_c1_elab_chemspace_filtered.sdf']

>  <HIPPO Compound ID>  (58) 
290317

>  <gnina_score>  (58) 
4.144

$$$$
P497995
     RDKit          3D

 25 29  0  0  0  0  0  0  0  0999 V2000
   23.0331   11.2744   -2.1464 C   0  0  0  0  0  0  0  0  0  0  0  0
   23.7289   12.5123   -1.9985 O   0  0  0  0  0  0  0  0  0  0  0  0
   24.1207   12.7192   -0.7065 C   0  0  0  0  0  0  0  0  0  0  0  0
   24.9752   11.8352   -0.0511 C   0  0  0  0  0  0  0  0  0  0  0  0
   25.3015   12.0615    1.2792 C   0  0  0  0  0  0  0  0  0  0  0  0
   24.7261   13.1370    1.9542 C   0  0  0  0  0  0  0  0  0  0  0  0
   23.8831   14.0507    1.2828 C   0  0  0  0  0  0  0  0  0  0  0  0
   23.6634   13.8829   -0.0852 C   0  0  0  0  0  0  0  0  0  0  0  0
   22.9187   14.9316   -0.8728 C   0  0  0  0  0  0  0  0  0  0  0  0
   23.1126   16.3210   -0.2628 C   0  0  0  0  0  0  0  0  0  0  0  0
   22.5588   16.3152    1.1447 C   0  0  0  0  0  0  0  0  0  0  0  0
   23.1897   15.1945    2.0111 C   0  0  2  0  0  0  0  0  0  0  0  0
   24.1995   15.8857    2.7718 O   0  0  0  0  0  0  0  0  0  0  0  0
   22.1213   14.6291    2.9845 C   0  0  0  0  0  0  0  0  0  0  0  0
   20.7367   14.5298    2.5239 N   0  0  0  0  0  0  0  0  0  0  0  0
   20.1131   13.6867    1.3775 C   0  0  0  0  0  0  0  0  0  0  0  0
   20.5965   12.8870    0.6783 O   0  0  0  0  0  0  0  0  0  0  0  0
   18.6104   14.0274    1.2715 C   0  0  2  0  0  0  0  0  0  0  0  0
   17.8643   14.1647    2.6150 C   0  0  0  0  0  0  0  0  0  0  0  0
   16.8123   13.0717    2.5230 C   0  0  2  0  0  0  0  0  0  0  0  0
   17.5765   12.0561    1.8460 O   0  0  0  0  0  0  0  0  0  0  0  0
   17.8490   12.8276    0.6462 C   0  0  1  0  0  0  0  0  0  0  0  0
   16.4331   13.1735    0.2142 C   0  0  2  0  0  0  0  0  0  0  0  0
   15.6744   14.4403    0.5059 C   0  0  0  0  0  0  0  0  0  0  0  0
   15.7169   13.3430    1.5281 C   0  0  2  0  0  0  0  0  0  0  0  0
  1  2  1  0
  2  3  1  0
  3  4  2  0
  4  5  1  0
  5  6  2  0
  6  7  1  0
  7  8  2  0
  8  9  1  0
  9 10  1  0
 10 11  1  0
 11 12  1  0
 12 13  1  1
 12 14  1  0
 14 15  1  0
 15 16  1  0
 16 17  2  0
 18 16  1  1
 18 19  1  0
 20 19  1  6
 20 21  1  0
 22 21  1  1
 22 23  1  0
 23 24  1  1
 25 24  1  1
  8  3  1  0
 22 18  1  0
 25 23  1  0
 12  7  1  0
 25 20  1  0
M  END
>  <distance_score>  (59) 
1.646868

>  <smiles>  (59) 
COc1cccc2c1CCC[C@@]2(O)CNC(=O)[C@@H]1C[C@@H]2O[C@H]1[C@@H]1C[C@@H]12

>  <fragmenstein_error>  (59) 
nan

>  <fragmenstein_runtime>  (59) 
nan

>  <gnina_score_min>  (59) 
4.308

>  <orig_smiles>  (59) 
nan

>  <fragmenstein_mode>  (59) 
nan

>  <rmsd(smina/fragmenstein)>  (59) 
0.892

>  <inspiration_score>  (59) 
None

>  <name>  (59) 
P497995

>  <ref_pdb>  (59) 
A0239a

>  <ref_mols>  (59) 
A0239a,A0608a

>  <subsites>  (59) 
None

>  <tags>  (59) 
openbind_a71ev2a_c1_elabs_filtered,openbind_a71ev2a_c1_elab_chemspace_filtered_scored

>  <inchikey>  (59) 
FATFTICFJCSELI-RAWWCVKGSA-N

>  <scratch_subdir>  (59) 
nan

>  <smina_score_min>  (59) 
-4.617

>  <energy_score>  (59) 
-14.470152

>  <Energy>  (59) 
nan

>  <fragmenstein_outcome>  (59) 
nan

>  <alias>  (59) 
None

>  <HIPPO Pose ID>  (59) 
497995

>  <exports>  (59) 
['/opt/xchem-fragalysis-2/maxwin/openbind-hippo/a71ev2a/cycle_01/bulkdock/openbind_a71ev2a_c1_elab_chemspace.sdf', '/opt/xchem-fragalysis-2/maxwin/openbind-hippo/a71ev2a/cycle_01/syndirella/elabs/openbind_a71ev2a_c1_elab_chemspace_filtered.sdf']

>  <HIPPO Compound ID>  (59) 
290318

>  <gnina_score>  (59) 
4.319

$$$$
P498001
     RDKit          3D

 25 28  0  0  0  0  0  0  0  0999 V2000
   23.7425   11.2143   -2.4456 C   0  0  0  0  0  0  0  0  0  0  0  0
   23.4173   12.4394   -1.8011 O   0  0  0  0  0  0  0  0  0  0  0  0
   23.9618   12.6692   -0.5677 C   0  0  0  0  0  0  0  0  0  0  0  0
   24.8361   11.8062    0.0902 C   0  0  0  0  0  0  0  0  0  0  0  0
   25.2874   12.1166    1.3678 C   0  0  0  0  0  0  0  0  0  0  0  0
   24.8561   13.2842    1.9903 C   0  0  0  0  0  0  0  0  0  0  0  0
   24.0210   14.2008    1.3173 C   0  0  0  0  0  0  0  0  0  0  0  0
   23.5838   13.8923    0.0204 C   0  0  0  0  0  0  0  0  0  0  0  0
   22.8119   14.8832   -0.8311 C   0  0  0  0  0  0  0  0  0  0  0  0
   22.3299   16.1598   -0.1508 C   0  0  0  0  0  0  0  0  0  0  0  0
   23.2595   16.6108    0.9488 C   0  0  0  0  0  0  0  0  0  0  0  0
   23.6098   15.5118    1.9660 C   0  0  2  0  0  0  0  0  0  0  0  0
   24.7515   16.0682    2.6462 O   0  0  0  0  0  0  0  0  0  0  0  0
   22.5016   15.3237    3.0345 C   0  0  0  0  0  0  0  0  0  0  0  0
   21.1259   15.1406    2.6034 N   0  0  0  0  0  0  0  0  0  0  0  0
   20.0763   14.1230    3.0416 C   0  0  0  0  0  0  0  0  0  0  0  0
   20.1609   13.2177    3.7614 O   0  0  0  0  0  0  0  0  0  0  0  0
   18.7545   14.3293    2.3882 C   0  0  1  0  0  0  0  0  0  0  0  0
   18.5466   14.6760    0.9375 C   0  0  0  0  0  0  0  0  0  0  0  0
   18.3686   13.2511    1.3809 C   0  0  2  0  0  0  0  0  0  0  0  0
   17.0592   12.5428    1.3707 C   0  0  1  0  0  0  0  0  0  0  0  0
   15.8528   13.2971    1.9091 C   0  0  0  0  0  0  0  0  0  0  0  0
   14.7233   12.7123    1.0977 C   0  0  0  0  0  0  0  0  0  0  0  0
   15.3807   12.5312   -0.2472 C   0  0  0  0  0  0  0  0  0  0  0  0
   16.7497   12.2072    0.0084 O   0  0  0  0  0  0  0  0  0  0  0  0
  1  2  1  0
  2  3  1  0
  3  4  2  0
  4  5  1  0
  5  6  2  0
  6  7  1  0
  7  8  2  0
  8  9  1  0
  9 10  1  0
 10 11  1  0
 11 12  1  0
 12 13  1  1
 12 14  1  0
 14 15  1  0
 15 16  1  0
 16 17  2  0
 18 16  1  6
 18 19  1  0
 20 19  1  6
 20 21  1  0
 21 22  1  6
 22 23  1  0
 23 24  1  0
 24 25  1  0
  8  3  1  0
 20 18  1  0
 25 21  1  0
 12  7  1  0
M  END
>  <distance_score>  (60) 
1.668046

>  <smiles>  (60) 
COc1cccc2c1CCC[C@@]2(O)CNC(=O)[C@H]1C[C@@H]1[C@H]1CCCO1

>  <fragmenstein_error>  (60) 
nan

>  <fragmenstein_runtime>  (60) 
nan

>  <gnina_score_min>  (60) 
4.175

>  <orig_smiles>  (60) 
nan

>  <fragmenstein_mode>  (60) 
nan

>  <rmsd(smina/fragmenstein)>  (60) 
2.171

>  <inspiration_score>  (60) 
None

>  <name>  (60) 
P498001

>  <ref_pdb>  (60) 
A0239a

>  <ref_mols>  (60) 
A0239a,A0608a

>  <subsites>  (60) 
None

>  <tags>  (60) 
openbind_a71ev2a_c1_elabs_filtered,openbind_a71ev2a_c1_elab_chemspace_filtered_scored

>  <inchikey>  (60) 
XQACNZMBNVIWFW-AIUZKBQUSA-N

>  <scratch_subdir>  (60) 
nan

>  <smina_score_min>  (60) 
-5.207

>  <energy_score>  (60) 
-31.112004

>  <Energy>  (60) 
nan

>  <fragmenstein_outcome>  (60) 
nan

>  <alias>  (60) 
None

>  <HIPPO Pose ID>  (60) 
498001

>  <exports>  (60) 
['/opt/xchem-fragalysis-2/maxwin/openbind-hippo/a71ev2a/cycle_01/bulkdock/openbind_a71ev2a_c1_elab_chemspace.sdf', '/opt/xchem-fragalysis-2/maxwin/openbind-hippo/a71ev2a/cycle_01/syndirella/elabs/openbind_a71ev2a_c1_elab_chemspace_filtered.sdf']

>  <HIPPO Compound ID>  (60) 
290322

>  <gnina_score>  (60) 
4.369

$$$$
P498008
     RDKit          3D

 25 28  0  0  0  0  0  0  0  0999 V2000
   23.4900   11.1830   -2.4098 C   0  0  0  0  0  0  0  0  0  0  0  0
   23.0319   12.1922   -1.5176 O   0  0  0  0  0  0  0  0  0  0  0  0
   23.8489   12.5129   -0.4691 C   0  0  0  0  0  0  0  0  0  0  0  0
   24.9517   11.7627   -0.0608 C   0  0  0  0  0  0  0  0  0  0  0  0
   25.6809   12.1468    1.0612 C   0  0  0  0  0  0  0  0  0  0  0  0
   25.3115   13.2829    1.7780 C   0  0  0  0  0  0  0  0  0  0  0  0
   24.2250   14.0730    1.3611 C   0  0  0  0  0  0  0  0  0  0  0  0
   23.4970   13.6835    0.2221 C   0  0  0  0  0  0  0  0  0  0  0  0
   22.3070   14.5034   -0.2229 C   0  0  0  0  0  0  0  0  0  0  0  0
   22.4522   16.0159   -0.0287 C   0  0  0  0  0  0  0  0  0  0  0  0
   23.4166   16.4365    1.0673 C   0  0  0  0  0  0  0  0  0  0  0  0
   23.7993   15.3435    2.0791 C   0  0  2  0  0  0  0  0  0  0  0  0
   24.9358   15.9162    2.7472 O   0  0  0  0  0  0  0  0  0  0  0  0
   22.6827   15.0884    3.1258 C   0  0  0  0  0  0  0  0  0  0  0  0
   21.2991   15.2062    2.6999 N   0  0  0  0  0  0  0  0  0  0  0  0
   20.1134   14.2289    2.8606 C   0  0  0  0  0  0  0  0  0  0  0  0
   20.0441   13.2131    3.4259 O   0  0  0  0  0  0  0  0  0  0  0  0
   18.9182   14.8242    2.1244 C   0  0  0  0  0  0  0  0  0  0  0  0
   17.6423   14.0674    2.4949 C   0  0  1  0  0  0  0  0  0  0  0  0
   16.3471   14.7815    2.0941 C   0  0  0  0  0  0  0  0  0  0  0  0
   15.4940   13.6270    1.5633 C   0  0  1  0  0  0  0  0  0  0  0  0
   15.9198   13.2633    0.1480 C   0  0  0  0  0  0  0  0  0  0  0  0
   17.2881   12.6281    0.3842 C   0  0  0  0  0  0  0  0  0  0  0  0
   17.4115   12.6694    1.9046 C   0  0  2  0  0  0  0  0  0  0  0  0
   16.0162   12.5002    2.3003 O   0  0  0  0  0  0  0  0  0  0  0  0
  1  2  1  0
  2  3  1  0
  3  4  2  0
  4  5  1  0
  5  6  2  0
  6  7  1  0
  7  8  2  0
  8  9  1  0
  9 10  1  0
 10 11  1  0
 11 12  1  0
 12 13  1  1
 12 14  1  0
 14 15  1  0
 15 16  1  0
 16 17  2  0
 16 18  1  0
 19 18  1  6
 19 20  1  0
 21 20  1  1
 21 22  1  0
 22 23  1  0
 24 23  1  6
 24 25  1  0
  8  3  1  0
 24 19  1  0
 12  7  1  0
 25 21  1  0
M  END
>  <distance_score>  (61) 
1.578552

>  <smiles>  (61) 
COc1cccc2c1CCC[C@@]2(O)CNC(=O)C[C@H]1C[C@H]2CC[C@@H]1O2

>  <fragmenstein_error>  (61) 
nan

>  <fragmenstein_runtime>  (61) 
nan

>  <gnina_score_min>  (61) 
4.378

>  <orig_smiles>  (61) 
nan

>  <fragmenstein_mode>  (61) 
nan

>  <rmsd(smina/fragmenstein)>  (61) 
1.648

>  <inspiration_score>  (61) 
None

>  <name>  (61) 
P498008

>  <ref_pdb>  (61) 
A0239a

>  <ref_mols>  (61) 
A0239a,A0608a

>  <subsites>  (61) 
None

>  <tags>  (61) 
openbind_a71ev2a_c1_elabs_filtered,openbind_a71ev2a_c1_elab_chemspace_filtered_scored

>  <inchikey>  (61) 
MKLGAKUOJMDVGW-MJPMAJQWSA-N

>  <scratch_subdir>  (61) 
nan

>  <smina_score_min>  (61) 
-5.03

>  <energy_score>  (61) 
-17.4647

>  <Energy>  (61) 
nan

>  <fragmenstein_outcome>  (61) 
nan

>  <alias>  (61) 
None

>  <HIPPO Pose ID>  (61) 
498008

>  <exports>  (61) 
['/opt/xchem-fragalysis-2/maxwin/openbind-hippo/a71ev2a/cycle_01/bulkdock/openbind_a71ev2a_c1_elab_chemspace.sdf', '/opt/xchem-fragalysis-2/maxwin/openbind-hippo/a71ev2a/cycle_01/syndirella/elabs/openbind_a71ev2a_c1_elab_chemspace_filtered.sdf']

>  <HIPPO Compound ID>  (61) 
290323

>  <gnina_score>  (61) 
4.272

$$$$
P498011
     RDKit          3D

 25 28  0  0  0  0  0  0  0  0999 V2000
   24.1281   10.7733   -2.1648 C   0  0  0  0  0  0  0  0  0  0  0  0
   24.5838   10.9560   -0.8303 O   0  0  0  0  0  0  0  0  0  0  0  0
   24.4343   12.1770   -0.2615 C   0  0  0  0  0  0  0  0  0  0  0  0
   24.7281   12.2473    1.0984 C   0  0  0  0  0  0  0  0  0  0  0  0
   24.5408   13.4272    1.8028 C   0  0  0  0  0  0  0  0  0  0  0  0
   24.0708   14.5696    1.1383 C   0  0  0  0  0  0  0  0  0  0  0  0
   23.8289   14.5060   -0.2470 C   0  0  0  0  0  0  0  0  0  0  0  0
   24.0236   13.3092   -0.9384 C   0  0  0  0  0  0  0  0  0  0  0  0
   23.3643   15.7107   -1.0319 C   0  0  0  0  0  0  0  0  0  0  0  0
   22.6130   16.7231   -0.1751 C   0  0  0  0  0  0  0  0  0  0  0  0
   23.4456   17.0711    1.0407 C   0  0  0  0  0  0  0  0  0  0  0  0
   23.7904   15.8486    1.9153 C   0  0  2  0  0  0  0  0  0  0  0  0
   24.9929   16.2433    2.5933 O   0  0  0  0  0  0  0  0  0  0  0  0
   22.7055   15.6481    3.0040 C   0  0  0  0  0  0  0  0  0  0  0  0
   21.3275   15.5722    2.5575 N   0  0  0  0  0  0  0  0  0  0  0  0
   20.2756   14.4561    2.7368 C   0  0  0  0  0  0  0  0  0  0  0  0
   20.3746   13.3939    3.2031 O   0  0  0  0  0  0  0  0  0  0  0  0
   18.9529   14.9896    2.2087 C   0  0  0  0  0  0  0  0  0  0  0  0
   17.8843   13.8784    2.2089 C   0  0  1  0  0  0  0  0  0  0  0  0
   16.4745   14.4697    2.0674 C   0  0  0  0  0  0  0  0  0  0  0  0
   15.9905   13.8366    0.7676 C   0  0  2  0  0  0  0  0  0  0  0  0
   15.6966   12.3530    0.9612 C   0  0  0  0  0  0  0  0  0  0  0  0
   17.1005   11.7599    1.0541 C   0  0  0  0  0  0  0  0  0  0  0  0
   17.9846   12.9995    0.9489 C   0  0  1  0  0  0  0  0  0  0  0  0
   17.2194   13.7951    0.0068 O   0  0  0  0  0  0  0  0  0  0  0  0
  1  2  1  0
  2  3  1  0
  3  4  2  0
  4  5  1  0
  5  6  2  0
  6  7  1  0
  7  8  2  0
  7  9  1  0
  9 10  1  0
 10 11  1  0
 11 12  1  0
 12 13  1  1
 12 14  1  0
 14 15  1  0
 15 16  1  0
 16 17  2  0
 16 18  1  0
 19 18  1  6
 19 20  1  0
 21 20  1  1
 21 22  1  0
 22 23  1  0
 24 23  1  1
 24 25  1  0
  8  3  1  0
 24 19  1  0
 12  6  1  0
 25 21  1  0
M  END
>  <distance_score>  (62) 
1.979201

>  <smiles>  (62) 
COc1ccc2c(c1)CCC[C@@]2(O)CNC(=O)C[C@H]1C[C@@H]2CC[C@H]1O2

>  <fragmenstein_error>  (62) 
nan

>  <fragmenstein_runtime>  (62) 
nan

>  <gnina_score_min>  (62) 
4.209

>  <orig_smiles>  (62) 
nan

>  <fragmenstein_mode>  (62) 
nan

>  <rmsd(smina/fragmenstein)>  (62) 
1.829

>  <inspiration_score>  (62) 
None

>  <name>  (62) 
P498011

>  <ref_pdb>  (62) 
A0239a

>  <ref_mols>  (62) 
A0239a,A0608a

>  <subsites>  (62) 
None

>  <tags>  (62) 
openbind_a71ev2a_c1_elabs_filtered,openbind_a71ev2a_c1_elab_chemspace_filtered_scored

>  <inchikey>  (62) 
WFBQCOHLNNBJIV-IHMNZUQTSA-N

>  <scratch_subdir>  (62) 
nan

>  <smina_score_min>  (62) 
-4.692

>  <energy_score>  (62) 
-20.379026

>  <Energy>  (62) 
nan

>  <fragmenstein_outcome>  (62) 
nan

>  <alias>  (62) 
None

>  <HIPPO Pose ID>  (62) 
498011

>  <exports>  (62) 
['/opt/xchem-fragalysis-2/maxwin/openbind-hippo/a71ev2a/cycle_01/bulkdock/openbind_a71ev2a_c1_elab_chemspace.sdf', '/opt/xchem-fragalysis-2/maxwin/openbind-hippo/a71ev2a/cycle_01/syndirella/elabs/openbind_a71ev2a_c1_elab_chemspace_filtered.sdf']

>  <HIPPO Compound ID>  (62) 
290324

>  <gnina_score>  (62) 
4.131

$$$$
P498013
     RDKit          3D

 25 28  0  0  0  0  0  0  0  0999 V2000
   15.2726    9.5681   -1.5597 C   0  0  0  0  0  0  0  0  0  0  0  0
   15.4149   10.6143   -0.6072 O   0  0  0  0  0  0  0  0  0  0  0  0
   16.6740   11.1200   -0.3995 C   0  0  0  0  0  0  0  0  0  0  0  0
   17.8190   10.6675   -1.0491 C   0  0  0  0  0  0  0  0  0  0  0  0
   19.0442   11.2651   -0.7830 C   0  0  0  0  0  0  0  0  0  0  0  0
   19.1394   12.3007    0.1497 C   0  0  0  0  0  0  0  0  0  0  0  0
   18.0171   12.7764    0.8432 C   0  0  0  0  0  0  0  0  0  0  0  0
   16.7637   12.1818    0.5353 C   0  0  0  0  0  0  0  0  0  0  0  0
   15.4862   12.6300    1.2108 C   0  0  0  0  0  0  0  0  0  0  0  0
   15.5831   13.9799    1.8955 C   0  0  0  0  0  0  0  0  0  0  0  0
   16.8656   14.0563    2.7032 C   0  0  0  0  0  0  0  0  0  0  0  0
   18.1171   13.9725    1.7932 C   0  0  2  0  0  0  0  0  0  0  0  0
   18.0865   15.1744    1.0093 O   0  0  0  0  0  0  0  0  0  0  0  0
   19.3265   14.0461    2.7814 C   0  0  0  0  0  0  0  0  0  0  0  0
   20.6828   14.2249    2.2942 N   0  0  0  0  0  0  0  0  0  0  0  0
   21.2123   14.9486    1.0222 C   0  0  0  0  0  0  0  0  0  0  0  0
   20.6320   15.4426    0.1353 O   0  0  0  0  0  0  0  0  0  0  0  0
   22.7566   15.0300    1.1415 C   0  0  1  0  0  0  0  0  0  0  0  0
   23.4116   13.3604    1.2502 Cl  0  0  0  0  0  0  0  0  0  0  0  0
   23.4281   15.7865   -0.0244 C   0  0  0  0  0  0  0  0  0  0  0  0
   24.0283   16.9973    0.6915 C   0  0  1  0  0  0  0  0  0  0  0  0
   22.9392   17.9381    1.2081 C   0  0  0  0  0  0  0  0  0  0  0  0
   22.4343   17.1948    2.4432 C   0  0  0  0  0  0  0  0  0  0  0  0
   23.2017   15.8749    2.3522 C   0  0  2  0  0  0  0  0  0  0  0  0
   24.4894   16.3839    1.9137 O   0  0  0  0  0  0  0  0  0  0  0  0
  1  2  1  0
  2  3  1  0
  3  4  2  0
  4  5  1  0
  5  6  2  0
  6  7  1  0
  7  8  2  0
  8  9  1  0
  9 10  1  0
 10 11  1  0
 11 12  1  0
 12 13  1  6
 12 14  1  0
 14 15  1  0
 15 16  1  0
 16 17  2  0
 16 18  1  0
 18 19  1  1
 18 20  1  0
 21 20  1  6
 21 22  1  0
 22 23  1  0
 24 23  1  6
 24 25  1  0
  8  3  1  0
 24 18  1  0
 12  7  1  0
 25 21  1  0
M  END
>  <distance_score>  (63) 
1.49507

>  <smiles>  (63) 
COc1cccc2c1CCC[C@@]2(O)CNC(=O)[C@@]1(Cl)C[C@H]2CC[C@@H]1O2

>  <fragmenstein_error>  (63) 
nan

>  <fragmenstein_runtime>  (63) 
nan

>  <gnina_score_min>  (63) 
4.055

>  <orig_smiles>  (63) 
nan

>  <fragmenstein_mode>  (63) 
nan

>  <rmsd(smina/fragmenstein)>  (63) 
1.246

>  <inspiration_score>  (63) 
None

>  <name>  (63) 
P498013

>  <ref_pdb>  (63) 
A0239a

>  <ref_mols>  (63) 
A0239a,A0608a

>  <subsites>  (63) 
None

>  <tags>  (63) 
openbind_a71ev2a_c1_elabs_filtered,openbind_a71ev2a_c1_elab_chemspace_filtered_scored

>  <inchikey>  (63) 
YOQRBUNELOEMKK-YDISMWLMSA-N

>  <scratch_subdir>  (63) 
nan

>  <smina_score_min>  (63) 
-4.123

>  <energy_score>  (63) 
-19.466097

>  <Energy>  (63) 
nan

>  <fragmenstein_outcome>  (63) 
nan

>  <alias>  (63) 
None

>  <HIPPO Pose ID>  (63) 
498013

>  <exports>  (63) 
['/opt/xchem-fragalysis-2/maxwin/openbind-hippo/a71ev2a/cycle_01/bulkdock/openbind_a71ev2a_c1_elab_chemspace.sdf', '/opt/xchem-fragalysis-2/maxwin/openbind-hippo/a71ev2a/cycle_01/syndirella/elabs/openbind_a71ev2a_c1_elab_chemspace_filtered.sdf']

>  <HIPPO Compound ID>  (63) 
290326

>  <gnina_score>  (63) 
4.141

$$$$
P498017
     RDKit          3D

 25 28  0  0  0  0  0  0  0  0999 V2000
   16.6927    9.4890   -2.6390 C   0  0  0  0  0  0  0  0  0  0  0  0
   17.9588    9.7707   -2.0458 O   0  0  0  0  0  0  0  0  0  0  0  0
   17.9389   10.7195   -1.0631 C   0  0  0  0  0  0  0  0  0  0  0  0
   19.1372   11.3802   -0.8382 C   0  0  0  0  0  0  0  0  0  0  0  0
   19.2213   12.3963    0.1207 C   0  0  0  0  0  0  0  0  0  0  0  0
   18.1112   12.7872    0.8853 C   0  0  0  0  0  0  0  0  0  0  0  0
   16.8954   12.1077    0.6435 C   0  0  0  0  0  0  0  0  0  0  0  0
   16.8321   11.0600   -0.2962 C   0  0  0  0  0  0  0  0  0  0  0  0
   15.6218   12.4447    1.3734 C   0  0  0  0  0  0  0  0  0  0  0  0
   15.6325   13.8397    1.9694 C   0  0  0  0  0  0  0  0  0  0  0  0
   16.9209   14.0430    2.7499 C   0  0  0  0  0  0  0  0  0  0  0  0
   18.1716   13.9863    1.8324 C   0  0  2  0  0  0  0  0  0  0  0  0
   18.0938   15.1809    1.0398 O   0  0  0  0  0  0  0  0  0  0  0  0
   19.3840   14.0986    2.8114 C   0  0  0  0  0  0  0  0  0  0  0  0
   20.7317   14.2681    2.3054 N   0  0  0  0  0  0  0  0  0  0  0  0
   21.2524   15.0367    1.0582 C   0  0  0  0  0  0  0  0  0  0  0  0
   20.6668   15.5844    0.2076 O   0  0  0  0  0  0  0  0  0  0  0  0
   22.7992   15.0756    1.1501 C   0  0  1  0  0  0  0  0  0  0  0  0
   23.4177   13.3900    1.2265 Cl  0  0  0  0  0  0  0  0  0  0  0  0
   23.4678   15.8348   -0.0150 C   0  0  0  0  0  0  0  0  0  0  0  0
   24.0933   17.0279    0.7082 C   0  0  1  0  0  0  0  0  0  0  0  0
   23.0249   17.9750    1.2562 C   0  0  0  0  0  0  0  0  0  0  0  0
   22.5347   17.2234    2.4923 C   0  0  0  0  0  0  0  0  0  0  0  0
   23.2786   15.8929    2.3666 C   0  0  2  0  0  0  0  0  0  0  0  0
   24.5660   16.3897    1.9135 O   0  0  0  0  0  0  0  0  0  0  0  0
  1  2  1  0
  2  3  1  0
  3  4  2  0
  4  5  1  0
  5  6  2  0
  6  7  1  0
  7  8  2  0
  7  9  1  0
  9 10  1  0
 10 11  1  0
 11 12  1  0
 12 13  1  6
 12 14  1  0
 14 15  1  0
 15 16  1  0
 16 17  2  0
 16 18  1  0
 18 19  1  1
 18 20  1  0
 21 20  1  6
 21 22  1  0
 22 23  1  0
 24 23  1  6
 24 25  1  0
  8  3  1  0
 24 18  1  0
 12  6  1  0
 25 21  1  0
M  END
>  <distance_score>  (64) 
1.545652

>  <smiles>  (64) 
COc1ccc2c(c1)CCC[C@@]2(O)CNC(=O)[C@@]1(Cl)C[C@H]2CC[C@@H]1O2

>  <fragmenstein_error>  (64) 
nan

>  <fragmenstein_runtime>  (64) 
nan

>  <gnina_score_min>  (64) 
4.012

>  <orig_smiles>  (64) 
nan

>  <fragmenstein_mode>  (64) 
nan

>  <rmsd(smina/fragmenstein)>  (64) 
0.833

>  <inspiration_score>  (64) 
None

>  <name>  (64) 
P498017

>  <ref_pdb>  (64) 
A0239a

>  <ref_mols>  (64) 
A0239a,A0608a

>  <subsites>  (64) 
None

>  <tags>  (64) 
openbind_a71ev2a_c1_elabs_filtered,openbind_a71ev2a_c1_elab_chemspace_filtered_scored

>  <inchikey>  (64) 
BTQAGCPDPVVRDC-IWKCEXAMSA-N

>  <scratch_subdir>  (64) 
nan

>  <smina_score_min>  (64) 
-4.109

>  <energy_score>  (64) 
-20.648066

>  <Energy>  (64) 
nan

>  <fragmenstein_outcome>  (64) 
nan

>  <alias>  (64) 
None

>  <HIPPO Pose ID>  (64) 
498017

>  <exports>  (64) 
['/opt/xchem-fragalysis-2/maxwin/openbind-hippo/a71ev2a/cycle_01/bulkdock/openbind_a71ev2a_c1_elab_chemspace.sdf', '/opt/xchem-fragalysis-2/maxwin/openbind-hippo/a71ev2a/cycle_01/syndirella/elabs/openbind_a71ev2a_c1_elab_chemspace_filtered.sdf']

>  <HIPPO Compound ID>  (64) 
290327

>  <gnina_score>  (64) 
4.032

$$$$
P498021
     RDKit          3D

 25 28  0  0  0  0  0  0  0  0999 V2000
   22.4267   11.6094   -1.9255 C   0  0  0  0  0  0  0  0  0  0  0  0
   23.4713   12.5792   -2.0067 O   0  0  0  0  0  0  0  0  0  0  0  0
   24.0569   12.7503   -0.7839 C   0  0  0  0  0  0  0  0  0  0  0  0
   24.8929   11.7676   -0.2580 C   0  0  0  0  0  0  0  0  0  0  0  0
   25.4449   11.9458    1.0031 C   0  0  0  0  0  0  0  0  0  0  0  0
   25.1075   13.0763    1.7442 C   0  0  0  0  0  0  0  0  0  0  0  0
   24.2706   14.0804    1.2054 C   0  0  0  0  0  0  0  0  0  0  0  0
   23.8300   13.9542   -0.1147 C   0  0  0  0  0  0  0  0  0  0  0  0
   23.1129   15.0879   -0.8077 C   0  0  0  0  0  0  0  0  0  0  0  0
   23.4806   16.4423   -0.1981 C   0  0  0  0  0  0  0  0  0  0  0  0
   23.1323   16.4375    1.2758 C   0  0  0  0  0  0  0  0  0  0  0  0
   23.8315   15.2752    2.0336 C   0  0  2  0  0  0  0  0  0  0  0  0
   25.0537   15.8449    2.5337 O   0  0  0  0  0  0  0  0  0  0  0  0
   22.9375   14.7868    3.2083 C   0  0  0  0  0  0  0  0  0  0  0  0
   21.5020   14.8430    2.9986 N   0  0  0  0  0  0  0  0  0  0  0  0
   20.6177   14.1558    1.9427 C   0  0  0  0  0  0  0  0  0  0  0  0
   20.8905   13.3751    1.1212 O   0  0  0  0  0  0  0  0  0  0  0  0
   19.1774   14.7552    2.0991 C   0  0  1  0  0  0  0  0  0  0  0  0
   18.1666   14.4615    0.9705 C   0  0  0  0  0  0  0  0  0  0  0  0
   17.4661   13.4418    1.8899 C   0  0  1  0  0  0  0  0  0  0  0  0
   15.9478   13.5201    1.8855 C   0  0  0  0  0  0  0  0  0  0  0  0
   15.5957   12.4944    0.8226 C   0  0  0  0  0  0  0  0  0  0  0  0
   16.6169   11.3941    1.0571 C   0  0  0  0  0  0  0  0  0  0  0  0
   17.7706   12.0569    1.5963 O   0  0  0  0  0  0  0  0  0  0  0  0
   18.2099   14.0654    3.0838 C   0  0  0  0  0  0  0  0  0  0  0  0
  1  2  1  0
  2  3  1  0
  3  4  2  0
  4  5  1  0
  5  6  2  0
  6  7  1  0
  7  8  2  0
  8  9  1  0
  9 10  1  0
 10 11  1  0
 11 12  1  0
 12 13  1  1
 12 14  1  0
 14 15  1  0
 15 16  1  0
 16 17  2  0
 18 16  1  6
 18 19  1  0
 20 19  1  6
 20 21  1  0
 21 22  1  0
 22 23  1  0
 23 24  1  0
 20 25  1  0
  8  3  1  0
 25 18  1  0
 12  7  1  0
 20 24  1  0
M  END
>  <distance_score>  (65) 
1.533197

>  <smiles>  (65) 
COc1cccc2c1CCC[C@@]2(O)CNC(=O)[C@H]1C[C@]2(CCCO2)C1

>  <fragmenstein_error>  (65) 
nan

>  <fragmenstein_runtime>  (65) 
nan

>  <gnina_score_min>  (65) 
4.271

>  <orig_smiles>  (65) 
nan

>  <fragmenstein_mode>  (65) 
nan

>  <rmsd(smina/fragmenstein)>  (65) 
1.739

>  <inspiration_score>  (65) 
None

>  <name>  (65) 
P498021

>  <ref_pdb>  (65) 
A0239a

>  <ref_mols>  (65) 
A0239a,A0608a

>  <subsites>  (65) 
None

>  <tags>  (65) 
openbind_a71ev2a_c1_elabs_filtered,openbind_a71ev2a_c1_elab_chemspace_filtered_scored

>  <inchikey>  (65) 
OEMFQDROCOZPRG-VOBQZIQPSA-N

>  <scratch_subdir>  (65) 
nan

>  <smina_score_min>  (65) 
-5.065

>  <energy_score>  (65) 
-23.183503

>  <Energy>  (65) 
nan

>  <fragmenstein_outcome>  (65) 
nan

>  <alias>  (65) 
None

>  <HIPPO Pose ID>  (65) 
498021

>  <exports>  (65) 
['/opt/xchem-fragalysis-2/maxwin/openbind-hippo/a71ev2a/cycle_01/bulkdock/openbind_a71ev2a_c1_elab_chemspace.sdf', '/opt/xchem-fragalysis-2/maxwin/openbind-hippo/a71ev2a/cycle_01/syndirella/elabs/openbind_a71ev2a_c1_elab_chemspace_filtered.sdf']

>  <HIPPO Compound ID>  (65) 
290328

>  <gnina_score>  (65) 
4.319

$$$$
P498024
     RDKit          3D

 25 29  0  0  0  0  0  0  0  0999 V2000
   23.6008   11.3301   -2.6332 C   0  0  0  0  0  0  0  0  0  0  0  0
   23.5616   12.6357   -2.0693 O   0  0  0  0  0  0  0  0  0  0  0  0
   24.0238   12.7567   -0.7878 C   0  0  0  0  0  0  0  0  0  0  0  0
   24.9056   11.8559   -0.1862 C   0  0  0  0  0  0  0  0  0  0  0  0
   25.2997   12.0481    1.1311 C   0  0  0  0  0  0  0  0  0  0  0  0
   24.7731   13.1124    1.8551 C   0  0  0  0  0  0  0  0  0  0  0  0
   23.8964   14.0431    1.2542 C   0  0  0  0  0  0  0  0  0  0  0  0
   23.5656   13.8926   -0.0966 C   0  0  0  0  0  0  0  0  0  0  0  0
   22.7991   14.9618   -0.8559 C   0  0  0  0  0  0  0  0  0  0  0  0
   22.1165   16.0570   -0.0320 C   0  0  0  0  0  0  0  0  0  0  0  0
   22.8831   16.3947    1.2214 C   0  0  0  0  0  0  0  0  0  0  0  0
   23.2706   15.1662    2.0529 C   0  0  2  0  0  0  0  0  0  0  0  0
   24.3227   15.6579    2.9125 O   0  0  0  0  0  0  0  0  0  0  0  0
   22.1196   14.6204    2.9508 C   0  0  0  0  0  0  0  0  0  0  0  0
   20.7316   14.4806    2.5150 N   0  0  0  0  0  0  0  0  0  0  0  0
   20.1292   13.6981    1.3403 C   0  0  0  0  0  0  0  0  0  0  0  0
   20.6468   13.1030    0.4874 O   0  0  0  0  0  0  0  0  0  0  0  0
   18.6428   13.6423    1.4025 C   0  0  2  0  0  0  0  0  0  0  0  0
   17.6874   14.2730    0.3908 C   0  0  0  0  0  0  0  0  0  0  0  0
   16.4142   13.5377    0.8855 C   0  0  2  0  0  0  0  0  0  0  0  0
   16.4550   13.8642    2.3265 O   0  0  0  0  0  0  0  0  0  0  0  0
   17.8131   13.4064    2.6312 C   0  0  1  0  0  0  0  0  0  0  0  0
   18.0857   12.2725    1.6950 C   0  0  1  0  0  0  0  0  0  0  0  0
   16.8804   12.0548    0.8471 C   0  0  1  0  0  0  0  0  0  0  0  0
   16.0057   11.1716    1.4969 O   0  0  0  0  0  0  0  0  0  0  0  0
  1  2  1  0
  2  3  1  0
  3  4  2  0
  4  5  1  0
  5  6  2  0
  6  7  1  0
  7  8  2  0
  8  9  1  0
  9 10  1  0
 10 11  1  0
 11 12  1  0
 12 13  1  1
 12 14  1  0
 14 15  1  0
 15 16  1  0
 16 17  2  0
 18 16  1  1
 18 19  1  0
 20 19  1  6
 20 21  1  0
 22 21  1  6
 22 23  1  0
 23 24  1  6
 24 25  1  1
  8  3  1  0
 22 18  1  0
 12  7  1  0
 23 18  1  0
 24 20  1  0
M  END
>  <distance_score>  (66) 
1.870404

>  <smiles>  (66) 
COc1cccc2c1CCC[C@@]2(O)CNC(=O)[C@]12C[C@@H]3O[C@H]1[C@H]2[C@H]3O

>  <fragmenstein_error>  (66) 
nan

>  <fragmenstein_runtime>  (66) 
nan

>  <gnina_score_min>  (66) 
4.36

>  <orig_smiles>  (66) 
nan

>  <fragmenstein_mode>  (66) 
nan

>  <rmsd(smina/fragmenstein)>  (66) 
2.294

>  <inspiration_score>  (66) 
None

>  <name>  (66) 
P498024

>  <ref_pdb>  (66) 
A0239a

>  <ref_mols>  (66) 
A0239a,A0608a

>  <subsites>  (66) 
None

>  <tags>  (66) 
openbind_a71ev2a_c1_elabs_filtered,openbind_a71ev2a_c1_elab_chemspace_filtered_scored

>  <inchikey>  (66) 
RHOUYPASWLEMGN-FCXOMPEDSA-N

>  <scratch_subdir>  (66) 
nan

>  <smina_score_min>  (66) 
-6.008

>  <energy_score>  (66) 
-14.606099

>  <Energy>  (66) 
nan

>  <fragmenstein_outcome>  (66) 
nan

>  <alias>  (66) 
None

>  <HIPPO Pose ID>  (66) 
498024

>  <exports>  (66) 
['/opt/xchem-fragalysis-2/maxwin/openbind-hippo/a71ev2a/cycle_01/bulkdock/openbind_a71ev2a_c1_elab_chemspace.sdf', '/opt/xchem-fragalysis-2/maxwin/openbind-hippo/a71ev2a/cycle_01/syndirella/elabs/openbind_a71ev2a_c1_elab_chemspace_filtered.sdf']

>  <HIPPO Compound ID>  (66) 
290330

>  <gnina_score>  (66) 
3.994

$$$$
P498026
     RDKit          3D

 25 28  0  0  0  0  0  0  0  0999 V2000
   23.5219   11.1885   -2.4054 C   0  0  0  0  0  0  0  0  0  0  0  0
   23.0649   12.2157   -1.5338 O   0  0  0  0  0  0  0  0  0  0  0  0
   23.8572   12.5249   -0.4634 C   0  0  0  0  0  0  0  0  0  0  0  0
   24.9402   11.7604   -0.0273 C   0  0  0  0  0  0  0  0  0  0  0  0
   25.6331   12.1225    1.1250 C   0  0  0  0  0  0  0  0  0  0  0  0
   25.2577   13.2608    1.8333 C   0  0  0  0  0  0  0  0  0  0  0  0
   24.2116   14.0805    1.3704 C   0  0  0  0  0  0  0  0  0  0  0  0
   23.5001   13.6981    0.2206 C   0  0  0  0  0  0  0  0  0  0  0  0
   22.3072   14.5122   -0.2273 C   0  0  0  0  0  0  0  0  0  0  0  0
   22.4343   16.0249   -0.0306 C   0  0  0  0  0  0  0  0  0  0  0  0
   23.4221   16.4555    1.0387 C   0  0  0  0  0  0  0  0  0  0  0  0
   23.8224   15.3775    2.0618 C   0  0  2  0  0  0  0  0  0  0  0  0
   24.9786   15.9508    2.6946 O   0  0  0  0  0  0  0  0  0  0  0  0
   22.7499   15.1710    3.1586 C   0  0  0  0  0  0  0  0  0  0  0  0
   21.3577   15.2328    2.7434 N   0  0  0  0  0  0  0  0  0  0  0  0
   20.2024   14.2318    2.9579 C   0  0  0  0  0  0  0  0  0  0  0  0
   20.1671   13.2392    3.5658 O   0  0  0  0  0  0  0  0  0  0  0  0
   18.9945   14.7546    2.1919 C   0  0  0  0  0  0  0  0  0  0  0  0
   17.8230   13.7758    2.3310 C   0  0  2  0  0  0  0  0  0  0  0  0
   17.9500   12.4913    1.4761 C   0  0  0  0  0  0  0  0  0  0  0  0
   16.6066   12.4550    0.7220 C   0  0  2  0  0  0  0  0  0  0  0  0
   16.6483   13.5585   -0.3227 C   0  0  0  0  0  0  0  0  0  0  0  0
   16.6443   14.7746    0.4706 O   0  0  0  0  0  0  0  0  0  0  0  0
   16.4851   14.3376    1.8387 C   0  0  1  0  0  0  0  0  0  0  0  0
   15.6421   13.0817    1.7121 C   0  0  0  0  0  0  0  0  0  0  0  0
  1  2  1  0
  2  3  1  0
  3  4  2  0
  4  5  1  0
  5  6  2  0
  6  7  1  0
  7  8  2  0
  8  9  1  0
  9 10  1  0
 10 11  1  0
 11 12  1  0
 12 13  1  1
 12 14  1  0
 14 15  1  0
 15 16  1  0
 16 17  2  0
 16 18  1  0
 19 18  1  6
 19 20  1  0
 21 20  1  1
 21 22  1  0
 22 23  1  0
 24 23  1  6
 24 25  1  0
  8  3  1  0
 24 19  1  0
 12  7  1  0
 25 21  1  0
M  END
>  <distance_score>  (67) 
1.607203

>  <smiles>  (67) 
COc1cccc2c1CCC[C@@]2(O)CNC(=O)C[C@@H]1C[C@@H]2CO[C@H]1C2

>  <fragmenstein_error>  (67) 
nan

>  <fragmenstein_runtime>  (67) 
nan

>  <gnina_score_min>  (67) 
4.271

>  <orig_smiles>  (67) 
nan

>  <fragmenstein_mode>  (67) 
nan

>  <rmsd(smina/fragmenstein)>  (67) 
1.599

>  <inspiration_score>  (67) 
None

>  <name>  (67) 
P498026

>  <ref_pdb>  (67) 
A0239a

>  <ref_mols>  (67) 
A0239a,A0608a

>  <subsites>  (67) 
None

>  <tags>  (67) 
openbind_a71ev2a_c1_elabs_filtered,openbind_a71ev2a_c1_elab_chemspace_filtered_scored

>  <inchikey>  (67) 
YGLRNBNHUHIRRK-GCYDMZABSA-N

>  <scratch_subdir>  (67) 
nan

>  <smina_score_min>  (67) 
-5.197

>  <energy_score>  (67) 
-17.200615

>  <Energy>  (67) 
nan

>  <fragmenstein_outcome>  (67) 
nan

>  <alias>  (67) 
None

>  <HIPPO Pose ID>  (67) 
498026

>  <exports>  (67) 
['/opt/xchem-fragalysis-2/maxwin/openbind-hippo/a71ev2a/cycle_01/bulkdock/openbind_a71ev2a_c1_elab_chemspace.sdf', '/opt/xchem-fragalysis-2/maxwin/openbind-hippo/a71ev2a/cycle_01/syndirella/elabs/openbind_a71ev2a_c1_elab_chemspace_filtered.sdf']

>  <HIPPO Compound ID>  (67) 
290333

>  <gnina_score>  (67) 
4.331

$$$$
P498028
     RDKit          3D

 26 28  0  0  0  0  0  0  0  0999 V2000
   23.9313   11.1118   -2.4845 C   0  0  0  0  0  0  0  0  0  0  0  0
   23.7174   12.3939   -1.9079 O   0  0  0  0  0  0  0  0  0  0  0  0
   24.2273   12.6131   -0.6595 C   0  0  0  0  0  0  0  0  0  0  0  0
   25.0088   11.7130    0.0590 C   0  0  0  0  0  0  0  0  0  0  0  0
   25.3988   12.0159    1.3597 C   0  0  0  0  0  0  0  0  0  0  0  0
   24.9620   13.1938    1.9599 C   0  0  0  0  0  0  0  0  0  0  0  0
   24.1897   14.1273    1.2407 C   0  0  0  0  0  0  0  0  0  0  0  0
   23.9074   13.8637   -0.1092 C   0  0  0  0  0  0  0  0  0  0  0  0
   23.2786   14.9171   -0.9997 C   0  0  0  0  0  0  0  0  0  0  0  0
   23.5127   16.3314   -0.4705 C   0  0  0  0  0  0  0  0  0  0  0  0
   22.9556   16.3921    0.9310 C   0  0  0  0  0  0  0  0  0  0  0  0
   23.7110   15.4255    1.8852 C   0  0  2  0  0  0  0  0  0  0  0  0
   24.8765   16.1742    2.2789 O   0  0  0  0  0  0  0  0  0  0  0  0
   22.8450   15.1641    3.1531 C   0  0  0  0  0  0  0  0  0  0  0  0
   21.4332   15.4376    2.9579 N   0  0  0  0  0  0  0  0  0  0  0  0
   20.2290   14.4738    2.8556 C   0  0  0  0  0  0  0  0  0  0  0  0
   20.1740   13.3193    2.9886 O   0  0  0  0  0  0  0  0  0  0  0  0
   19.0423   15.3488    2.4920 C   0  0  0  0  0  0  0  0  0  0  0  0
   17.7368   14.5672    2.3613 C   0  0  0  0  0  0  0  0  0  0  0  0
   17.4922   14.1100    0.9258 C   0  0  2  0  0  0  0  0  0  0  0  0
   16.0082   14.0481    0.5661 C   0  0  0  0  0  0  0  0  0  0  0  0
   15.7121   12.5644    0.4824 C   0  0  0  0  0  0  0  0  0  0  0  0
   14.5656   12.2487   -0.4694 C   0  0  0  0  0  0  0  0  0  0  0  0
   15.3696   12.0180    1.8584 C   0  0  0  0  0  0  0  0  0  0  0  0
   17.0546   12.0130    0.0269 C   0  0  0  0  0  0  0  0  0  0  0  0
   18.0337   12.7950    0.7262 O   0  0  0  0  0  0  0  0  0  0  0  0
  1  2  1  0
  2  3  1  0
  3  4  2  0
  4  5  1  0
  5  6  2  0
  6  7  1  0
  7  8  2  0
  8  9  1  0
  9 10  1  0
 10 11  1  0
 11 12  1  0
 12 13  1  1
 12 14  1  0
 14 15  1  0
 15 16  1  0
 16 17  2  0
 16 18  1  0
 18 19  1  0
 20 19  1  1
 20 21  1  0
 21 22  1  0
 22 23  1  0
 22 24  1  0
 22 25  1  0
 25 26  1  0
  8  3  1  0
 26 20  1  0
 12  7  1  0
M  END
>  <distance_score>  (68) 
1.689061

>  <smiles>  (68) 
COc1cccc2c1CCC[C@@]2(O)CNC(=O)CC[C@@H]1CC(C)(C)CO1

>  <fragmenstein_error>  (68) 
nan

>  <fragmenstein_runtime>  (68) 
nan

>  <gnina_score_min>  (68) 
4.511

>  <orig_smiles>  (68) 
nan

>  <fragmenstein_mode>  (68) 
nan

>  <rmsd(smina/fragmenstein)>  (68) 
1.728

>  <inspiration_score>  (68) 
None

>  <name>  (68) 
P498028

>  <ref_pdb>  (68) 
A0239a

>  <ref_mols>  (68) 
A0239a,A0608a

>  <subsites>  (68) 
None

>  <tags>  (68) 
openbind_a71ev2a_c1_elabs_filtered,openbind_a71ev2a_c1_elab_chemspace_filtered_scored

>  <inchikey>  (68) 
SBEVKURZJGBFMV-QVKFZJNVSA-N

>  <scratch_subdir>  (68) 
nan

>  <smina_score_min>  (68) 
-5.329

>  <energy_score>  (68) 
-23.538152

>  <Energy>  (68) 
nan

>  <fragmenstein_outcome>  (68) 
nan

>  <alias>  (68) 
None

>  <HIPPO Pose ID>  (68) 
498028

>  <exports>  (68) 
['/opt/xchem-fragalysis-2/maxwin/openbind-hippo/a71ev2a/cycle_01/bulkdock/openbind_a71ev2a_c1_elab_chemspace.sdf', '/opt/xchem-fragalysis-2/maxwin/openbind-hippo/a71ev2a/cycle_01/syndirella/elabs/openbind_a71ev2a_c1_elab_chemspace_filtered.sdf']

>  <HIPPO Compound ID>  (68) 
290342

>  <gnina_score>  (68) 
4.093

$$$$
P498029
     RDKit          3D

 26 28  0  0  0  0  0  0  0  0999 V2000
   23.7023   11.0913   -2.5426 C   0  0  0  0  0  0  0  0  0  0  0  0
   23.3191   12.2152   -1.7595 O   0  0  0  0  0  0  0  0  0  0  0  0
   24.0494   12.4743   -0.6339 C   0  0  0  0  0  0  0  0  0  0  0  0
   25.1187   11.7036   -0.1757 C   0  0  0  0  0  0  0  0  0  0  0  0
   25.7357   12.0124    1.0344 C   0  0  0  0  0  0  0  0  0  0  0  0
   25.2826   13.0888    1.7916 C   0  0  0  0  0  0  0  0  0  0  0  0
   24.2427   13.9076    1.3165 C   0  0  0  0  0  0  0  0  0  0  0  0
   23.6348   13.6029    0.0879 C   0  0  0  0  0  0  0  0  0  0  0  0
   22.4622   14.4290   -0.3894 C   0  0  0  0  0  0  0  0  0  0  0  0
   22.5615   15.9211   -0.0650 C   0  0  0  0  0  0  0  0  0  0  0  0
   23.2966   16.2568    1.2221 C   0  0  0  0  0  0  0  0  0  0  0  0
   23.6743   15.0646    2.1201 C   0  0  2  0  0  0  0  0  0  0  0  0
   24.6865   15.6217    2.9706 O   0  0  0  0  0  0  0  0  0  0  0  0
   22.5107   14.5595    3.0161 C   0  0  0  0  0  0  0  0  0  0  0  0
   21.1492   14.8002    2.5746 N   0  0  0  0  0  0  0  0  0  0  0  0
   19.8238   14.0904    2.9615 C   0  0  0  0  0  0  0  0  0  0  0  0
   19.6355   13.1551    3.6347 O   0  0  0  0  0  0  0  0  0  0  0  0
   18.6292   14.8897    2.3342 C   0  0  0  0  0  0  0  0  0  0  0  0
   18.8871   16.4095    2.4000 C   0  0  0  0  0  0  0  0  0  0  0  0
   17.3648   14.6429    3.1700 C   0  0  0  0  0  0  0  0  0  0  0  0
   18.4256   14.5115    0.8552 C   0  0  0  0  0  0  0  0  0  0  0  0
   17.6607   13.2595    0.4578 C   0  0  2  0  0  0  0  0  0  0  0  0
   16.1432   13.3177    0.5076 C   0  0  0  0  0  0  0  0  0  0  0  0
   15.8024   11.8565    0.3542 C   0  0  0  0  0  0  0  0  0  0  0  0
   16.9662   11.1534    1.0319 C   0  0  0  0  0  0  0  0  0  0  0  0
   18.0237   12.1095    1.2084 O   0  0  0  0  0  0  0  0  0  0  0  0
  1  2  1  0
  2  3  1  0
  3  4  2  0
  4  5  1  0
  5  6  2  0
  6  7  1  0
  7  8  2  0
  8  9  1  0
  9 10  1  0
 10 11  1  0
 11 12  1  0
 12 13  1  1
 12 14  1  0
 14 15  1  0
 15 16  1  0
 16 17  2  0
 16 18  1  0
 18 19  1  0
 18 20  1  0
 18 21  1  0
 22 21  1  1
 22 23  1  0
 23 24  1  0
 24 25  1  0
 25 26  1  0
  8  3  1  0
 26 22  1  0
 12  7  1  0
M  END
>  <distance_score>  (69) 
1.727352

>  <smiles>  (69) 
COc1cccc2c1CCC[C@@]2(O)CNC(=O)C(C)(C)C[C@@H]1CCCO1

>  <fragmenstein_error>  (69) 
nan

>  <fragmenstein_runtime>  (69) 
nan

>  <gnina_score_min>  (69) 
4.5

>  <orig_smiles>  (69) 
nan

>  <fragmenstein_mode>  (69) 
nan

>  <rmsd(smina/fragmenstein)>  (69) 
1.384

>  <inspiration_score>  (69) 
None

>  <name>  (69) 
P498029

>  <ref_pdb>  (69) 
A0239a

>  <ref_mols>  (69) 
A0239a,A0608a

>  <subsites>  (69) 
None

>  <tags>  (69) 
openbind_a71ev2a_c1_elabs_filtered,openbind_a71ev2a_c1_elab_chemspace_filtered_scored

>  <inchikey>  (69) 
GLULHUMJODQCIV-YCRPNKLZSA-N

>  <scratch_subdir>  (69) 
nan

>  <smina_score_min>  (69) 
-5.563

>  <energy_score>  (69) 
-19.940724

>  <Energy>  (69) 
nan

>  <fragmenstein_outcome>  (69) 
nan

>  <alias>  (69) 
None

>  <HIPPO Pose ID>  (69) 
498029

>  <exports>  (69) 
['/opt/xchem-fragalysis-2/maxwin/openbind-hippo/a71ev2a/cycle_01/bulkdock/openbind_a71ev2a_c1_elab_chemspace.sdf', '/opt/xchem-fragalysis-2/maxwin/openbind-hippo/a71ev2a/cycle_01/syndirella/elabs/openbind_a71ev2a_c1_elab_chemspace_filtered.sdf']

>  <HIPPO Compound ID>  (69) 
290343

>  <gnina_score>  (69) 
4.307

$$$$
P498030
     RDKit          3D

 26 28  0  0  0  0  0  0  0  0999 V2000
   23.6354   10.8085   -2.3060 C   0  0  0  0  0  0  0  0  0  0  0  0
   24.4954   10.9119   -1.1774 O   0  0  0  0  0  0  0  0  0  0  0  0
   24.5101   12.0977   -0.5183 C   0  0  0  0  0  0  0  0  0  0  0  0
   24.9669   12.0519    0.7948 C   0  0  0  0  0  0  0  0  0  0  0  0
   24.9052   13.1790    1.5948 C   0  0  0  0  0  0  0  0  0  0  0  0
   24.3783   14.3726    1.0766 C   0  0  0  0  0  0  0  0  0  0  0  0
   24.0346   14.4452   -0.2820 C   0  0  0  0  0  0  0  0  0  0  0  0
   24.1173   13.3015   -1.0760 C   0  0  0  0  0  0  0  0  0  0  0  0
   23.5314   15.7274   -0.9014 C   0  0  0  0  0  0  0  0  0  0  0  0
   22.7619   16.6104    0.0779 C   0  0  0  0  0  0  0  0  0  0  0  0
   23.5742   16.8302    1.3355 C   0  0  0  0  0  0  0  0  0  0  0  0
   24.0795   15.5340    2.0036 C   0  0  2  0  0  0  0  0  0  0  0  0
   25.3202   15.9347    2.6122 O   0  0  0  0  0  0  0  0  0  0  0  0
   23.1445   15.0872    3.1535 C   0  0  0  0  0  0  0  0  0  0  0  0
   21.7169   14.9990    2.9342 N   0  0  0  0  0  0  0  0  0  0  0  0
   20.9095   14.2576    1.8339 C   0  0  0  0  0  0  0  0  0  0  0  0
   21.2754   13.6700    0.8941 O   0  0  0  0  0  0  0  0  0  0  0  0
   19.3937   14.4246    2.1723 C   0  0  0  0  0  0  0  0  0  0  0  0
   19.0519   15.9160    2.2973 C   0  0  0  0  0  0  0  0  0  0  0  0
   19.0765   13.6896    3.4705 C   0  0  0  0  0  0  0  0  0  0  0  0
   18.5361   13.8222    1.0198 C   0  0  0  0  0  0  0  0  0  0  0  0
   17.0582   13.5936    1.3589 C   0  0  1  0  0  0  0  0  0  0  0  0
   16.1576   13.6310    0.1318 C   0  0  0  0  0  0  0  0  0  0  0  0
   15.1924   12.5015    0.3816 C   0  0  0  0  0  0  0  0  0  0  0  0
   16.0903   11.4968    1.0556 C   0  0  0  0  0  0  0  0  0  0  0  0
   16.9160   12.2759    1.9266 O   0  0  0  0  0  0  0  0  0  0  0  0
  1  2  1  0
  2  3  1  0
  3  4  2  0
  4  5  1  0
  5  6  2  0
  6  7  1  0
  7  8  2  0
  7  9  1  0
  9 10  1  0
 10 11  1  0
 11 12  1  0
 12 13  1  1
 12 14  1  0
 14 15  1  0
 15 16  1  0
 16 17  2  0
 16 18  1  0
 18 19  1  0
 18 20  1  0
 18 21  1  0
 22 21  1  6
 22 23  1  0
 23 24  1  0
 24 25  1  0
 25 26  1  0
  8  3  1  0
 26 22  1  0
 12  6  1  0
M  END
>  <distance_score>  (70) 
1.983284

>  <smiles>  (70) 
COc1ccc2c(c1)CCC[C@@]2(O)CNC(=O)C(C)(C)C[C@H]1CCCO1

>  <fragmenstein_error>  (70) 
nan

>  <fragmenstein_runtime>  (70) 
nan

>  <gnina_score_min>  (70) 
4.617

>  <orig_smiles>  (70) 
nan

>  <fragmenstein_mode>  (70) 
nan

>  <rmsd(smina/fragmenstein)>  (70) 
2.427

>  <inspiration_score>  (70) 
None

>  <name>  (70) 
P498030

>  <ref_pdb>  (70) 
A0239a

>  <ref_mols>  (70) 
A0239a,A0608a

>  <subsites>  (70) 
None

>  <tags>  (70) 
openbind_a71ev2a_c1_elabs_filtered,openbind_a71ev2a_c1_elab_chemspace_filtered_scored

>  <inchikey>  (70) 
YEMGYRBJURATBP-DYESRHJHSA-N

>  <scratch_subdir>  (70) 
nan

>  <smina_score_min>  (70) 
-5.341

>  <energy_score>  (70) 
-23.01349

>  <Energy>  (70) 
nan

>  <fragmenstein_outcome>  (70) 
nan

>  <alias>  (70) 
None

>  <HIPPO Pose ID>  (70) 
498030

>  <exports>  (70) 
['/opt/xchem-fragalysis-2/maxwin/openbind-hippo/a71ev2a/cycle_01/bulkdock/openbind_a71ev2a_c1_elab_chemspace.sdf', '/opt/xchem-fragalysis-2/maxwin/openbind-hippo/a71ev2a/cycle_01/syndirella/elabs/openbind_a71ev2a_c1_elab_chemspace_filtered.sdf']

>  <HIPPO Compound ID>  (70) 
290344

>  <gnina_score>  (70) 
4.459

$$$$
P498032
     RDKit          3D

 26 28  0  0  0  0  0  0  0  0999 V2000
   21.4422   12.4883   -0.9831 C   0  0  0  0  0  0  0  0  0  0  0  0
   22.7721   12.6626   -1.4729 O   0  0  0  0  0  0  0  0  0  0  0  0
   23.6443   12.9159   -0.4531 C   0  0  0  0  0  0  0  0  0  0  0  0
   24.6176   11.9535   -0.1919 C   0  0  0  0  0  0  0  0  0  0  0  0
   25.4693   12.1187    0.8920 C   0  0  0  0  0  0  0  0  0  0  0  0
   25.3278   13.2385    1.7090 C   0  0  0  0  0  0  0  0  0  0  0  0
   24.3818   14.2426    1.4076 C   0  0  0  0  0  0  0  0  0  0  0  0
   23.5664   14.1056    0.2790 C   0  0  0  0  0  0  0  0  0  0  0  0
   22.5824   15.1848   -0.1087 C   0  0  0  0  0  0  0  0  0  0  0  0
   22.9077   16.6092    0.3410 C   0  0  0  0  0  0  0  0  0  0  0  0
   23.9177   16.7227    1.4680 C   0  0  0  0  0  0  0  0  0  0  0  0
   24.1722   15.4525    2.2916 C   0  0  2  0  0  0  0  0  0  0  0  0
   25.4105   15.7177    2.9624 O   0  0  0  0  0  0  0  0  0  0  0  0
   23.0596   15.1707    3.3344 C   0  0  0  0  0  0  0  0  0  0  0  0
   21.6753   15.3236    2.9310 N   0  0  0  0  0  0  0  0  0  0  0  0
   20.4585   14.3637    3.1049 C   0  0  0  0  0  0  0  0  0  0  0  0
   20.3745   13.3417    3.6666 O   0  0  0  0  0  0  0  0  0  0  0  0
   19.2451   15.0355    2.4249 C   0  0  0  0  0  0  0  0  0  0  0  0
   19.6607   16.1357    1.7377 F   0  0  0  0  0  0  0  0  0  0  0  0
   18.3269   15.5118    3.3157 F   0  0  0  0  0  0  0  0  0  0  0  0
   18.5712   14.0888    1.4473 C   0  0  0  0  0  0  0  0  0  0  0  0
   17.6149   13.1278    2.1371 C   0  0  1  0  0  0  0  0  0  0  0  0
   16.1588   13.5734    2.0676 C   0  0  0  0  0  0  0  0  0  0  0  0
   15.6447   12.8658    0.8380 C   0  0  0  0  0  0  0  0  0  0  0  0
   16.4040   11.5609    0.8917 C   0  0  0  0  0  0  0  0  0  0  0  0
   17.6943   11.8751    1.4295 O   0  0  0  0  0  0  0  0  0  0  0  0
  1  2  1  0
  2  3  1  0
  3  4  2  0
  4  5  1  0
  5  6  2  0
  6  7  1  0
  7  8  2  0
  8  9  1  0
  9 10  1  0
 10 11  1  0
 11 12  1  0
 12 13  1  1
 12 14  1  0
 14 15  1  0
 15 16  1  0
 16 17  2  0
 16 18  1  0
 18 19  1  0
 18 20  1  0
 18 21  1  0
 22 21  1  6
 22 23  1  0
 23 24  1  0
 24 25  1  0
 25 26  1  0
  8  3  1  0
 26 22  1  0
 12  7  1  0
M  END
>  <distance_score>  (71) 
1.72702

>  <smiles>  (71) 
COc1cccc2c1CCC[C@@]2(O)CNC(=O)C(F)(F)C[C@H]1CCCO1

>  <fragmenstein_error>  (71) 
nan

>  <fragmenstein_runtime>  (71) 
nan

>  <gnina_score_min>  (71) 
4.208

>  <orig_smiles>  (71) 
nan

>  <fragmenstein_mode>  (71) 
nan

>  <rmsd(smina/fragmenstein)>  (71) 
0.962

>  <inspiration_score>  (71) 
None

>  <name>  (71) 
P498032

>  <ref_pdb>  (71) 
A0239a

>  <ref_mols>  (71) 
A0239a,A0608a

>  <subsites>  (71) 
None

>  <tags>  (71) 
openbind_a71ev2a_c1_elabs_filtered,openbind_a71ev2a_c1_elab_chemspace_filtered_scored

>  <inchikey>  (71) 
WOEGQARVFOHCTM-FZKQIMNGSA-N

>  <scratch_subdir>  (71) 
nan

>  <smina_score_min>  (71) 
-4.308

>  <energy_score>  (71) 
-20.169065

>  <Energy>  (71) 
nan

>  <fragmenstein_outcome>  (71) 
nan

>  <alias>  (71) 
None

>  <HIPPO Pose ID>  (71) 
498032

>  <exports>  (71) 
['/opt/xchem-fragalysis-2/maxwin/openbind-hippo/a71ev2a/cycle_01/bulkdock/openbind_a71ev2a_c1_elab_chemspace.sdf', '/opt/xchem-fragalysis-2/maxwin/openbind-hippo/a71ev2a/cycle_01/syndirella/elabs/openbind_a71ev2a_c1_elab_chemspace_filtered.sdf']

>  <HIPPO Compound ID>  (71) 
290345

>  <gnina_score>  (71) 
4.336

$$$$
P498034
     RDKit          3D

 26 29  0  0  0  0  0  0  0  0999 V2000
   22.7107   11.3569   -2.1731 C   0  0  0  0  0  0  0  0  0  0  0  0
   23.4635   12.5641   -2.0523 O   0  0  0  0  0  0  0  0  0  0  0  0
   23.9332   12.7237   -0.7785 C   0  0  0  0  0  0  0  0  0  0  0  0
   24.9023   11.8587   -0.2679 C   0  0  0  0  0  0  0  0  0  0  0  0
   25.3628   12.0386    1.0276 C   0  0  0  0  0  0  0  0  0  0  0  0
   24.8306   13.0656    1.8027 C   0  0  0  0  0  0  0  0  0  0  0  0
   23.8765   13.9676    1.2708 C   0  0  0  0  0  0  0  0  0  0  0  0
   23.4520   13.8170   -0.0486 C   0  0  0  0  0  0  0  0  0  0  0  0
   22.5556   14.8293   -0.7299 C   0  0  0  0  0  0  0  0  0  0  0  0
   21.8879   15.8935    0.1427 C   0  0  0  0  0  0  0  0  0  0  0  0
   22.7230   16.2629    1.3400 C   0  0  0  0  0  0  0  0  0  0  0  0
   23.2555   15.0553    2.1194 C   0  0  2  0  0  0  0  0  0  0  0  0
   24.3120   15.6449    2.9108 O   0  0  0  0  0  0  0  0  0  0  0  0
   22.2378   14.4247    3.1046 C   0  0  0  0  0  0  0  0  0  0  0  0
   20.8042   14.2796    2.8544 N   0  0  0  0  0  0  0  0  0  0  0  0
   20.0454   13.5436    1.7051 C   0  0  0  0  0  0  0  0  0  0  0  0
   20.4535   13.0117    0.7487 O   0  0  0  0  0  0  0  0  0  0  0  0
   18.5607   13.5285    2.0970 C   0  0  1  0  0  0  0  0  0  0  0  0
   17.9907   14.9326    2.2958 C   0  0  0  0  0  0  0  0  0  0  0  0
   16.7015   14.8542    1.4954 C   0  0  1  0  0  0  0  0  0  0  0  0
   17.1901   14.1436    0.3303 O   0  0  0  0  0  0  0  0  0  0  0  0
   17.6207   12.9402    1.0119 C   0  0  2  0  0  0  0  0  0  0  0  0
   16.2651   12.5118    1.6071 C   0  0  2  0  0  0  0  0  0  0  0  0
   15.3327   12.0497    0.6156 O   0  0  0  0  0  0  0  0  0  0  0  0
   15.7426   13.8496    2.1590 C   0  0  2  0  0  0  0  0  0  0  0  0
   14.3816   14.0684    1.8022 O   0  0  0  0  0  0  0  0  0  0  0  0
  1  2  1  0
  2  3  1  0
  3  4  2  0
  4  5  1  0
  5  6  2  0
  6  7  1  0
  7  8  2  0
  8  9  1  0
  9 10  1  0
 10 11  1  0
 11 12  1  0
 12 13  1  1
 12 14  1  0
 14 15  1  0
 15 16  1  0
 16 17  2  0
 18 16  1  6
 18 19  1  0
 20 19  1  1
 20 21  1  0
 22 21  1  6
 22 23  1  0
 23 24  1  6
 23 25  1  0
 25 26  1  6
  8  3  1  0
 22 18  1  0
 12  7  1  0
 25 20  1  0
M  END
>  <distance_score>  (72) 
1.688142

>  <smiles>  (72) 
COc1cccc2c1CCC[C@@]2(O)CNC(=O)[C@H]1C[C@H]2O[C@@H]1[C@H](O)[C@@H]2O

>  <fragmenstein_error>  (72) 
nan

>  <fragmenstein_runtime>  (72) 
nan

>  <gnina_score_min>  (72) 
3.857

>  <orig_smiles>  (72) 
nan

>  <fragmenstein_mode>  (72) 
nan

>  <rmsd(smina/fragmenstein)>  (72) 
1.16

>  <inspiration_score>  (72) 
None

>  <name>  (72) 
P498034

>  <ref_pdb>  (72) 
A0239a

>  <ref_mols>  (72) 
A0239a,A0608a

>  <subsites>  (72) 
None

>  <tags>  (72) 
openbind_a71ev2a_c1_elabs_filtered,openbind_a71ev2a_c1_elab_chemspace_filtered_scored

>  <inchikey>  (72) 
SOIVPVQMYHZPAH-NZYKVVKASA-N

>  <scratch_subdir>  (72) 
nan

>  <smina_score_min>  (72) 
-4.859

>  <energy_score>  (72) 
-17.669053

>  <Energy>  (72) 
nan

>  <fragmenstein_outcome>  (72) 
nan

>  <alias>  (72) 
None

>  <HIPPO Pose ID>  (72) 
498034

>  <exports>  (72) 
['/opt/xchem-fragalysis-2/maxwin/openbind-hippo/a71ev2a/cycle_01/bulkdock/openbind_a71ev2a_c1_elab_chemspace.sdf', '/opt/xchem-fragalysis-2/maxwin/openbind-hippo/a71ev2a/cycle_01/syndirella/elabs/openbind_a71ev2a_c1_elab_chemspace_filtered.sdf']

>  <HIPPO Compound ID>  (72) 
290348

>  <gnina_score>  (72) 
3.984

$$$$
P498055
     RDKit          3D

 26 29  0  0  0  0  0  0  0  0999 V2000
   22.9674   11.3679   -2.1257 C   0  0  0  0  0  0  0  0  0  0  0  0
   23.7566   12.5497   -1.9762 O   0  0  0  0  0  0  0  0  0  0  0  0
   24.0934   12.7449   -0.6675 C   0  0  0  0  0  0  0  0  0  0  0  0
   24.9670   11.8778   -0.0162 C   0  0  0  0  0  0  0  0  0  0  0  0
   25.2498   12.0812    1.3272 C   0  0  0  0  0  0  0  0  0  0  0  0
   24.6100   13.1122    2.0160 C   0  0  0  0  0  0  0  0  0  0  0  0
   23.7434   14.0072    1.3487 C   0  0  0  0  0  0  0  0  0  0  0  0
   23.5675   13.8687   -0.0284 C   0  0  0  0  0  0  0  0  0  0  0  0
   22.8054   14.9096   -0.8082 C   0  0  0  0  0  0  0  0  0  0  0  0
   22.9496   16.2886   -0.1614 C   0  0  0  0  0  0  0  0  0  0  0  0
   22.3559   16.2334    1.2296 C   0  0  0  0  0  0  0  0  0  0  0  0
   22.9826   15.1024    2.0870 C   0  0  2  0  0  0  0  0  0  0  0  0
   23.9431   15.7995    2.9056 O   0  0  0  0  0  0  0  0  0  0  0  0
   21.8941   14.4672    3.0037 C   0  0  0  0  0  0  0  0  0  0  0  0
   20.5119   14.4127    2.5197 N   0  0  0  0  0  0  0  0  0  0  0  0
   19.8662   13.5417    1.4025 C   0  0  0  0  0  0  0  0  0  0  0  0
   20.3535   12.7950    0.6509 O   0  0  0  0  0  0  0  0  0  0  0  0
   18.3815   13.8958    1.3380 C   0  0  2  0  0  0  0  0  0  0  0  0
   17.5607   13.7642    2.6306 C   0  0  1  0  0  0  0  0  0  0  0  0
   16.4401   14.8016    2.5725 C   0  0  0  0  0  0  0  0  0  0  0  0
   15.5702   14.2416    1.4324 C   0  0  0  0  0  0  0  0  0  0  0  0
   16.2307   12.8893    1.1526 C   0  0  2  0  0  0  0  0  0  0  0  0
   16.7330   12.5817    2.4716 O   0  0  0  0  0  0  0  0  0  0  0  0
   17.5516   13.0237    0.3999 C   0  0  0  0  0  0  0  0  0  0  0  0
   18.0661   11.7893    0.2264 F   0  0  0  0  0  0  0  0  0  0  0  0
   17.3873   13.5981   -0.8072 F   0  0  0  0  0  0  0  0  0  0  0  0
  1  2  1  0
  2  3  1  0
  3  4  2  0
  4  5  1  0
  5  6  2  0
  6  7  1  0
  7  8  2  0
  8  9  1  0
  9 10  1  0
 10 11  1  0
 11 12  1  0
 12 13  1  1
 12 14  1  0
 14 15  1  0
 15 16  1  0
 16 17  2  0
 18 16  1  1
 18 19  1  0
 19 20  1  6
 20 21  1  0
 22 21  1  1
 22 23  1  0
 22 24  1  0
 24 25  1  0
 24 26  1  0
  8  3  1  0
 24 18  1  0
 12  7  1  0
 23 19  1  0
M  END
>  <distance_score>  (73) 
1.717372

>  <smiles>  (73) 
COc1cccc2c1CCC[C@@]2(O)CNC(=O)[C@@H]1[C@H]2CC[C@H](O2)C1(F)F

>  <fragmenstein_error>  (73) 
nan

>  <fragmenstein_runtime>  (73) 
nan

>  <gnina_score_min>  (73) 
4.324

>  <orig_smiles>  (73) 
nan

>  <fragmenstein_mode>  (73) 
nan

>  <rmsd(smina/fragmenstein)>  (73) 
0.777

>  <inspiration_score>  (73) 
None

>  <name>  (73) 
P498055

>  <ref_pdb>  (73) 
A0239a

>  <ref_mols>  (73) 
A0239a,A0608a

>  <subsites>  (73) 
None

>  <tags>  (73) 
openbind_a71ev2a_c1_elabs_filtered,openbind_a71ev2a_c1_elab_chemspace_filtered_scored

>  <inchikey>  (73) 
VLBHAUNCERCYSV-MUQADHOPSA-N

>  <scratch_subdir>  (73) 
nan

>  <smina_score_min>  (73) 
-4.995

>  <energy_score>  (73) 
-7.166848

>  <Energy>  (73) 
nan

>  <fragmenstein_outcome>  (73) 
nan

>  <alias>  (73) 
None

>  <HIPPO Pose ID>  (73) 
498055

>  <exports>  (73) 
['/opt/xchem-fragalysis-2/maxwin/openbind-hippo/a71ev2a/cycle_01/bulkdock/openbind_a71ev2a_c1_elab_chemspace.sdf', '/opt/xchem-fragalysis-2/maxwin/openbind-hippo/a71ev2a/cycle_01/syndirella/elabs/openbind_a71ev2a_c1_elab_chemspace_filtered.sdf']

>  <HIPPO Compound ID>  (73) 
290351

>  <gnina_score>  (73) 
4.327

$$$$
P498057
     RDKit          3D

 26 29  0  0  0  0  0  0  0  0999 V2000
   23.7224   11.4132   -2.5082 C   0  0  0  0  0  0  0  0  0  0  0  0
   23.6616   12.6847   -1.8731 O   0  0  0  0  0  0  0  0  0  0  0  0
   24.2369   12.7941   -0.6389 C   0  0  0  0  0  0  0  0  0  0  0  0
   24.9625   11.7914    0.0007 C   0  0  0  0  0  0  0  0  0  0  0  0
   25.4121   11.9822    1.3036 C   0  0  0  0  0  0  0  0  0  0  0  0
   25.0692   13.1421    1.9911 C   0  0  0  0  0  0  0  0  0  0  0  0
   24.3500   14.1700    1.3517 C   0  0  0  0  0  0  0  0  0  0  0  0
   24.0374   14.0304   -0.0065 C   0  0  0  0  0  0  0  0  0  0  0  0
   23.5030   15.2030   -0.8029 C   0  0  0  0  0  0  0  0  0  0  0  0
   23.7997   16.5475   -0.1381 C   0  0  0  0  0  0  0  0  0  0  0  0
   23.2457   16.5360    1.2686 C   0  0  0  0  0  0  0  0  0  0  0  0
   23.8706   15.4004    2.1187 C   0  0  2  0  0  0  0  0  0  0  0  0
   25.0009   15.9892    2.7624 O   0  0  0  0  0  0  0  0  0  0  0  0
   22.8252   14.9682    3.1773 C   0  0  0  0  0  0  0  0  0  0  0  0
   21.6098   14.4546    2.5745 N   0  0  0  0  0  0  0  0  0  0  0  0
   20.2203   15.1115    2.3975 C   0  0  0  0  0  0  0  0  0  0  0  0
   19.8140   16.1412    2.7785 O   0  0  0  0  0  0  0  0  0  0  0  0
   19.3217   14.1670    1.4713 C   0  0  2  0  0  0  0  0  0  0  0  0
   20.0425   13.7058    0.1928 C   0  0  0  0  0  0  0  0  0  0  0  0
   17.9378   14.7911    1.0860 C   0  0  0  0  0  0  0  0  0  0  0  0
   17.2824   13.4248    1.3337 C   0  0  1  0  0  0  0  0  0  0  0  0
   15.9044   13.4638    1.9676 C   0  0  0  0  0  0  0  0  0  0  0  0
   15.3125   12.1414    1.5189 C   0  0  0  0  0  0  0  0  0  0  0  0
   15.8646   11.9524    0.1246 C   0  0  0  0  0  0  0  0  0  0  0  0
   17.1561   12.5565    0.1772 O   0  0  0  0  0  0  0  0  0  0  0  0
   18.4953   13.0767    2.2244 C   0  0  0  0  0  0  0  0  0  0  0  0
  1  2  1  0
  2  3  1  0
  3  4  2  0
  4  5  1  0
  5  6  2  0
  6  7  1  0
  7  8  2  0
  8  9  1  0
  9 10  1  0
 10 11  1  0
 11 12  1  0
 12 13  1  1
 12 14  1  0
 14 15  1  0
 15 16  1  0
 16 17  2  0
 16 18  1  0
 18 19  1  6
 18 20  1  0
 21 20  1  6
 21 22  1  0
 22 23  1  0
 23 24  1  0
 24 25  1  0
 21 26  1  0
  8  3  1  0
 26 18  1  0
 12  7  1  0
 21 25  1  0
M  END
>  <distance_score>  (74) 
1.889063

>  <smiles>  (74) 
COc1cccc2c1CCC[C@@]2(O)CNC(=O)[C@]1(C)C[C@]2(CCCO2)C1

>  <fragmenstein_error>  (74) 
nan

>  <fragmenstein_runtime>  (74) 
nan

>  <gnina_score_min>  (74) 
4.384

>  <orig_smiles>  (74) 
nan

>  <fragmenstein_mode>  (74) 
nan

>  <rmsd(smina/fragmenstein)>  (74) 
1.336

>  <inspiration_score>  (74) 
None

>  <name>  (74) 
P498057

>  <ref_pdb>  (74) 
A0239a

>  <ref_mols>  (74) 
A0239a,A0608a

>  <subsites>  (74) 
None

>  <tags>  (74) 
openbind_a71ev2a_c1_elabs_filtered,openbind_a71ev2a_c1_elab_chemspace_filtered_scored

>  <inchikey>  (74) 
VDGVQVPBWFGASC-NJDAHSKKSA-N

>  <scratch_subdir>  (74) 
nan

>  <smina_score_min>  (74) 
-5.182

>  <energy_score>  (74) 
-40.869622

>  <Energy>  (74) 
nan

>  <fragmenstein_outcome>  (74) 
nan

>  <alias>  (74) 
None

>  <HIPPO Pose ID>  (74) 
498057

>  <exports>  (74) 
['/opt/xchem-fragalysis-2/maxwin/openbind-hippo/a71ev2a/cycle_01/bulkdock/openbind_a71ev2a_c1_elab_chemspace.sdf', '/opt/xchem-fragalysis-2/maxwin/openbind-hippo/a71ev2a/cycle_01/syndirella/elabs/openbind_a71ev2a_c1_elab_chemspace_filtered.sdf']

>  <HIPPO Compound ID>  (74) 
290353

>  <gnina_score>  (74) 
4.49

$$$$
P498058
     RDKit          3D

 26 29  0  0  0  0  0  0  0  0999 V2000
   23.9411   11.1602   -2.5349 C   0  0  0  0  0  0  0  0  0  0  0  0
   23.4817   12.3338   -1.8756 O   0  0  0  0  0  0  0  0  0  0  0  0
   23.9949   12.6006   -0.6378 C   0  0  0  0  0  0  0  0  0  0  0  0
   24.9958   11.8578   -0.0108 C   0  0  0  0  0  0  0  0  0  0  0  0
   25.3800   12.1677    1.2898 C   0  0  0  0  0  0  0  0  0  0  0  0
   24.7512   13.2079    1.9701 C   0  0  0  0  0  0  0  0  0  0  0  0
   23.7766   13.9991    1.3318 C   0  0  0  0  0  0  0  0  0  0  0  0
   23.4214   13.7092    0.0064 C   0  0  0  0  0  0  0  0  0  0  0  0
   22.3525   14.5225   -0.6955 C   0  0  0  0  0  0  0  0  0  0  0  0
   22.2101   15.9842   -0.2512 C   0  0  0  0  0  0  0  0  0  0  0  0
   22.8258   16.3188    1.0924 C   0  0  0  0  0  0  0  0  0  0  0  0
   23.0344   15.1260    2.0315 C   0  0  2  0  0  0  0  0  0  0  0  0
   23.8591   15.6789    3.0714 O   0  0  0  0  0  0  0  0  0  0  0  0
   21.7141   14.6136    2.6782 C   0  0  0  0  0  0  0  0  0  0  0  0
   20.4556   14.7093    1.9436 N   0  0  0  0  0  0  0  0  0  0  0  0
   19.4348   13.6032    1.5371 C   0  0  0  0  0  0  0  0  0  0  0  0
   19.4872   12.4443    1.6619 O   0  0  0  0  0  0  0  0  0  0  0  0
   18.1871   14.3090    0.9911 C   0  0  2  0  0  0  0  0  0  0  0  0
   17.6030   15.1716    2.1276 C   0  0  0  0  0  0  0  0  0  0  0  0
   16.1829   14.6462    2.2465 C   0  0  2  0  0  0  0  0  0  0  0  0
   15.2158   15.5987    2.9142 C   0  0  0  0  0  0  0  0  0  0  0  0
   16.1591   13.2262    2.8031 C   0  0  0  0  0  0  0  0  0  0  0  0
   16.5778   12.3713    1.6237 C   0  0  0  0  0  0  0  0  0  0  0  0
   16.9398   13.4465    0.6072 C   0  0  2  0  0  0  0  0  0  0  0  0
   16.8063   12.9563   -0.8107 C   0  0  0  0  0  0  0  0  0  0  0  0
   15.8633   14.4063    0.8696 O   0  0  0  0  0  0  0  0  0  0  0  0
  1  2  1  0
  2  3  1  0
  3  4  2  0
  4  5  1  0
  5  6  2  0
  6  7  1  0
  7  8  2  0
  8  9  1  0
  9 10  1  0
 10 11  1  0
 11 12  1  0
 12 13  1  1
 12 14  1  0
 14 15  1  0
 15 16  1  0
 16 17  2  0
 18 16  1  1
 18 19  1  0
 19 20  1  0
 20 21  1  1
 20 22  1  0
 22 23  1  0
 23 24  1  0
 24 25  1  6
 24 26  1  0
  8  3  1  0
 24 18  1  0
 12  7  1  0
 26 20  1  0
M  END
>  <distance_score>  (75) 
1.933858

>  <smiles>  (75) 
COc1cccc2c1CCC[C@@]2(O)CNC(=O)[C@@H]1C[C@]2(C)CC[C@@]1(C)O2

>  <fragmenstein_error>  (75) 
nan

>  <fragmenstein_runtime>  (75) 
nan

>  <gnina_score_min>  (75) 
4.533

>  <orig_smiles>  (75) 
nan

>  <fragmenstein_mode>  (75) 
nan

>  <rmsd(smina/fragmenstein)>  (75) 
1.406

>  <inspiration_score>  (75) 
None

>  <name>  (75) 
P498058

>  <ref_pdb>  (75) 
A0239a

>  <ref_mols>  (75) 
A0239a,A0608a

>  <subsites>  (75) 
None

>  <tags>  (75) 
openbind_a71ev2a_c1_elabs_filtered,openbind_a71ev2a_c1_elab_chemspace_filtered_scored

>  <inchikey>  (75) 
SCMDJNFKNCGHTJ-VRXWPRPYSA-N

>  <scratch_subdir>  (75) 
nan

>  <smina_score_min>  (75) 
-5.6

>  <energy_score>  (75) 
-23.384514

>  <Energy>  (75) 
nan

>  <fragmenstein_outcome>  (75) 
nan

>  <alias>  (75) 
None

>  <HIPPO Pose ID>  (75) 
498058

>  <exports>  (75) 
['/opt/xchem-fragalysis-2/maxwin/openbind-hippo/a71ev2a/cycle_01/bulkdock/openbind_a71ev2a_c1_elab_chemspace.sdf', '/opt/xchem-fragalysis-2/maxwin/openbind-hippo/a71ev2a/cycle_01/syndirella/elabs/openbind_a71ev2a_c1_elab_chemspace_filtered.sdf']

>  <HIPPO Compound ID>  (75) 
290355

>  <gnina_score>  (75) 
4.477

$$$$
P498060
     RDKit          3D

 27 31  0  0  0  0  0  0  0  0999 V2000
   23.7729   11.1972   -2.4549 C   0  0  0  0  0  0  0  0  0  0  0  0
   23.2983   12.3596   -1.7862 O   0  0  0  0  0  0  0  0  0  0  0  0
   23.8477   12.6548   -0.5695 C   0  0  0  0  0  0  0  0  0  0  0  0
   24.7794   11.8619    0.0990 C   0  0  0  0  0  0  0  0  0  0  0  0
   25.2079   12.2191    1.3728 C   0  0  0  0  0  0  0  0  0  0  0  0
   24.7009   13.3654    1.9795 C   0  0  0  0  0  0  0  0  0  0  0  0
   23.8125   14.2150    1.2904 C   0  0  0  0  0  0  0  0  0  0  0  0
   23.3945   13.8605   -0.0014 C   0  0  0  0  0  0  0  0  0  0  0  0
   22.4784   14.7518   -0.8236 C   0  0  0  0  0  0  0  0  0  0  0  0
   22.2333   16.1826   -0.3298 C   0  0  0  0  0  0  0  0  0  0  0  0
   23.1286   16.5927    0.8118 C   0  0  0  0  0  0  0  0  0  0  0  0
   23.3044   15.5143    1.8871 C   0  0  2  0  0  0  0  0  0  0  0  0
   24.3159   16.0819    2.7388 O   0  0  0  0  0  0  0  0  0  0  0  0
   22.0301   15.3398    2.7518 C   0  0  0  0  0  0  0  0  0  0  0  0
   20.8062   14.7870    2.1887 N   0  0  0  0  0  0  0  0  0  0  0  0
   19.7540   13.8542    2.8096 C   0  0  0  0  0  0  0  0  0  0  0  0
   19.7371   13.3178    3.8429 O   0  0  0  0  0  0  0  0  0  0  0  0
   18.6172   13.5454    1.8133 C   0  0  1  0  0  0  0  0  0  0  0  0
   17.4063   12.9691    2.6105 C   0  0  0  0  0  0  0  0  0  0  0  0
   16.2407   13.8256    2.1460 C   0  0  1  0  0  0  0  0  0  0  0  0
   16.9117   15.0935    1.9957 O   0  0  0  0  0  0  0  0  0  0  0  0
   17.8948   14.6453    1.0324 C   0  0  2  0  0  0  0  0  0  0  0  0
   16.9962   14.0790   -0.0518 C   0  0  2  0  0  0  0  0  0  0  0  0
   15.8395   13.5162    0.7388 C   0  0  1  0  0  0  0  0  0  0  0  0
   16.5951   12.6564   -0.2007 C   0  0  0  0  0  0  0  0  0  0  0  0
   17.4121   11.6362    0.2202 F   0  0  0  0  0  0  0  0  0  0  0  0
   16.0071   12.2424   -1.3735 F   0  0  0  0  0  0  0  0  0  0  0  0
  1  2  1  0
  2  3  1  0
  3  4  2  0
  4  5  1  0
  5  6  2  0
  6  7  1  0
  7  8  2  0
  8  9  1  0
  9 10  1  0
 10 11  1  0
 11 12  1  0
 12 13  1  1
 12 14  1  0
 14 15  1  0
 15 16  1  0
 16 17  2  0
 18 16  1  1
 18 19  1  0
 20 19  1  6
 20 21  1  0
 22 21  1  1
 22 23  1  0
 23 24  1  0
 24 25  1  1
 25 26  1  0
 25 27  1  0
  8  3  1  0
 22 18  1  0
 23 25  1  1
 12  7  1  0
 24 20  1  0
M  END
>  <distance_score>  (76) 
1.882565

>  <smiles>  (76) 
COc1cccc2c1CCC[C@@]2(O)CNC(=O)[C@H]1C[C@H]2O[C@@H]1[C@@H]1[C@H]2C1(F)F

>  <fragmenstein_error>  (76) 
nan

>  <fragmenstein_runtime>  (76) 
nan

>  <gnina_score_min>  (76) 
4.379

>  <orig_smiles>  (76) 
nan

>  <fragmenstein_mode>  (76) 
nan

>  <rmsd(smina/fragmenstein)>  (76) 
1.949

>  <inspiration_score>  (76) 
None

>  <name>  (76) 
P498060

>  <ref_pdb>  (76) 
A0239a

>  <ref_mols>  (76) 
A0239a,A0608a

>  <subsites>  (76) 
None

>  <tags>  (76) 
openbind_a71ev2a_c1_elabs_filtered,openbind_a71ev2a_c1_elab_chemspace_filtered_scored

>  <inchikey>  (76) 
QWUYSRLDCFWKIP-AFHPFODJSA-N

>  <scratch_subdir>  (76) 
nan

>  <smina_score_min>  (76) 
-5.557

>  <energy_score>  (76) 
-9.824695

>  <Energy>  (76) 
nan

>  <fragmenstein_outcome>  (76) 
nan

>  <alias>  (76) 
None

>  <HIPPO Pose ID>  (76) 
498060

>  <exports>  (76) 
['/opt/xchem-fragalysis-2/maxwin/openbind-hippo/a71ev2a/cycle_01/bulkdock/openbind_a71ev2a_c1_elab_chemspace.sdf', '/opt/xchem-fragalysis-2/maxwin/openbind-hippo/a71ev2a/cycle_01/syndirella/elabs/openbind_a71ev2a_c1_elab_chemspace_filtered.sdf']

>  <HIPPO Compound ID>  (76) 
290361

>  <gnina_score>  (76) 
4.525

$$$$
P498063
     RDKit          3D

 27 30  0  0  0  0  0  0  0  0999 V2000
   23.9287   11.2485   -2.6308 C   0  0  0  0  0  0  0  0  0  0  0  0
   23.7195   12.5424   -2.0768 O   0  0  0  0  0  0  0  0  0  0  0  0
   24.0325   12.6977   -0.7569 C   0  0  0  0  0  0  0  0  0  0  0  0
   24.8826   11.8555   -0.0421 C   0  0  0  0  0  0  0  0  0  0  0  0
   25.0932   12.0779    1.3123 C   0  0  0  0  0  0  0  0  0  0  0  0
   24.3951   13.0938    1.9610 C   0  0  0  0  0  0  0  0  0  0  0  0
   23.5370   13.9590    1.2490 C   0  0  0  0  0  0  0  0  0  0  0  0
   23.4475   13.8137   -0.1396 C   0  0  0  0  0  0  0  0  0  0  0  0
   22.7328   14.8512   -0.9836 C   0  0  0  0  0  0  0  0  0  0  0  0
   22.7042   16.2274   -0.3133 C   0  0  0  0  0  0  0  0  0  0  0  0
   22.0468   16.1032    1.0448 C   0  0  0  0  0  0  0  0  0  0  0  0
   22.8026   15.0989    1.9364 C   0  0  2  0  0  0  0  0  0  0  0  0
   23.8531   15.9116    2.5311 O   0  0  0  0  0  0  0  0  0  0  0  0
   21.8766   14.6360    3.0874 C   0  0  0  0  0  0  0  0  0  0  0  0
   20.5018   14.1409    2.9454 N   0  0  0  0  0  0  0  0  0  0  0  0
   19.7302   13.6435    1.6852 C   0  0  0  0  0  0  0  0  0  0  0  0
   20.0480   13.6266    0.5625 O   0  0  0  0  0  0  0  0  0  0  0  0
   18.3734   13.1090    2.1832 C   0  0  2  0  0  0  0  0  0  0  0  0
   17.5021   12.2046    1.2783 C   0  0  2  0  0  0  0  0  0  0  0  0
   18.0329   11.7829   -0.0615 C   0  0  0  0  0  0  0  0  0  0  0  0
   19.0509   10.9070    0.1215 F   0  0  0  0  0  0  0  0  0  0  0  0
   17.0608   11.0918   -0.7160 F   0  0  0  0  0  0  0  0  0  0  0  0
   16.1779   12.9649    1.2185 C   0  0  2  0  0  0  0  0  0  0  0  0
   16.2652   14.2806    0.4569 C   0  0  0  0  0  0  0  0  0  0  0  0
   17.0958   15.1508    1.3988 C   0  0  0  0  0  0  0  0  0  0  0  0
   17.3692   14.2002    2.5550 C   0  0  1  0  0  0  0  0  0  0  0  0
   16.1082   13.4604    2.5802 O   0  0  0  0  0  0  0  0  0  0  0  0
  1  2  1  0
  2  3  1  0
  3  4  2  0
  4  5  1  0
  5  6  2  0
  6  7  1  0
  7  8  2  0
  8  9  1  0
  9 10  1  0
 10 11  1  0
 11 12  1  0
 12 13  1  1
 12 14  1  0
 14 15  1  0
 15 16  1  0
 16 17  2  0
 18 16  1  6
 18 19  1  0
 19 20  1  6
 20 21  1  0
 20 22  1  0
 19 23  1  0
 23 24  1  6
 24 25  1  0
 26 25  1  6
 26 27  1  0
  8  3  1  0
 26 18  1  0
 12  7  1  0
 27 23  1  0
M  END
>  <distance_score>  (77) 
1.754233

>  <smiles>  (77) 
COc1cccc2c1CCC[C@@]2(O)CNC(=O)[C@@H]1[C@H](C(F)F)[C@@H]2CC[C@H]1O2

>  <fragmenstein_error>  (77) 
nan

>  <fragmenstein_runtime>  (77) 
nan

>  <gnina_score_min>  (77) 
4.391

>  <orig_smiles>  (77) 
nan

>  <fragmenstein_mode>  (77) 
nan

>  <rmsd(smina/fragmenstein)>  (77) 
0.499

>  <inspiration_score>  (77) 
None

>  <name>  (77) 
P498063

>  <ref_pdb>  (77) 
A0239a

>  <ref_mols>  (77) 
A0239a,A0608a

>  <subsites>  (77) 
None

>  <tags>  (77) 
openbind_a71ev2a_c1_elabs_filtered,openbind_a71ev2a_c1_elab_chemspace_filtered_scored

>  <inchikey>  (77) 
ZZNCNQAIPNXDFP-HAJKQMQPSA-N

>  <scratch_subdir>  (77) 
nan

>  <smina_score_min>  (77) 
-4.658

>  <energy_score>  (77) 
-14.110237

>  <Energy>  (77) 
nan

>  <fragmenstein_outcome>  (77) 
nan

>  <alias>  (77) 
None

>  <HIPPO Pose ID>  (77) 
498063

>  <exports>  (77) 
['/opt/xchem-fragalysis-2/maxwin/openbind-hippo/a71ev2a/cycle_01/bulkdock/openbind_a71ev2a_c1_elab_chemspace.sdf', '/opt/xchem-fragalysis-2/maxwin/openbind-hippo/a71ev2a/cycle_01/syndirella/elabs/openbind_a71ev2a_c1_elab_chemspace_filtered.sdf']

>  <HIPPO Compound ID>  (77) 
290364

>  <gnina_score>  (77) 
4.497

$$$$
P498065
     RDKit          3D

 27 29  0  0  0  0  0  0  0  0999 V2000
   23.3729   11.4122   -2.4424 C   0  0  0  0  0  0  0  0  0  0  0  0
   23.2011   12.5856   -1.6575 O   0  0  0  0  0  0  0  0  0  0  0  0
   24.0098   12.7345   -0.5638 C   0  0  0  0  0  0  0  0  0  0  0  0
   24.9201   11.7794   -0.1089 C   0  0  0  0  0  0  0  0  0  0  0  0
   25.6489   12.0063    1.0549 C   0  0  0  0  0  0  0  0  0  0  0  0
   25.4470   13.1745    1.7820 C   0  0  0  0  0  0  0  0  0  0  0  0
   24.5542   14.1621    1.3240 C   0  0  0  0  0  0  0  0  0  0  0  0
   23.8562   13.9547    0.1203 C   0  0  0  0  0  0  0  0  0  0  0  0
   23.0039   15.0440   -0.5117 C   0  0  0  0  0  0  0  0  0  0  0  0
   22.7542   16.3196    0.2961 C   0  0  0  0  0  0  0  0  0  0  0  0
   23.8455   16.6020    1.3013 C   0  0  0  0  0  0  0  0  0  0  0  0
   24.2366   15.3922    2.1619 C   0  0  2  0  0  0  0  0  0  0  0  0
   25.4292   15.7939    2.8394 O   0  0  0  0  0  0  0  0  0  0  0  0
   23.1483   15.0081    3.2028 C   0  0  0  0  0  0  0  0  0  0  0  0
   21.9710   14.3903    2.6413 N   0  0  0  0  0  0  0  0  0  0  0  0
   20.5238   14.9256    2.5004 C   0  0  0  0  0  0  0  0  0  0  0  0
   20.0431   15.9175    2.8856 O   0  0  0  0  0  0  0  0  0  0  0  0
   19.7732   13.9342    1.6232 C   0  0  0  0  0  0  0  0  0  0  0  0
   18.4343   13.5330    2.2480 C   0  0  0  0  0  0  0  0  0  0  0  0
   17.2327   14.0506    1.4494 C   0  0  2  0  0  0  0  0  0  0  0  0
   17.1550   15.5819    1.4497 C   0  0  0  0  0  0  0  0  0  0  0  0
   15.9042   13.4460    1.9330 C   0  0  0  0  0  0  0  0  0  0  0  0
   15.4525   12.5417    0.7868 C   0  0  0  0  0  0  0  0  0  0  0  0
   13.9366   12.5244    0.6160 C   0  0  0  0  0  0  0  0  0  0  0  0
   15.9727   11.1153    0.9736 C   0  0  0  0  0  0  0  0  0  0  0  0
   16.1439   13.1692   -0.4076 C   0  0  0  0  0  0  0  0  0  0  0  0
   17.4095   13.6013    0.0901 O   0  0  0  0  0  0  0  0  0  0  0  0
  1  2  1  0
  2  3  1  0
  3  4  2  0
  4  5  1  0
  5  6  2  0
  6  7  1  0
  7  8  2  0
  8  9  1  0
  9 10  1  0
 10 11  1  0
 11 12  1  0
 12 13  1  1
 12 14  1  0
 14 15  1  0
 15 16  1  0
 16 17  2  0
 16 18  1  0
 18 19  1  0
 20 19  1  0
 20 21  1  6
 20 22  1  0
 22 23  1  0
 23 24  1  0
 23 25  1  0
 23 26  1  0
 26 27  1  0
  8  3  1  0
 27 20  1  0
 12  7  1  0
M  END
>  <distance_score>  (78) 
1.760466

>  <smiles>  (78) 
COc1cccc2c1CCC[C@@]2(O)CNC(=O)CC[C@]1(C)CC(C)(C)CO1

>  <fragmenstein_error>  (78) 
nan

>  <fragmenstein_runtime>  (78) 
nan

>  <gnina_score_min>  (78) 
4.501

>  <orig_smiles>  (78) 
nan

>  <fragmenstein_mode>  (78) 
nan

>  <rmsd(smina/fragmenstein)>  (78) 
1.142

>  <inspiration_score>  (78) 
None

>  <name>  (78) 
P498065

>  <ref_pdb>  (78) 
A0239a

>  <ref_mols>  (78) 
A0239a,A0608a

>  <subsites>  (78) 
None

>  <tags>  (78) 
openbind_a71ev2a_c1_elabs_filtered,openbind_a71ev2a_c1_elab_chemspace_filtered_scored

>  <inchikey>  (78) 
BLHLCNWAYQXKGA-FGZHOGPDSA-N

>  <scratch_subdir>  (78) 
nan

>  <smina_score_min>  (78) 
-3.919

>  <energy_score>  (78) 
-39.139479

>  <Energy>  (78) 
nan

>  <fragmenstein_outcome>  (78) 
nan

>  <alias>  (78) 
None

>  <HIPPO Pose ID>  (78) 
498065

>  <exports>  (78) 
['/opt/xchem-fragalysis-2/maxwin/openbind-hippo/a71ev2a/cycle_01/bulkdock/openbind_a71ev2a_c1_elab_chemspace.sdf', '/opt/xchem-fragalysis-2/maxwin/openbind-hippo/a71ev2a/cycle_01/syndirella/elabs/openbind_a71ev2a_c1_elab_chemspace_filtered.sdf']

>  <HIPPO Compound ID>  (78) 
290367

>  <gnina_score>  (78) 
4.775

$$$$
P498069
     RDKit          3D

 28 32  0  0  0  0  0  0  0  0999 V2000
   23.9806   11.2429   -2.5511 C   0  0  0  0  0  0  0  0  0  0  0  0
   23.7659   12.5381   -2.0023 O   0  0  0  0  0  0  0  0  0  0  0  0
   24.0698   12.7032   -0.6817 C   0  0  0  0  0  0  0  0  0  0  0  0
   24.8778   11.8444    0.0594 C   0  0  0  0  0  0  0  0  0  0  0  0
   25.0706   12.0785    1.4150 C   0  0  0  0  0  0  0  0  0  0  0  0
   24.3935   13.1234    2.0403 C   0  0  0  0  0  0  0  0  0  0  0  0
   23.5898   14.0140    1.3000 C   0  0  0  0  0  0  0  0  0  0  0  0
   23.5212   13.8505   -0.0887 C   0  0  0  0  0  0  0  0  0  0  0  0
   22.8830   14.9132   -0.9611 C   0  0  0  0  0  0  0  0  0  0  0  0
   22.9585   16.3005   -0.3214 C   0  0  0  0  0  0  0  0  0  0  0  0
   22.2891   16.2754    1.0348 C   0  0  0  0  0  0  0  0  0  0  0  0
   22.8990   15.1971    1.9547 C   0  0  2  0  0  0  0  0  0  0  0  0
   23.9608   15.9245    2.6317 O   0  0  0  0  0  0  0  0  0  0  0  0
   21.8573   14.8197    3.0410 C   0  0  0  0  0  0  0  0  0  0  0  0
   20.5780   14.1393    2.8146 N   0  0  0  0  0  0  0  0  0  0  0  0
   19.7765   13.9041    1.4998 C   0  0  0  0  0  0  0  0  0  0  0  0
   19.9770   14.2833    0.4138 O   0  0  0  0  0  0  0  0  0  0  0  0
   18.5415   13.0674    1.8516 C   0  0  1  0  0  0  0  0  0  0  0  0
   17.5613   13.7506    2.8017 C   0  0  1  0  0  0  0  0  0  0  0  0
   17.0180   15.0794    2.2688 C   0  0  0  0  0  0  0  0  0  0  0  0
   16.0379   14.6318    1.1741 C   0  0  0  0  0  0  0  0  0  0  0  0
   16.2567   13.1342    1.1922 C   0  0  1  0  0  0  0  0  0  0  0  0
   15.3031   12.2072    0.5052 C   0  0  0  0  0  0  0  0  0  0  0  0
   16.0899   11.0302    0.2504 O   0  0  0  0  0  0  0  0  0  0  0  0
   17.4231   11.2993    0.4088 C   0  0  0  0  0  0  0  0  0  0  0  0
   18.3198   10.4752    0.3132 O   0  0  0  0  0  0  0  0  0  0  0  0
   17.6260   12.7589    0.6644 C   0  0  2  0  0  0  0  0  0  0  0  0
   16.3918   12.9090    2.6204 O   0  0  0  0  0  0  0  0  0  0  0  0
  1  2  1  0
  2  3  1  0
  3  4  2  0
  4  5  1  0
  5  6  2  0
  6  7  1  0
  7  8  2  0
  8  9  1  0
  9 10  1  0
 10 11  1  0
 11 12  1  0
 12 13  1  1
 12 14  1  0
 14 15  1  0
 15 16  1  0
 16 17  2  0
 18 16  1  6
 18 19  1  0
 19 20  1  6
 20 21  1  0
 22 21  1  1
 22 23  1  0
 23 24  1  0
 24 25  1  0
 25 26  2  0
 27 25  1  1
 22 28  1  0
  8  3  1  0
 27 18  1  0
 12  7  1  0
 28 19  1  0
 27 22  1  0
M  END
>  <distance_score>  (79) 
1.743247

>  <smiles>  (79) 
COc1cccc2c1CCC[C@@]2(O)CNC(=O)[C@@H]1[C@H]2C(=O)OC[C@]23CC[C@H]1O3

>  <fragmenstein_error>  (79) 
nan

>  <fragmenstein_runtime>  (79) 
nan

>  <gnina_score_min>  (79) 
4.507

>  <orig_smiles>  (79) 
nan

>  <fragmenstein_mode>  (79) 
nan

>  <rmsd(smina/fragmenstein)>  (79) 
1.625

>  <inspiration_score>  (79) 
None

>  <name>  (79) 
P498069

>  <ref_pdb>  (79) 
A0239a

>  <ref_mols>  (79) 
A0239a,A0608a

>  <subsites>  (79) 
None

>  <tags>  (79) 
openbind_a71ev2a_c1_elabs_filtered,openbind_a71ev2a_c1_elab_chemspace_filtered_scored

>  <inchikey>  (79) 
VTPCISHIALBWEM-ZHOIUHGQSA-N

>  <scratch_subdir>  (79) 
nan

>  <smina_score_min>  (79) 
-5.521

>  <energy_score>  (79) 
-61.554834

>  <Energy>  (79) 
nan

>  <fragmenstein_outcome>  (79) 
nan

>  <alias>  (79) 
None

>  <HIPPO Pose ID>  (79) 
498069

>  <exports>  (79) 
['/opt/xchem-fragalysis-2/maxwin/openbind-hippo/a71ev2a/cycle_01/bulkdock/openbind_a71ev2a_c1_elab_chemspace.sdf', '/opt/xchem-fragalysis-2/maxwin/openbind-hippo/a71ev2a/cycle_01/syndirella/elabs/openbind_a71ev2a_c1_elab_chemspace_filtered.sdf']

>  <HIPPO Compound ID>  (79) 
290373

>  <gnina_score>  (79) 
4.388

$$$$
P498077
     RDKit          3D

 28 31  0  0  0  0  0  0  0  0999 V2000
   23.9402   11.2324   -2.4306 C   0  0  0  0  0  0  0  0  0  0  0  0
   23.4379   12.3893   -1.7736 O   0  0  0  0  0  0  0  0  0  0  0  0
   23.9155   12.6597   -0.5222 C   0  0  0  0  0  0  0  0  0  0  0  0
   24.8801   11.9051    0.1438 C   0  0  0  0  0  0  0  0  0  0  0  0
   25.2275   12.2232    1.4527 C   0  0  0  0  0  0  0  0  0  0  0  0
   24.6033   13.2880    2.1005 C   0  0  0  0  0  0  0  0  0  0  0  0
   23.6728   14.0992    1.4233 C   0  0  0  0  0  0  0  0  0  0  0  0
   23.3488   13.7901    0.0921 C   0  0  0  0  0  0  0  0  0  0  0  0
   22.3340   14.6283   -0.6560 C   0  0  0  0  0  0  0  0  0  0  0  0
   22.3111   16.1169   -0.2932 C   0  0  0  0  0  0  0  0  0  0  0  0
   22.8998   16.4671    1.0589 C   0  0  0  0  0  0  0  0  0  0  0  0
   23.0069   15.3093    2.0618 C   0  0  2  0  0  0  0  0  0  0  0  0
   23.8744   15.8553    3.0734 O   0  0  0  0  0  0  0  0  0  0  0  0
   21.6416   15.0021    2.7494 C   0  0  0  0  0  0  0  0  0  0  0  0
   20.4286   14.8375    1.9560 N   0  0  0  0  0  0  0  0  0  0  0  0
   19.4090   13.6753    1.9096 C   0  0  0  0  0  0  0  0  0  0  0  0
   19.3396   12.7072    2.5521 O   0  0  0  0  0  0  0  0  0  0  0  0
   18.3275   14.0195    0.8878 C   0  0  1  0  0  0  0  0  0  0  0  0
   17.4956   12.8789    0.2532 C   0  0  1  0  0  0  0  0  0  0  0  0
   17.8909   11.4453    0.4464 C   0  0  0  0  0  0  0  0  0  0  0  0
   17.7592   10.9990    1.7008 F   0  0  0  0  0  0  0  0  0  0  0  0
   19.1638   11.2507    0.0428 F   0  0  0  0  0  0  0  0  0  0  0  0
   17.1110   10.6654   -0.3414 F   0  0  0  0  0  0  0  0  0  0  0  0
   16.0679   13.2032    0.6871 C   0  0  1  0  0  0  0  0  0  0  0  0
   15.7915   13.0591    2.1762 C   0  0  0  0  0  0  0  0  0  0  0  0
   16.6017   14.2039    2.7787 C   0  0  0  0  0  0  0  0  0  0  0  0
   17.2124   14.8497    1.5358 C   0  0  2  0  0  0  0  0  0  0  0  0
   16.1129   14.6497    0.5946 O   0  0  0  0  0  0  0  0  0  0  0  0
  1  2  1  0
  2  3  1  0
  3  4  2  0
  4  5  1  0
  5  6  2  0
  6  7  1  0
  7  8  2  0
  8  9  1  0
  9 10  1  0
 10 11  1  0
 11 12  1  0
 12 13  1  1
 12 14  1  0
 14 15  1  0
 15 16  1  0
 16 17  2  0
 18 16  1  1
 18 19  1  0
 19 20  1  1
 20 21  1  0
 20 22  1  0
 20 23  1  0
 19 24  1  0
 24 25  1  1
 25 26  1  0
 27 26  1  1
 27 28  1  0
  8  3  1  0
 27 18  1  0
 12  7  1  0
 28 24  1  0
M  END
>  <distance_score>  (80) 
1.966123

>  <smiles>  (80) 
COc1cccc2c1CCC[C@@]2(O)CNC(=O)[C@H]1[C@@H](C(F)(F)F)[C@H]2CC[C@@H]1O2

>  <fragmenstein_error>  (80) 
nan

>  <fragmenstein_runtime>  (80) 
nan

>  <gnina_score_min>  (80) 
4.69

>  <orig_smiles>  (80) 
nan

>  <fragmenstein_mode>  (80) 
nan

>  <rmsd(smina/fragmenstein)>  (80) 
1.564

>  <inspiration_score>  (80) 
None

>  <name>  (80) 
P498077

>  <ref_pdb>  (80) 
A0239a

>  <ref_mols>  (80) 
A0239a,A0608a

>  <subsites>  (80) 
None

>  <tags>  (80) 
openbind_a71ev2a_c1_elabs_filtered,openbind_a71ev2a_c1_elab_chemspace_filtered_scored

>  <inchikey>  (80) 
LGSYSLMQIGZFMA-WAXPSYRMSA-N

>  <scratch_subdir>  (80) 
nan

>  <smina_score_min>  (80) 
-6.064

>  <energy_score>  (80) 
-17.101132

>  <Energy>  (80) 
nan

>  <fragmenstein_outcome>  (80) 
nan

>  <alias>  (80) 
None

>  <HIPPO Pose ID>  (80) 
498077

>  <exports>  (80) 
['/opt/xchem-fragalysis-2/maxwin/openbind-hippo/a71ev2a/cycle_01/bulkdock/openbind_a71ev2a_c1_elab_chemspace.sdf', '/opt/xchem-fragalysis-2/maxwin/openbind-hippo/a71ev2a/cycle_01/syndirella/elabs/openbind_a71ev2a_c1_elab_chemspace_filtered.sdf']

>  <HIPPO Compound ID>  (80) 
290380

>  <gnina_score>  (80) 
4.601

$$$$
P498084
     RDKit          3D

 29 32  0  0  0  0  0  0  0  0999 V2000
   23.0011   11.8418   -2.2403 C   0  0  0  0  0  0  0  0  0  0  0  0
   24.0832   12.7598   -2.0764 O   0  0  0  0  0  0  0  0  0  0  0  0
   24.4188   12.8588   -0.7561 C   0  0  0  0  0  0  0  0  0  0  0  0
   25.1122   11.8264   -0.1304 C   0  0  0  0  0  0  0  0  0  0  0  0
   25.3786   11.9173    1.2271 C   0  0  0  0  0  0  0  0  0  0  0  0
   24.8677   12.9906    1.9548 C   0  0  0  0  0  0  0  0  0  0  0  0
   24.1643   14.0359    1.3160 C   0  0  0  0  0  0  0  0  0  0  0  0
   24.0675   14.0267   -0.0771 C   0  0  0  0  0  0  0  0  0  0  0  0
   23.5628   15.2274   -0.8484 C   0  0  0  0  0  0  0  0  0  0  0  0
   23.5815   16.5182   -0.0251 C   0  0  0  0  0  0  0  0  0  0  0  0
   22.8539   16.2975    1.2864 C   0  0  0  0  0  0  0  0  0  0  0  0
   23.5178   15.1638    2.1028 C   0  0  2  0  0  0  0  0  0  0  0  0
   24.5815   15.8323    2.8109 O   0  0  0  0  0  0  0  0  0  0  0  0
   22.5080   14.6237    3.1476 C   0  0  0  0  0  0  0  0  0  0  0  0
   21.1574   14.2376    2.7500 N   0  0  0  0  0  0  0  0  0  0  0  0
   20.5932   13.8308    1.3639 C   0  0  0  0  0  0  0  0  0  0  0  0
   21.1034   13.8165    0.3147 O   0  0  0  0  0  0  0  0  0  0  0  0
   19.1366   13.4094    1.5018 C   0  0  0  0  0  0  0  0  0  0  0  0
   18.2324   14.3427    2.2895 C   0  0  0  0  0  0  0  0  0  0  0  0
   16.7479   14.1607    1.9847 C   0  0  2  0  0  0  0  0  0  0  0  0
   16.1842   12.8103    2.3642 C   0  0  0  0  0  0  0  0  0  0  0  0
   15.0414   12.6378    1.3950 C   0  0  0  0  0  0  0  0  0  0  0  0
   15.5910   13.2888    0.1388 C   0  0  2  0  0  0  0  0  0  0  0  0
   16.3450   12.3179   -0.7952 C   0  0  0  0  0  0  0  0  0  0  0  0
   17.2926   11.4867   -0.1053 O   0  0  0  0  0  0  0  0  0  0  0  0
   17.3227   10.3066   -0.9050 C   0  0  0  0  0  0  0  0  0  0  0  0
   15.8802   10.1433   -1.3012 C   0  0  0  0  0  0  0  0  0  0  0  0
   15.4172   11.4817   -1.5088 O   0  0  0  0  0  0  0  0  0  0  0  0
   16.4723   14.3425    0.5940 O   0  0  0  0  0  0  0  0  0  0  0  0
  1  2  1  0
  2  3  1  0
  3  4  2  0
  4  5  1  0
  5  6  2  0
  6  7  1  0
  7  8  2  0
  8  9  1  0
  9 10  1  0
 10 11  1  0
 11 12  1  0
 12 13  1  1
 12 14  1  0
 14 15  1  0
 15 16  1  0
 16 17  2  0
 16 18  1  0
 18 19  1  0
 20 19  1  6
 20 21  1  0
 21 22  1  0
 22 23  1  0
 23 24  1  1
 24 25  1  0
 25 26  1  0
 26 27  1  0
 27 28  1  0
 23 29  1  0
  8  3  1  0
 29 20  1  0
 12  7  1  0
 28 24  1  0
M  END
>  <distance_score>  (81) 
1.682902

>  <smiles>  (81) 
COc1cccc2c1CCC[C@@]2(O)CNC(=O)CC[C@@H]1CC[C@H](C2OCCO2)O1

>  <fragmenstein_error>  (81) 
nan

>  <fragmenstein_runtime>  (81) 
nan

>  <gnina_score_min>  (81) 
4.489

>  <orig_smiles>  (81) 
nan

>  <fragmenstein_mode>  (81) 
nan

>  <rmsd(smina/fragmenstein)>  (81) 
2.014

>  <inspiration_score>  (81) 
None

>  <name>  (81) 
P498084

>  <ref_pdb>  (81) 
A0239a

>  <ref_mols>  (81) 
A0239a,A0608a

>  <subsites>  (81) 
None

>  <tags>  (81) 
openbind_a71ev2a_c1_elabs_filtered,openbind_a71ev2a_c1_elab_chemspace_filtered_scored

>  <inchikey>  (81) 
GWXVMHPMCPULTH-VQPPSCEASA-N

>  <scratch_subdir>  (81) 
nan

>  <smina_score_min>  (81) 
-4.771

>  <energy_score>  (81) 
-28.679124

>  <Energy>  (81) 
nan

>  <fragmenstein_outcome>  (81) 
nan

>  <alias>  (81) 
None

>  <HIPPO Pose ID>  (81) 
498084

>  <exports>  (81) 
['/opt/xchem-fragalysis-2/maxwin/openbind-hippo/a71ev2a/cycle_01/bulkdock/openbind_a71ev2a_c1_elab_chemspace.sdf', '/opt/xchem-fragalysis-2/maxwin/openbind-hippo/a71ev2a/cycle_01/syndirella/elabs/openbind_a71ev2a_c1_elab_chemspace_filtered.sdf']

>  <HIPPO Compound ID>  (81) 
290388

>  <gnina_score>  (81) 
4.523

$$$$
P498085
     RDKit          3D

 31 33  0  0  0  0  0  0  0  0999 V2000
   28.4394   12.3888    2.8083 C   0  0  0  0  0  0  0  0  0  0  0  0
   27.1799   13.0179    3.0191 O   0  0  0  0  0  0  0  0  0  0  0  0
   26.2444   12.8696    2.0258 C   0  0  0  0  0  0  0  0  0  0  0  0
   26.3424   11.9058    1.0202 C   0  0  0  0  0  0  0  0  0  0  0  0
   25.4090   11.8688   -0.0064 C   0  0  0  0  0  0  0  0  0  0  0  0
   24.3462   12.7660   -0.0096 C   0  0  0  0  0  0  0  0  0  0  0  0
   24.1762   13.7022    1.0319 C   0  0  0  0  0  0  0  0  0  0  0  0
   25.1566   13.7710    2.0475 C   0  0  0  0  0  0  0  0  0  0  0  0
   25.0444   14.7599    3.1931 C   0  0  0  0  0  0  0  0  0  0  0  0
   24.0244   15.8781    2.9738 C   0  0  0  0  0  0  0  0  0  0  0  0
   22.7351   15.2919    2.4200 C   0  0  0  0  0  0  0  0  0  0  0  0
   22.9859   14.6673    1.0342 C   0  0  1  0  0  0  0  0  0  0  0  0
   23.3348   15.7739    0.1771 O   0  0  0  0  0  0  0  0  0  0  0  0
   21.7020   13.9924    0.4632 C   0  0  0  0  0  0  0  0  0  0  0  0
   20.4437   14.4843    0.9776 N   0  0  0  0  0  0  0  0  0  0  0  0
   19.5894   14.0001    2.1732 C   0  0  0  0  0  0  0  0  0  0  0  0
   19.8057   13.1810    2.9727 O   0  0  0  0  0  0  0  0  0  0  0  0
   18.2936   14.7757    2.1353 C   0  0  2  0  0  0  0  0  0  0  0  0
   17.4503   14.5742    3.3907 C   0  0  0  0  0  0  0  0  0  0  0  0
   16.0834   14.3826    2.9843 O   0  0  0  0  0  0  0  0  0  0  0  0
   16.0399   14.6771    1.5870 C   0  0  2  0  0  0  0  0  0  0  0  0
   14.8214   14.0545    0.9441 C   0  0  0  0  0  0  0  0  0  0  0  0
   14.7262   12.5316    1.0079 C   0  0  0  0  0  0  0  0  0  0  0  0
   13.3683   12.0913    0.5028 C   0  0  0  0  0  0  0  0  0  0  0  0
   12.3400   12.7347    0.6654 O   0  0  0  0  0  0  0  0  0  0  0  0
   13.4698   10.9078   -0.1530 O   0  0  0  0  0  0  0  0  0  0  0  0
   12.3335   10.3552   -0.8701 C   0  0  0  0  0  0  0  0  0  0  0  0
   12.8352    9.0149   -1.4286 C   0  0  0  0  0  0  0  0  0  0  0  0
   11.1329   10.0902    0.0462 C   0  0  0  0  0  0  0  0  0  0  0  0
   11.9519   11.2641   -2.0447 C   0  0  0  0  0  0  0  0  0  0  0  0
   17.3844   14.2504    1.0464 C   0  0  0  0  0  0  0  0  0  0  0  0
  1  2  1  0
  2  3  1  0
  3  4  2  0
  4  5  1  0
  5  6  2  0
  6  7  1  0
  7  8  2  0
  8  9  1  0
  9 10  1  0
 10 11  1  0
 11 12  1  0
 12 13  1  6
 12 14  1  0
 14 15  1  0
 15 16  1  0
 16 17  2  0
 18 16  1  1
 18 19  1  0
 19 20  1  0
 20 21  1  0
 21 22  1  6
 22 23  1  0
 23 24  1  0
 24 25  2  0
 24 26  1  0
 26 27  1  0
 27 28  1  0
 27 29  1  0
 27 30  1  0
 21 31  1  0
  8  3  1  0
 31 18  1  0
 12  7  1  0
M  END
>  <distance_score>  (82) 
1.859221

>  <smiles>  (82) 
COc1cccc2c1CCC[C@]2(O)CNC(=O)[C@@H]1CO[C@H](CCC(=O)OC(C)(C)C)C1

>  <fragmenstein_error>  (82) 
nan

>  <fragmenstein_runtime>  (82) 
nan

>  <gnina_score_min>  (82) 
4.783

>  <orig_smiles>  (82) 
nan

>  <fragmenstein_mode>  (82) 
nan

>  <rmsd(smina/fragmenstein)>  (82) 
1.19

>  <inspiration_score>  (82) 
None

>  <name>  (82) 
P498085

>  <ref_pdb>  (82) 
A0239a

>  <ref_mols>  (82) 
A0239a,A0608a

>  <subsites>  (82) 
None

>  <tags>  (82) 
openbind_a71ev2a_c1_elabs_filtered,openbind_a71ev2a_c1_elab_chemspace_filtered_scored

>  <inchikey>  (82) 
YFEASNZEIXKUFH-SRGWNRLKSA-N

>  <scratch_subdir>  (82) 
nan

>  <smina_score_min>  (82) 
-5.56

>  <energy_score>  (82) 
-28.761253

>  <Energy>  (82) 
nan

>  <fragmenstein_outcome>  (82) 
nan

>  <alias>  (82) 
None

>  <HIPPO Pose ID>  (82) 
498085

>  <exports>  (82) 
['/opt/xchem-fragalysis-2/maxwin/openbind-hippo/a71ev2a/cycle_01/bulkdock/openbind_a71ev2a_c1_elab_chemspace.sdf', '/opt/xchem-fragalysis-2/maxwin/openbind-hippo/a71ev2a/cycle_01/syndirella/elabs/openbind_a71ev2a_c1_elab_chemspace_filtered.sdf']

>  <HIPPO Compound ID>  (82) 
290391

>  <gnina_score>  (82) 
4.456

$$$$
P498086
     RDKit          3D

 32 34  0  0  0  0  0  0  0  0999 V2000
   26.5784   10.4335   -1.1626 C   0  0  0  0  0  0  0  0  0  0  0  0
   25.5324   11.3952   -1.1229 O   0  0  0  0  0  0  0  0  0  0  0  0
   25.3756   12.1100    0.0393 C   0  0  0  0  0  0  0  0  0  0  0  0
   26.1692   11.9482    1.1753 C   0  0  0  0  0  0  0  0  0  0  0  0
   25.9290   12.7150    2.3115 C   0  0  0  0  0  0  0  0  0  0  0  0
   24.8821   13.6341    2.3306 C   0  0  0  0  0  0  0  0  0  0  0  0
   24.0357   13.7964    1.2184 C   0  0  0  0  0  0  0  0  0  0  0  0
   24.3215   13.0537    0.0453 C   0  0  0  0  0  0  0  0  0  0  0  0
   23.4825   13.2118   -1.2039 C   0  0  0  0  0  0  0  0  0  0  0  0
   22.6156   14.4635   -1.1966 C   0  0  0  0  0  0  0  0  0  0  0  0
   21.8623   14.5476    0.1201 C   0  0  0  0  0  0  0  0  0  0  0  0
   22.8374   14.7462    1.2995 C   0  0  2  0  0  0  0  0  0  0  0  0
   23.3615   16.0844    1.2067 O   0  0  0  0  0  0  0  0  0  0  0  0
   22.0921   14.6193    2.6628 C   0  0  0  0  0  0  0  0  0  0  0  0
   20.6713   14.9115    2.6155 N   0  0  0  0  0  0  0  0  0  0  0  0
   19.5401   14.1184    2.9721 C   0  0  0  0  0  0  0  0  0  0  0  0
   19.4665   12.9772    3.3287 O   0  0  0  0  0  0  0  0  0  0  0  0
   18.1838   14.8570    2.7535 C   0  0  2  0  0  0  0  0  0  0  0  0
   17.7018   14.5688    1.3265 C   0  0  0  0  0  0  0  0  0  0  0  0
   16.1761   14.6760    1.2004 C   0  0  1  0  0  0  0  0  0  0  0  0
   15.6764   14.2854   -0.1802 C   0  0  0  0  0  0  0  0  0  0  0  0
   15.5221   12.7894   -0.0668 C   0  0  0  0  0  0  0  0  0  0  0  0
   15.0826   12.6118    1.3696 C   0  0  0  0  0  0  0  0  0  0  0  0
   15.5430   13.7567    2.1115 O   0  0  0  0  0  0  0  0  0  0  0  0
   18.1020   16.2692    3.1064 N   0  0  0  0  0  0  0  0  0  0  0  0
   18.7530   17.3896    2.5771 C   0  0  0  0  0  0  0  0  0  0  0  0
   19.6039   17.4764    1.7519 O   0  0  0  0  0  0  0  0  0  0  0  0
   18.2431   18.4419    3.2640 O   0  0  0  0  0  0  0  0  0  0  0  0
   18.7470   19.7907    3.0621 C   0  0  0  0  0  0  0  0  0  0  0  0
   17.9257   20.6588    4.0275 C   0  0  0  0  0  0  0  0  0  0  0  0
   18.4934   20.2726    1.6301 C   0  0  0  0  0  0  0  0  0  0  0  0
   20.2263   19.8909    3.4513 C   0  0  0  0  0  0  0  0  0  0  0  0
  1  2  1  0
  2  3  1  0
  3  4  2  0
  4  5  1  0
  5  6  2  0
  6  7  1  0
  7  8  2  0
  8  9  1  0
  9 10  1  0
 10 11  1  0
 11 12  1  0
 12 13  1  6
 12 14  1  0
 14 15  1  0
 15 16  1  0
 16 17  2  0
 16 18  1  0
 18 19  1  6
 20 19  1  6
 20 21  1  0
 21 22  1  0
 22 23  1  0
 23 24  1  0
 18 25  1  0
 25 26  1  0
 26 27  2  0
 26 28  1  0
 28 29  1  0
 29 30  1  0
 29 31  1  0
 29 32  1  0
  8  3  1  0
 24 20  1  0
 12  7  1  0
M  END
>  <distance_score>  (83) 
1.954962

>  <smiles>  (83) 
COc1cccc2c1CCC[C@@]2(O)CNC(=O)[C@H](C[C@H]1CCCO1)NC(=O)OC(C)(C)C

>  <fragmenstein_error>  (83) 
nan

>  <fragmenstein_runtime>  (83) 
nan

>  <gnina_score_min>  (83) 
4.815

>  <orig_smiles>  (83) 
nan

>  <fragmenstein_mode>  (83) 
nan

>  <rmsd(smina/fragmenstein)>  (83) 
1.876

>  <inspiration_score>  (83) 
None

>  <name>  (83) 
P498086

>  <ref_pdb>  (83) 
A0239a

>  <ref_mols>  (83) 
A0239a,A0608a

>  <subsites>  (83) 
None

>  <tags>  (83) 
openbind_a71ev2a_c1_elabs_filtered,openbind_a71ev2a_c1_elab_chemspace_filtered_scored

>  <inchikey>  (83) 
NUQKPCAOSKBKHL-LNZPYGSCSA-N

>  <scratch_subdir>  (83) 
nan

>  <smina_score_min>  (83) 
-5.37

>  <energy_score>  (83) 
-65.004539

>  <Energy>  (83) 
nan

>  <fragmenstein_outcome>  (83) 
nan

>  <alias>  (83) 
None

>  <HIPPO Pose ID>  (83) 
498086

>  <exports>  (83) 
['/opt/xchem-fragalysis-2/maxwin/openbind-hippo/a71ev2a/cycle_01/bulkdock/openbind_a71ev2a_c1_elab_chemspace.sdf', '/opt/xchem-fragalysis-2/maxwin/openbind-hippo/a71ev2a/cycle_01/syndirella/elabs/openbind_a71ev2a_c1_elab_chemspace_filtered.sdf']

>  <HIPPO Compound ID>  (83) 
290398

>  <gnina_score>  (83) 
4.632

$$$$
P498090
     RDKit          3D

 32 35  0  0  0  0  0  0  0  0999 V2000
   15.9156   10.9310   -0.1754 C   0  0  0  0  0  0  0  0  0  0  0  0
   15.0953   11.6619    0.7280 O   0  0  0  0  0  0  0  0  0  0  0  0
   15.5815   12.8575    1.1725 C   0  0  0  0  0  0  0  0  0  0  0  0
   14.6597   13.6492    1.8488 C   0  0  0  0  0  0  0  0  0  0  0  0
   15.0141   14.9189    2.3034 C   0  0  0  0  0  0  0  0  0  0  0  0
   16.3106   15.4136    2.1034 C   0  0  0  0  0  0  0  0  0  0  0  0
   17.2783   14.5926    1.5012 C   0  0  0  0  0  0  0  0  0  0  0  0
   16.8824   13.3269    1.0086 C   0  0  0  0  0  0  0  0  0  0  0  0
   18.7242   15.0501    1.3067 C   0  0  2  0  0  0  0  0  0  0  0  0
   18.9651   15.0275   -0.1123 O   0  0  0  0  0  0  0  0  0  0  0  0
   19.6938   14.0510    2.0075 C   0  0  0  0  0  0  0  0  0  0  0  0
   21.0549   14.0903    1.5311 N   0  0  0  0  0  0  0  0  0  0  0  0
   22.0962   15.0548    1.7360 C   0  0  0  0  0  0  0  0  0  0  0  0
   22.1282   16.0360    2.4196 O   0  0  0  0  0  0  0  0  0  0  0  0
   23.2900   14.7038    0.7793 C   0  0  1  0  0  0  0  0  0  0  0  0
   24.5743   15.5084    1.0556 C   0  0  0  0  0  0  0  0  0  0  0  0
   25.5232   14.3968    0.8951 C   0  0  1  0  0  0  0  0  0  0  0  0
   26.6783   14.3390    1.7070 O   0  0  0  0  0  0  0  0  0  0  0  0
   26.8345   12.9372    2.0421 C   0  0  0  0  0  0  0  0  0  0  0  0
   25.5962   12.2064    1.5195 C   0  0  0  0  0  0  0  0  0  0  0  0
   24.5991   13.3499    1.4418 C   0  0  2  0  0  0  0  0  0  0  0  0
   23.4119   13.1383    0.5965 N   0  0  0  0  0  0  0  0  0  0  0  0
   23.2998   12.7969   -0.7624 C   0  0  0  0  0  0  0  0  0  0  0  0
   24.1390   12.6764   -1.6065 O   0  0  0  0  0  0  0  0  0  0  0  0
   21.9713   12.5783   -0.9784 O   0  0  0  0  0  0  0  0  0  0  0  0
   21.4787   12.1440   -2.2725 C   0  0  0  0  0  0  0  0  0  0  0  0
   22.0567   10.7792   -2.6634 C   0  0  0  0  0  0  0  0  0  0  0  0
   21.7305   13.2073   -3.3458 C   0  0  0  0  0  0  0  0  0  0  0  0
   19.9619   11.9890   -2.0782 C   0  0  0  0  0  0  0  0  0  0  0  0
   19.0018   16.4852    1.8059 C   0  0  0  0  0  0  0  0  0  0  0  0
   17.7812   17.3930    1.7051 C   0  0  0  0  0  0  0  0  0  0  0  0
   16.6420   16.8161    2.5392 C   0  0  0  0  0  0  0  0  0  0  0  0
  1  2  1  0
  2  3  1  0
  3  4  2  0
  4  5  1  0
  5  6  2  0
  6  7  1  0
  7  8  2  0
  7  9  1  0
  9 10  1  6
  9 11  1  0
 11 12  1  0
 12 13  1  0
 13 14  2  0
 15 13  1  1
 15 16  1  0
 17 16  1  1
 17 18  1  0
 18 19  1  0
 19 20  1  0
 21 20  1  6
 21 22  1  0
 22 23  1  0
 23 24  2  0
 23 25  1  0
 25 26  1  0
 26 27  1  0
 26 28  1  0
 26 29  1  0
  9 30  1  0
 30 31  1  0
 31 32  1  0
  8  3  1  0
 22 15  1  0
 32  6  1  0
 21 17  1  0
M  END
>  <distance_score>  (84) 
1.906524

>  <smiles>  (84) 
COc1ccc2c(c1)[C@](O)(CNC(=O)[C@H]1C[C@H]3OCC[C@@H]3N1C(=O)OC(C)(C)C)CCC2

>  <fragmenstein_error>  (84) 
nan

>  <fragmenstein_runtime>  (84) 
nan

>  <gnina_score_min>  (84) 
4.598

>  <orig_smiles>  (84) 
nan

>  <fragmenstein_mode>  (84) 
nan

>  <rmsd(smina/fragmenstein)>  (84) 
1.336

>  <inspiration_score>  (84) 
None

>  <name>  (84) 
P498090

>  <ref_pdb>  (84) 
A0239a

>  <ref_mols>  (84) 
A0239a,A0608a

>  <subsites>  (84) 
None

>  <tags>  (84) 
openbind_a71ev2a_c1_elabs_filtered,openbind_a71ev2a_c1_elab_chemspace_filtered_scored

>  <inchikey>  (84) 
CXCVHSLVCNIDCB-UECWXEIQSA-N

>  <scratch_subdir>  (84) 
nan

>  <smina_score_min>  (84) 
-4.864

>  <energy_score>  (84) 
-8.70178

>  <Energy>  (84) 
nan

>  <fragmenstein_outcome>  (84) 
nan

>  <alias>  (84) 
None

>  <HIPPO Pose ID>  (84) 
498090

>  <exports>  (84) 
['/opt/xchem-fragalysis-2/maxwin/openbind-hippo/a71ev2a/cycle_01/syndirella/elabs/openbind_a71ev2a_c1_elab_chemspace_filtered.sdf']

>  <HIPPO Compound ID>  (84) 
290402

>  <gnina_score>  (84) 
4.823

$$$$
P498092
     RDKit          3D

 23 26  0  0  0  0  0  0  0  0999 V2000
   16.3327   15.1720   31.3974 C   0  0  0  0  0  0  0  0  0  0  0  0
   16.3022   14.2407   30.2233 C   0  0  0  0  0  0  0  0  0  0  0  0
   17.1306   14.4709   29.1240 C   0  0  0  0  0  0  0  0  0  0  0  0
   17.0888   13.6208   28.0132 C   0  0  0  0  0  0  0  0  0  0  0  0
   16.2264   12.5101   27.9488 C   0  0  0  0  0  0  0  0  0  0  0  0
   16.1433   11.6034   26.6358 C   0  0  1  0  0  0  0  0  0  0  0  0
   16.0298   10.1260   26.7432 C   0  0  0  0  0  0  0  0  0  0  0  0
   15.1947   10.2818   25.5042 C   0  0  0  0  0  0  0  0  0  0  0  0
   14.7501   11.6859   25.9954 N   0  0  0  0  0  0  0  0  0  0  0  0
   14.2515   12.5092   24.8887 C   0  0  0  0  0  0  0  0  0  0  0  0
   14.8161   13.2410   24.1812 O   0  0  0  0  0  0  0  0  0  0  0  0
   12.7203   12.5375   24.6367 C   0  0  1  0  0  0  0  0  0  0  0  0
   12.3967   13.3578   23.3534 C   0  0  0  0  0  0  0  0  0  0  0  0
   10.9602   13.8584   23.3251 C   0  0  0  0  0  0  0  0  0  0  0  0
   10.0709   12.9299   24.0010 N   0  0  0  0  0  0  0  0  0  0  0  0
    8.6778   13.1938   23.7116 C   0  0  0  0  0  0  0  0  0  0  0  0
    7.8104   12.4434   24.7113 C   0  0  0  0  0  0  0  0  0  0  0  0
    8.3782   11.0859   25.1075 C   0  0  0  0  0  0  0  0  0  0  0  0
    9.4152   10.5254   24.1474 C   0  0  0  0  0  0  0  0  0  0  0  0
   10.5085   11.5435   23.8188 C   0  0  2  0  0  0  0  0  0  0  0  0
   11.7106   11.4163   24.7784 C   0  0  0  0  0  0  0  0  0  0  0  0
   15.4042   12.3036   29.0766 C   0  0  0  0  0  0  0  0  0  0  0  0
   15.4346   13.1498   30.1910 C   0  0  0  0  0  0  0  0  0  0  0  0
  1  2  1  0
  2  3  2  0
  3  4  1  0
  4  5  2  0
  6  5  1  1
  6  7  1  0
  7  8  1  0
  8  9  1  0
  9 10  1  0
 10 11  2  0
 12 10  1  6
 12 13  1  0
 13 14  1  0
 14 15  1  0
 15 16  1  0
 16 17  1  0
 17 18  1  0
 18 19  1  0
 20 19  1  1
 20 21  1  0
  5 22  1  0
 22 23  2  0
 23  2  1  0
  9  6  1  0
 21 12  1  0
 20 15  1  0
M  END
>  <distance_score>  (85) 
1.674073

>  <smiles>  (85) 
Cc1ccc([C@H]2CCN2C(=O)[C@H]2CCN3CCCC[C@@H]3C2)cc1

>  <fragmenstein_error>  (85) 
nan

>  <fragmenstein_runtime>  (85) 
nan

>  <gnina_score_min>  (85) 
5.202

>  <orig_smiles>  (85) 
nan

>  <fragmenstein_mode>  (85) 
nan

>  <rmsd(smina/fragmenstein)>  (85) 
0.553

>  <inspiration_score>  (85) 
None

>  <name>  (85) 
P498092

>  <ref_pdb>  (85) 
A0875a

>  <ref_mols>  (85) 
A4715a,A0875a

>  <subsites>  (85) 
None

>  <tags>  (85) 
openbind_a71ev2a_c1_elabs_filtered,openbind_a71ev2a_c1_elab_chemspace_filtered_scored

>  <inchikey>  (85) 
COGZSGIFCMKNCJ-IPMKNSEASA-N

>  <scratch_subdir>  (85) 
nan

>  <smina_score_min>  (85) 
-5.564

>  <energy_score>  (85) 
-4.057004

>  <Energy>  (85) 
nan

>  <fragmenstein_outcome>  (85) 
nan

>  <alias>  (85) 
None

>  <HIPPO Pose ID>  (85) 
498092

>  <exports>  (85) 
['/opt/xchem-fragalysis-2/maxwin/openbind-hippo/a71ev2a/cycle_01/bulkdock/openbind_a71ev2a_c1_elab_chemspace.sdf', '/opt/xchem-fragalysis-2/maxwin/openbind-hippo/a71ev2a/cycle_01/syndirella/elabs/openbind_a71ev2a_c1_elab_chemspace_filtered.sdf']

>  <HIPPO Compound ID>  (85) 
290503

>  <gnina_score>  (85) 
5.239

$$$$
P498094
     RDKit          3D

 24 27  0  0  0  0  0  0  0  0999 V2000
   22.0127   13.0099   26.3206 C   0  0  0  0  0  0  0  0  0  0  0  0
   20.6504   12.6571   26.8370 C   0  0  0  0  0  0  0  0  0  0  0  0
   20.4073   11.4133   27.4148 C   0  0  0  0  0  0  0  0  0  0  0  0
   19.1206   11.0789   27.8548 C   0  0  0  0  0  0  0  0  0  0  0  0
   18.0138   11.9507   27.7295 C   0  0  0  0  0  0  0  0  0  0  0  0
   16.6092   11.5323   28.3643 C   0  0  1  0  0  0  0  0  0  0  0  0
   16.0861   12.2799   29.5646 C   0  0  0  0  0  0  0  0  0  0  0  0
   15.2965   13.0238   28.5363 C   0  0  0  0  0  0  0  0  0  0  0  0
   15.2417   11.7203   27.6764 N   0  0  0  0  0  0  0  0  0  0  0  0
   14.8936   12.0263   26.2176 C   0  0  0  0  0  0  0  0  0  0  0  0
   15.5945   12.2661   25.3012 O   0  0  0  0  0  0  0  0  0  0  0  0
   13.3595   11.9544   26.1439 C   0  0  1  0  0  0  0  0  0  0  0  0
   12.7331   13.2905   26.1890 C   0  0  0  0  0  0  0  0  0  0  0  0
   11.2740   13.4385   26.1794 C   0  0  0  0  0  0  0  0  0  0  0  0
   10.7438   14.3472   26.8121 O   0  0  0  0  0  0  0  0  0  0  0  0
   10.6181   12.5744   25.3468 N   0  0  0  0  0  0  0  0  0  0  0  0
    9.2723   13.0025   24.9817 C   0  0  0  0  0  0  0  0  0  0  0  0
    8.5496   12.0037   24.1151 C   0  0  0  0  0  0  0  0  0  0  0  0
    9.0064   10.6002   24.4520 C   0  0  0  0  0  0  0  0  0  0  0  0
   10.4936   10.4203   24.1649 C   0  0  0  0  0  0  0  0  0  0  0  0
   11.3416   11.6782   24.4508 C   0  0  2  0  0  0  0  0  0  0  0  0
   12.8124   11.3082   24.8918 C   0  0  0  0  0  0  0  0  0  0  0  0
   18.2925   13.1822   27.1094 C   0  0  0  0  0  0  0  0  0  0  0  0
   19.5798   13.5364   26.6796 C   0  0  0  0  0  0  0  0  0  0  0  0
  1  2  1  0
  2  3  2  0
  3  4  1  0
  4  5  2  0
  6  5  1  6
  6  7  1  0
  7  8  1  0
  8  9  1  0
  9 10  1  0
 10 11  2  0
 12 10  1  6
 12 13  1  0
 13 14  1  0
 14 15  2  0
 14 16  1  0
 16 17  1  0
 17 18  1  0
 18 19  1  0
 19 20  1  0
 21 20  1  1
 21 22  1  0
  5 23  1  0
 23 24  2  0
 24  2  1  0
  9  6  1  0
 22 12  1  0
 21 16  1  0
M  END
>  <distance_score>  (86) 
1.616035

>  <smiles>  (86) 
Cc1ccc([C@H]2CCN2C(=O)[C@H]2CC(=O)N3CCCC[C@@H]3C2)cc1

>  <fragmenstein_error>  (86) 
nan

>  <fragmenstein_runtime>  (86) 
nan

>  <gnina_score_min>  (86) 
5.068

>  <orig_smiles>  (86) 
nan

>  <fragmenstein_mode>  (86) 
nan

>  <rmsd(smina/fragmenstein)>  (86) 
0.502

>  <inspiration_score>  (86) 
None

>  <name>  (86) 
P498094

>  <ref_pdb>  (86) 
A0875a

>  <ref_mols>  (86) 
A4715a,A0875a

>  <subsites>  (86) 
None

>  <tags>  (86) 
openbind_a71ev2a_c1_elabs_filtered,openbind_a71ev2a_c1_elab_chemspace_filtered_scored

>  <inchikey>  (86) 
OAZIUWAMLYAFKS-KZNAEPCWSA-N

>  <scratch_subdir>  (86) 
nan

>  <smina_score_min>  (86) 
-5.364

>  <energy_score>  (86) 
-3.022094

>  <Energy>  (86) 
nan

>  <fragmenstein_outcome>  (86) 
nan

>  <alias>  (86) 
None

>  <HIPPO Pose ID>  (86) 
498094

>  <exports>  (86) 
['/opt/xchem-fragalysis-2/maxwin/openbind-hippo/a71ev2a/cycle_01/bulkdock/openbind_a71ev2a_c1_elab_chemspace.sdf', '/opt/xchem-fragalysis-2/maxwin/openbind-hippo/a71ev2a/cycle_01/syndirella/elabs/openbind_a71ev2a_c1_elab_chemspace_filtered.sdf']

>  <HIPPO Compound ID>  (86) 
290537

>  <gnina_score>  (86) 
5.112

$$$$
P498098
     RDKit          3D

 24 27  0  0  0  0  0  0  0  0999 V2000
   19.5375   16.0223   29.0268 C   0  0  0  0  0  0  0  0  0  0  0  0
   18.2632   15.2316   29.0075 C   0  0  0  0  0  0  0  0  0  0  0  0
   17.1684   15.6319   29.7729 C   0  0  0  0  0  0  0  0  0  0  0  0
   15.9776   14.9166   29.7098 C   0  0  0  0  0  0  0  0  0  0  0  0
   15.8684   13.8067   28.8694 C   0  0  0  0  0  0  0  0  0  0  0  0
   16.9438   13.3601   28.0773 C   0  0  0  0  0  0  0  0  0  0  0  0
   16.8601   12.0863   27.1233 C   0  0  1  0  0  0  0  0  0  0  0  0
   16.8109   10.6951   27.7409 C   0  0  1  0  0  0  0  0  0  0  0  0
   16.0665   10.4600   29.0457 C   0  0  0  0  0  0  0  0  0  0  0  0
   16.0927   10.3917   26.4500 C   0  0  0  0  0  0  0  0  0  0  0  0
   15.4963   11.8226   26.4794 N   0  0  0  0  0  0  0  0  0  0  0  0
   14.9550   12.2194   25.1381 C   0  0  0  0  0  0  0  0  0  0  0  0
   15.4771   12.7554   24.2421 O   0  0  0  0  0  0  0  0  0  0  0  0
   13.4459   11.9405   25.0212 C   0  0  1  0  0  0  0  0  0  0  0  0
   12.8234   12.5750   26.2339 C   0  0  0  0  0  0  0  0  0  0  0  0
   11.3671   12.9581   26.0971 C   0  0  0  0  0  0  0  0  0  0  0  0
   10.8273   13.4216   24.8393 N   0  0  0  0  0  0  0  0  0  0  0  0
    9.3675   13.5262   24.8992 C   0  0  0  0  0  0  0  0  0  0  0  0
    8.6004   12.2092   24.9573 C   0  0  0  0  0  0  0  0  0  0  0  0
    9.0839   11.2774   23.8792 C   0  0  0  0  0  0  0  0  0  0  0  0
   10.5934   11.1768   23.7846 C   0  0  0  0  0  0  0  0  0  0  0  0
   11.2470   12.5729   23.7417 C   0  0  2  0  0  0  0  0  0  0  0  0
   12.7717   12.6098   23.7959 C   0  0  0  0  0  0  0  0  0  0  0  0
   18.1348   14.1135   28.1689 C   0  0  0  0  0  0  0  0  0  0  0  0
  1  2  1  0
  2  3  2  0
  3  4  1  0
  4  5  2  0
  5  6  1  0
  7  6  1  1
  7  8  1  0
  8  9  1  1
  8 10  1  0
 10 11  1  0
 11 12  1  0
 12 13  2  0
 14 12  1  6
 14 15  1  0
 15 16  1  0
 16 17  1  0
 17 18  1  0
 18 19  1  0
 19 20  1  0
 20 21  1  0
 22 21  1  1
 22 23  1  0
  6 24  2  0
 24  2  1  0
 11  7  1  0
 23 14  1  0
 22 17  1  0
M  END
>  <distance_score>  (87) 
1.511397

>  <smiles>  (87) 
Cc1cccc([C@H]2[C@@H](C)CN2C(=O)[C@H]2CCN3CCCC[C@@H]3C2)c1

>  <fragmenstein_error>  (87) 
nan

>  <fragmenstein_runtime>  (87) 
nan

>  <gnina_score_min>  (87) 
5.045

>  <orig_smiles>  (87) 
nan

>  <fragmenstein_mode>  (87) 
nan

>  <rmsd(smina/fragmenstein)>  (87) 
0.936

>  <inspiration_score>  (87) 
None

>  <name>  (87) 
P498098

>  <ref_pdb>  (87) 
A0875a

>  <ref_mols>  (87) 
A4715a,A0875a

>  <subsites>  (87) 
None

>  <tags>  (87) 
openbind_a71ev2a_c1_elabs_filtered,openbind_a71ev2a_c1_elab_chemspace_filtered_scored

>  <inchikey>  (87) 
CLXHEGOWLIWWGY-IJXRJRJASA-N

>  <scratch_subdir>  (87) 
nan

>  <smina_score_min>  (87) 
-5.954

>  <energy_score>  (87) 
-16.580824

>  <Energy>  (87) 
nan

>  <fragmenstein_outcome>  (87) 
nan

>  <alias>  (87) 
None

>  <HIPPO Pose ID>  (87) 
498098

>  <exports>  (87) 
['/opt/xchem-fragalysis-2/maxwin/openbind-hippo/a71ev2a/cycle_01/bulkdock/openbind_a71ev2a_c1_elab_chemspace.sdf', '/opt/xchem-fragalysis-2/maxwin/openbind-hippo/a71ev2a/cycle_01/syndirella/elabs/openbind_a71ev2a_c1_elab_chemspace_filtered.sdf']

>  <HIPPO Compound ID>  (87) 
290543

>  <gnina_score>  (87) 
5.212

$$$$
P498104
     RDKit          3D

 24 27  0  0  0  0  0  0  0  0999 V2000
   18.8515   11.4508   27.7614 C   0  0  0  0  0  0  0  0  0  0  0  0
   17.8870   12.6102   27.7678 C   0  0  0  0  0  0  0  0  0  0  0  0
   18.4957   13.8543   28.0647 C   0  0  0  0  0  0  0  0  0  0  0  0
   17.7418   14.9783   28.3390 C   0  0  0  0  0  0  0  0  0  0  0  0
   16.3694   14.8537   28.3723 C   0  0  0  0  0  0  0  0  0  0  0  0
   15.7476   13.6363   28.0240 C   0  0  0  0  0  0  0  0  0  0  0  0
   14.2768   13.5531   28.2859 C   0  0  0  0  0  0  0  0  0  0  0  0
   16.4711   12.4906   27.5839 C   0  0  0  0  0  0  0  0  0  0  0  0
   15.6558   11.1544   27.0862 C   0  0  2  0  0  0  0  0  0  0  0  0
   16.5131    9.9040   26.6440 C   0  0  0  0  0  0  0  0  0  0  0  0
   15.5567    9.6381   25.4703 C   0  0  0  0  0  0  0  0  0  0  0  0
   15.0746   10.9453   25.7420 N   0  0  0  0  0  0  0  0  0  0  0  0
   14.3025   11.7672   24.9852 C   0  0  0  0  0  0  0  0  0  0  0  0
   14.9729   12.4964   24.2482 O   0  0  0  0  0  0  0  0  0  0  0  0
   12.7433   11.9817   24.9986 C   0  0  1  0  0  0  0  0  0  0  0  0
   12.4379   13.1182   23.9908 C   0  0  0  0  0  0  0  0  0  0  0  0
   11.0861   13.7485   24.2606 C   0  0  0  0  0  0  0  0  0  0  0  0
   10.0577   12.7516   24.0647 N   0  0  0  0  0  0  0  0  0  0  0  0
    8.7156   13.3303   24.0369 C   0  0  0  0  0  0  0  0  0  0  0  0
    7.8305   12.8000   25.1532 C   0  0  0  0  0  0  0  0  0  0  0  0
    7.8065   11.2868   25.1717 C   0  0  0  0  0  0  0  0  0  0  0  0
    9.0812   10.6481   24.6368 C   0  0  0  0  0  0  0  0  0  0  0  0
   10.2401   11.5867   24.9354 C   0  0  1  0  0  0  0  0  0  0  0  0
   11.6134   10.9529   24.6763 C   0  0  0  0  0  0  0  0  0  0  0  0
  1  2  1  0
  2  3  2  0
  3  4  1  0
  4  5  2  0
  5  6  1  0
  6  7  1  0
  6  8  2  0
  9  8  1  6
  9 10  1  0
 10 11  1  0
 11 12  1  0
 12 13  1  0
 13 14  2  0
 15 13  1  6
 15 16  1  0
 16 17  1  0
 17 18  1  0
 18 19  1  0
 19 20  1  0
 20 21  1  0
 21 22  1  0
 23 22  1  6
 23 24  1  0
  8  2  1  0
 12  9  1  0
 24 15  1  0
 23 18  1  0
M  END
>  <distance_score>  (88) 
1.383248

>  <smiles>  (88) 
Cc1cccc(C)c1[C@@H]1CCN1C(=O)[C@H]1CCN2CCCC[C@H]2C1

>  <fragmenstein_error>  (88) 
nan

>  <fragmenstein_runtime>  (88) 
nan

>  <gnina_score_min>  (88) 
5.423

>  <orig_smiles>  (88) 
nan

>  <fragmenstein_mode>  (88) 
nan

>  <rmsd(smina/fragmenstein)>  (88) 
0.213

>  <inspiration_score>  (88) 
None

>  <name>  (88) 
P498104

>  <ref_pdb>  (88) 
A0875a

>  <ref_mols>  (88) 
A4715a,A0875a

>  <subsites>  (88) 
None

>  <tags>  (88) 
openbind_a71ev2a_c1_elabs_filtered,openbind_a71ev2a_c1_elab_chemspace_filtered_scored

>  <inchikey>  (88) 
LHVCCJKVWHWWTJ-FHWLQOOXSA-N

>  <scratch_subdir>  (88) 
nan

>  <smina_score_min>  (88) 
-6.943

>  <energy_score>  (88) 
-13.288755

>  <Energy>  (88) 
nan

>  <fragmenstein_outcome>  (88) 
nan

>  <alias>  (88) 
None

>  <HIPPO Pose ID>  (88) 
498104

>  <exports>  (88) 
['/opt/xchem-fragalysis-2/maxwin/openbind-hippo/a71ev2a/cycle_01/bulkdock/openbind_a71ev2a_c1_elab_chemspace.sdf', '/opt/xchem-fragalysis-2/maxwin/openbind-hippo/a71ev2a/cycle_01/syndirella/elabs/openbind_a71ev2a_c1_elab_chemspace_filtered.sdf']

>  <HIPPO Compound ID>  (88) 
290544

>  <gnina_score>  (88) 
5.375

$$$$
P498107
     RDKit          3D

 24 27  0  0  0  0  0  0  0  0999 V2000
   18.4647   18.4313   28.3588 C   0  0  0  0  0  0  0  0  0  0  0  0
   17.9821   17.0175   28.2372 C   0  0  0  0  0  0  0  0  0  0  0  0
   18.8570   15.9958   27.8683 C   0  0  0  0  0  0  0  0  0  0  0  0
   18.3886   14.6866   27.7101 C   0  0  0  0  0  0  0  0  0  0  0  0
   17.0341   14.3402   27.8986 C   0  0  0  0  0  0  0  0  0  0  0  0
   16.5491   12.8352   27.7237 C   0  0  1  0  0  0  0  0  0  0  0  0
   16.2379   12.0701   29.0039 C   0  0  1  0  0  0  0  0  0  0  0  0
   15.5406   12.7311   30.1853 C   0  0  0  0  0  0  0  0  0  0  0  0
   15.3405   11.2940   28.0928 C   0  0  0  0  0  0  0  0  0  0  0  0
   15.1122   12.5684   27.2248 N   0  0  0  0  0  0  0  0  0  0  0  0
   14.5910   12.2095   25.8287 C   0  0  0  0  0  0  0  0  0  0  0  0
   15.1786   11.9774   24.8303 O   0  0  0  0  0  0  0  0  0  0  0  0
   13.0430   12.1665   25.9132 C   0  0  1  0  0  0  0  0  0  0  0  0
   12.3368   13.4812   25.7332 C   0  0  0  0  0  0  0  0  0  0  0  0
   10.8626   13.6073   25.3551 C   0  0  0  0  0  0  0  0  0  0  0  0
   10.5147   12.6657   24.3162 N   0  0  0  0  0  0  0  0  0  0  0  0
    9.0908   12.7476   23.9725 C   0  0  0  0  0  0  0  0  0  0  0  0
    8.2780   11.6553   24.6557 C   0  0  0  0  0  0  0  0  0  0  0  0
    8.8374   10.2636   24.3273 C   0  0  0  0  0  0  0  0  0  0  0  0
   10.3076   10.2542   23.9477 C   0  0  0  0  0  0  0  0  0  0  0  0
   10.9519   11.3475   24.7528 C   0  0  1  0  0  0  0  0  0  0  0  0
   12.4756   11.2992   24.8241 C   0  0  0  0  0  0  0  0  0  0  0  0
   16.1779   15.3950   28.2671 C   0  0  0  0  0  0  0  0  0  0  0  0
   16.6344   16.7092   28.4245 C   0  0  0  0  0  0  0  0  0  0  0  0
  1  2  1  0
  2  3  2  0
  3  4  1  0
  4  5  2  0
  6  5  1  1
  6  7  1  0
  7  8  1  1
  7  9  1  0
  9 10  1  0
 10 11  1  0
 11 12  2  0
 13 11  1  6
 13 14  1  0
 14 15  1  0
 15 16  1  0
 16 17  1  0
 17 18  1  0
 18 19  1  0
 19 20  1  0
 21 20  1  6
 21 22  1  0
  5 23  1  0
 23 24  2  0
 24  2  1  0
 10  6  1  0
 22 13  1  0
 21 16  1  0
M  END
>  <distance_score>  (89) 
1.691363

>  <smiles>  (89) 
Cc1ccc([C@H]2[C@@H](C)CN2C(=O)[C@H]2CCN3CCCC[C@H]3C2)cc1

>  <fragmenstein_error>  (89) 
nan

>  <fragmenstein_runtime>  (89) 
nan

>  <gnina_score_min>  (89) 
5.127

>  <orig_smiles>  (89) 
nan

>  <fragmenstein_mode>  (89) 
nan

>  <rmsd(smina/fragmenstein)>  (89) 
0.411

>  <inspiration_score>  (89) 
None

>  <name>  (89) 
P498107

>  <ref_pdb>  (89) 
A0875a

>  <ref_mols>  (89) 
A4715a,A0875a

>  <subsites>  (89) 
None

>  <tags>  (89) 
openbind_a71ev2a_c1_elabs_filtered,openbind_a71ev2a_c1_elab_chemspace_filtered_scored

>  <inchikey>  (89) 
YAXIPCYAEZJWQU-FRYIKTPZSA-N

>  <scratch_subdir>  (89) 
nan

>  <smina_score_min>  (89) 
-5.557

>  <energy_score>  (89) 
-11.843741

>  <Energy>  (89) 
nan

>  <fragmenstein_outcome>  (89) 
nan

>  <alias>  (89) 
None

>  <HIPPO Pose ID>  (89) 
498107

>  <exports>  (89) 
['/opt/xchem-fragalysis-2/maxwin/openbind-hippo/a71ev2a/cycle_01/bulkdock/openbind_a71ev2a_c1_elab_chemspace.sdf', '/opt/xchem-fragalysis-2/maxwin/openbind-hippo/a71ev2a/cycle_01/syndirella/elabs/openbind_a71ev2a_c1_elab_chemspace_filtered.sdf']

>  <HIPPO Compound ID>  (89) 
290545

>  <gnina_score>  (89) 
5.088

$$$$
P498109
     RDKit          3D

 24 27  0  0  0  0  0  0  0  0999 V2000
   11.9823   14.6694   20.8264 C   0  0  0  0  0  0  0  0  0  0  0  0
   11.2502   15.1056   21.9954 N   0  0  0  0  0  0  0  0  0  0  0  0
    9.8150   15.4688   21.6300 C   0  0  0  0  0  0  0  0  0  0  0  0
    9.5036   14.9850   23.0381 C   0  0  1  0  0  0  0  0  0  0  0  0
    8.2879   14.4133   23.5266 N   0  0  0  0  0  0  0  0  0  0  0  0
    8.0106   13.0362   24.1391 C   0  0  0  0  0  0  0  0  0  0  0  0
    8.7115   12.1137   24.2746 O   0  0  0  0  0  0  0  0  0  0  0  0
    6.6100   12.9491   24.7388 C   0  0  2  0  0  0  0  0  0  0  0  0
    5.5037   14.0262   24.6480 C   0  0  0  0  0  0  0  0  0  0  0  0
    4.6225   14.2534   25.8902 C   0  0  0  0  0  0  0  0  0  0  0  0
    5.2330   13.7816   27.1385 N   0  0  0  0  0  0  0  0  0  0  0  0
    4.3757   14.0451   28.3029 C   0  0  0  0  0  0  0  0  0  0  0  0
    3.4986   12.8614   28.6963 C   0  0  0  0  0  0  0  0  0  0  0  0
    4.3329   11.6121   28.9818 C   0  0  0  0  0  0  0  0  0  0  0  0
    5.6860   11.6214   28.2839 C   0  0  0  0  0  0  0  0  0  0  0  0
    5.5891   12.3672   26.9666 C   0  0  2  0  0  0  0  0  0  0  0  0
    6.8387   12.3267   26.1321 C   0  0  0  0  0  0  0  0  0  0  0  0
   10.6278   13.9506   22.7371 C   0  0  2  0  0  0  0  0  0  0  0  0
   11.4926   13.3972   23.9280 C   0  0  0  0  0  0  0  0  0  0  0  0
   12.6239   12.6221   23.6893 C   0  0  0  0  0  0  0  0  0  0  0  0
   13.4681   12.1182   24.6854 C   0  0  0  0  0  0  0  0  0  0  0  0
   13.1999   12.4325   25.9964 C   0  0  0  0  0  0  0  0  0  0  0  0
   12.0753   13.1975   26.2768 C   0  0  0  0  0  0  0  0  0  0  0  0
   11.1996   13.6008   25.2735 C   0  0  0  0  0  0  0  0  0  0  0  0
  1  2  1  0
  2  3  1  0
  3  4  1  0
  4  5  1  6
  5  6  1  0
  6  7  2  0
  8  6  1  1
  8  9  1  0
  9 10  1  0
 10 11  1  0
 11 12  1  0
 12 13  1  0
 13 14  1  0
 14 15  1  0
 16 15  1  1
 16 17  1  0
  4 18  1  0
 18 19  1  1
 19 20  2  0
 20 21  1  0
 21 22  2  0
 22 23  1  0
 23 24  2  0
 18  2  1  0
 24 19  1  0
 17  8  1  0
 16 11  1  0
M  END
>  <distance_score>  (90) 
1.763716

>  <smiles>  (90) 
CN1C[C@@H](NC(=O)[C@@H]2CCN3CCCC[C@@H]3C2)[C@@H]1c1ccccc1

>  <fragmenstein_error>  (90) 
nan

>  <fragmenstein_runtime>  (90) 
nan

>  <gnina_score_min>  (90) 
4.892

>  <orig_smiles>  (90) 
nan

>  <fragmenstein_mode>  (90) 
nan

>  <rmsd(smina/fragmenstein)>  (90) 
0.301

>  <inspiration_score>  (90) 
None

>  <name>  (90) 
P498109

>  <ref_pdb>  (90) 
A0875a

>  <ref_mols>  (90) 
A4715a,A0875a

>  <subsites>  (90) 
None

>  <tags>  (90) 
openbind_a71ev2a_c1_elabs_filtered,openbind_a71ev2a_c1_elab_chemspace_filtered_scored

>  <inchikey>  (90) 
YFDNBOCSUSYKBB-MKXGPGLRSA-N

>  <scratch_subdir>  (90) 
nan

>  <smina_score_min>  (90) 
-5.499

>  <energy_score>  (90) 
-9.005297

>  <Energy>  (90) 
nan

>  <fragmenstein_outcome>  (90) 
nan

>  <alias>  (90) 
None

>  <HIPPO Pose ID>  (90) 
498109

>  <exports>  (90) 
['/opt/xchem-fragalysis-2/maxwin/openbind-hippo/a71ev2a/cycle_01/bulkdock/openbind_a71ev2a_c1_elab_chemspace.sdf', '/opt/xchem-fragalysis-2/maxwin/openbind-hippo/a71ev2a/cycle_01/syndirella/elabs/openbind_a71ev2a_c1_elab_chemspace_filtered.sdf']

>  <HIPPO Compound ID>  (90) 
290556

>  <gnina_score>  (90) 
4.889

$$$$
P498116
     RDKit          3D

 25 28  0  0  0  0  0  0  0  0999 V2000
   15.3936   14.1762   32.1047 C   0  0  0  0  0  0  0  0  0  0  0  0
   15.2344   13.6140   30.7245 C   0  0  0  0  0  0  0  0  0  0  0  0
   14.7632   12.3151   30.5419 C   0  0  0  0  0  0  0  0  0  0  0  0
   14.8265   11.7115   29.2823 C   0  0  0  0  0  0  0  0  0  0  0  0
   15.3722   12.3694   28.1631 C   0  0  0  0  0  0  0  0  0  0  0  0
   15.8617   11.6047   26.8639 C   0  0  1  0  0  0  0  0  0  0  0  0
   16.6640   10.3487   27.1951 C   0  0  2  0  0  0  0  0  0  0  0  0
   18.1446   10.5158   27.4708 C   0  0  0  0  0  0  0  0  0  0  0  0
   16.2314    9.9323   25.8300 C   0  0  0  0  0  0  0  0  0  0  0  0
   14.9230   10.6630   25.9567 N   0  0  0  0  0  0  0  0  0  0  0  0
   14.1416   11.4720   24.9409 C   0  0  0  0  0  0  0  0  0  0  0  0
   14.4172   11.7803   23.8413 O   0  0  0  0  0  0  0  0  0  0  0  0
   12.7775   11.7997   25.4961 C   0  0  1  0  0  0  0  0  0  0  0  0
   12.4402   13.2341   25.4020 C   0  0  0  0  0  0  0  0  0  0  0  0
   10.9852   13.5236   25.3412 C   0  0  0  0  0  0  0  0  0  0  0  0
   10.4387   14.1894   26.2096 O   0  0  0  0  0  0  0  0  0  0  0  0
   10.3751   13.0066   24.2271 N   0  0  0  0  0  0  0  0  0  0  0  0
    9.0299   13.4489   23.9054 C   0  0  0  0  0  0  0  0  0  0  0  0
    8.0075   12.6051   24.6537 C   0  0  0  0  0  0  0  0  0  0  0  0
    8.4689   11.1540   24.7681 C   0  0  0  0  0  0  0  0  0  0  0  0
    9.5059   10.7833   23.6937 C   0  0  0  0  0  0  0  0  0  0  0  0
   10.7699   11.6703   23.7880 C   0  0  2  0  0  0  0  0  0  0  0  0
   11.6628   10.9729   24.8208 C   0  0  0  0  0  0  0  0  0  0  0  0
   15.7329   13.7186   28.3589 C   0  0  0  0  0  0  0  0  0  0  0  0
   15.6756   14.3306   29.6137 C   0  0  0  0  0  0  0  0  0  0  0  0
  1  2  1  0
  2  3  2  0
  3  4  1  0
  4  5  2  0
  6  5  1  1
  6  7  1  0
  7  8  1  6
  7  9  1  0
  9 10  1  0
 10 11  1  0
 11 12  2  0
 13 11  1  6
 13 14  1  0
 14 15  1  0
 15 16  2  0
 15 17  1  0
 17 18  1  0
 18 19  1  0
 19 20  1  0
 20 21  1  0
 22 21  1  1
 22 23  1  0
  5 24  1  0
 24 25  2  0
 25  2  1  0
 10  6  1  0
 23 13  1  0
 22 17  1  0
M  END
>  <distance_score>  (91) 
1.099157

>  <smiles>  (91) 
Cc1ccc([C@H]2[C@H](C)CN2C(=O)[C@H]2CC(=O)N3CCCC[C@@H]3C2)cc1

>  <fragmenstein_error>  (91) 
nan

>  <fragmenstein_runtime>  (91) 
nan

>  <gnina_score_min>  (91) 
5.67

>  <orig_smiles>  (91) 
nan

>  <fragmenstein_mode>  (91) 
nan

>  <rmsd(smina/fragmenstein)>  (91) 
0.272

>  <inspiration_score>  (91) 
None

>  <name>  (91) 
P498116

>  <ref_pdb>  (91) 
A0875a

>  <ref_mols>  (91) 
A4715a,A0875a

>  <subsites>  (91) 
None

>  <tags>  (91) 
openbind_a71ev2a_c1_elabs_filtered,openbind_a71ev2a_c1_elab_chemspace_filtered_scored

>  <inchikey>  (91) 
FLBAKFIONSGKOO-DLVXIWMQSA-N

>  <scratch_subdir>  (91) 
nan

>  <smina_score_min>  (91) 
-6.965

>  <energy_score>  (91) 
-2.767204

>  <Energy>  (91) 
nan

>  <fragmenstein_outcome>  (91) 
nan

>  <alias>  (91) 
None

>  <HIPPO Pose ID>  (91) 
498116

>  <exports>  (91) 
['/opt/xchem-fragalysis-2/maxwin/openbind-hippo/a71ev2a/cycle_01/bulkdock/openbind_a71ev2a_c1_elab_chemspace.sdf', '/opt/xchem-fragalysis-2/maxwin/openbind-hippo/a71ev2a/cycle_01/syndirella/elabs/openbind_a71ev2a_c1_elab_chemspace_filtered.sdf']

>  <HIPPO Compound ID>  (91) 
290592

>  <gnina_score>  (91) 
5.644

$$$$
P498124
     RDKit          3D

 25 28  0  0  0  0  0  0  0  0999 V2000
   14.7279   11.8935   30.3568 C   0  0  0  0  0  0  0  0  0  0  0  0
   15.5930   12.9007   29.6417 C   0  0  0  0  0  0  0  0  0  0  0  0
   15.8689   14.0887   30.3466 C   0  0  0  0  0  0  0  0  0  0  0  0
   16.7612   15.0148   29.8427 C   0  0  0  0  0  0  0  0  0  0  0  0
   17.4181   14.7304   28.6588 C   0  0  0  0  0  0  0  0  0  0  0  0
   17.1307   13.5598   27.9239 C   0  0  0  0  0  0  0  0  0  0  0  0
   18.0361   13.2763   26.7639 C   0  0  0  0  0  0  0  0  0  0  0  0
   16.1273   12.6437   28.3354 C   0  0  0  0  0  0  0  0  0  0  0  0
   15.6082   11.3804   27.4893 C   0  0  2  0  0  0  0  0  0  0  0  0
   16.5706   10.2130   27.0736 C   0  0  0  0  0  0  0  0  0  0  0  0
   15.7147   10.0231   25.7606 C   0  0  0  0  0  0  0  0  0  0  0  0
   15.2753   11.3390   26.0752 N   0  0  0  0  0  0  0  0  0  0  0  0
   14.7140   12.2750   25.2899 C   0  0  0  0  0  0  0  0  0  0  0  0
   15.4989   13.0386   24.7320 O   0  0  0  0  0  0  0  0  0  0  0  0
   13.2287   12.5745   25.1054 C   0  0  2  0  0  0  0  0  0  0  0  0
   12.5897   13.0577   26.3760 C   0  0  0  0  0  0  0  0  0  0  0  0
   11.2366   13.6998   26.0926 C   0  0  0  0  0  0  0  0  0  0  0  0
   10.7691   14.5608   26.8252 O   0  0  0  0  0  0  0  0  0  0  0  0
   10.5874   13.1523   24.9984 N   0  0  0  0  0  0  0  0  0  0  0  0
    9.3822   13.6815   24.3934 C   0  0  0  0  0  0  0  0  0  0  0  0
    8.1739   12.8508   24.8074 C   0  0  0  0  0  0  0  0  0  0  0  0
    8.4484   11.3500   24.6855 C   0  0  0  0  0  0  0  0  0  0  0  0
    9.7808   11.0350   23.9945 C   0  0  0  0  0  0  0  0  0  0  0  0
   10.8281   11.7542   24.8293 C   0  0  1  0  0  0  0  0  0  0  0  0
   12.2837   11.5803   24.4757 C   0  0  0  0  0  0  0  0  0  0  0  0
  1  2  1  0
  2  3  2  0
  3  4  1  0
  4  5  2  0
  5  6  1  0
  6  7  1  0
  6  8  2  0
  9  8  1  6
  9 10  1  0
 10 11  1  0
 11 12  1  0
 12 13  1  0
 13 14  2  0
 15 13  1  1
 15 16  1  0
 16 17  1  0
 17 18  2  0
 17 19  1  0
 19 20  1  0
 20 21  1  0
 21 22  1  0
 22 23  1  0
 24 23  1  6
 24 25  1  0
  8  2  1  0
 12  9  1  0
 25 15  1  0
 24 19  1  0
M  END
>  <distance_score>  (92) 
1.289533

>  <smiles>  (92) 
Cc1cccc(C)c1[C@@H]1CCN1C(=O)[C@@H]1CC(=O)N2CCCC[C@H]2C1

>  <fragmenstein_error>  (92) 
nan

>  <fragmenstein_runtime>  (92) 
nan

>  <gnina_score_min>  (92) 
5.52

>  <orig_smiles>  (92) 
nan

>  <fragmenstein_mode>  (92) 
nan

>  <rmsd(smina/fragmenstein)>  (92) 
0.662

>  <inspiration_score>  (92) 
None

>  <name>  (92) 
P498124

>  <ref_pdb>  (92) 
A0875a

>  <ref_mols>  (92) 
A4715a,A0875a

>  <subsites>  (92) 
None

>  <tags>  (92) 
openbind_a71ev2a_c1_elabs_filtered,openbind_a71ev2a_c1_elab_chemspace_filtered_scored

>  <inchikey>  (92) 
CWGIDFNUSCDTNL-BZSNNMDCSA-N

>  <scratch_subdir>  (92) 
nan

>  <smina_score_min>  (92) 
-6.958

>  <energy_score>  (92) 
-4.273056

>  <Energy>  (92) 
nan

>  <fragmenstein_outcome>  (92) 
nan

>  <alias>  (92) 
None

>  <HIPPO Pose ID>  (92) 
498124

>  <exports>  (92) 
['/opt/xchem-fragalysis-2/maxwin/openbind-hippo/a71ev2a/cycle_01/bulkdock/openbind_a71ev2a_c1_elab_chemspace.sdf', '/opt/xchem-fragalysis-2/maxwin/openbind-hippo/a71ev2a/cycle_01/syndirella/elabs/openbind_a71ev2a_c1_elab_chemspace_filtered.sdf']

>  <HIPPO Compound ID>  (92) 
290593

>  <gnina_score>  (92) 
5.346

$$$$
P498129
     RDKit          3D

 25 28  0  0  0  0  0  0  0  0999 V2000
   18.8956    7.8816   28.3241 C   0  0  0  0  0  0  0  0  0  0  0  0
   17.6564    8.5552   28.8313 C   0  0  0  0  0  0  0  0  0  0  0  0
   17.0405    8.0913   29.9944 C   0  0  0  0  0  0  0  0  0  0  0  0
   15.9033    8.7275   30.4787 C   0  0  0  0  0  0  0  0  0  0  0  0
   15.3795    9.8365   29.8061 C   0  0  0  0  0  0  0  0  0  0  0  0
   15.9602   10.3479   28.6244 C   0  0  0  0  0  0  0  0  0  0  0  0
   15.5492   11.7256   27.9758 C   0  0  2  0  0  0  0  0  0  0  0  0
   15.0117   12.7644   28.9774 C   0  0  1  0  0  0  0  0  0  0  0  0
   16.0200   13.4962   29.8434 C   0  0  0  0  0  0  0  0  0  0  0  0
   14.5952   13.4686   27.7241 C   0  0  0  0  0  0  0  0  0  0  0  0
   14.3137   12.0738   27.0871 N   0  0  0  0  0  0  0  0  0  0  0  0
   14.1745   12.1709   25.5383 C   0  0  0  0  0  0  0  0  0  0  0  0
   14.9978   12.0785   24.6866 O   0  0  0  0  0  0  0  0  0  0  0  0
   12.7035   12.5543   25.1043 C   0  0  1  0  0  0  0  0  0  0  0  0
   12.6645   13.2819   23.7454 C   0  0  0  0  0  0  0  0  0  0  0  0
   11.2889   13.8785   23.5023 C   0  0  0  0  0  0  0  0  0  0  0  0
   11.1110   14.9943   23.0338 O   0  0  0  0  0  0  0  0  0  0  0  0
   10.2635   13.0003   23.8202 N   0  0  0  0  0  0  0  0  0  0  0  0
    8.8781   13.3720   23.6172 C   0  0  0  0  0  0  0  0  0  0  0  0
    7.9638   12.6803   24.6223 C   0  0  0  0  0  0  0  0  0  0  0  0
    8.3844   11.2633   24.9945 C   0  0  0  0  0  0  0  0  0  0  0  0
    9.4342   10.6644   24.0769 C   0  0  0  0  0  0  0  0  0  0  0  0
   10.6223   11.6004   23.8738 C   0  0  2  0  0  0  0  0  0  0  0  0
   11.6480   11.4564   25.0003 C   0  0  0  0  0  0  0  0  0  0  0  0
   17.1121    9.6655   28.1636 C   0  0  0  0  0  0  0  0  0  0  0  0
  1  2  1  0
  2  3  2  0
  3  4  1  0
  4  5  2  0
  5  6  1  0
  7  6  1  1
  7  8  1  0
  8  9  1  6
  8 10  1  0
 10 11  1  0
 11 12  1  0
 12 13  2  0
 14 12  1  6
 14 15  1  0
 15 16  1  0
 16 17  2  0
 16 18  1  0
 18 19  1  0
 19 20  1  0
 20 21  1  0
 21 22  1  0
 23 22  1  1
 23 24  1  0
  6 25  2  0
 25  2  1  0
 11  7  1  0
 24 14  1  0
 23 18  1  0
M  END
>  <distance_score>  (93) 
1.56878

>  <smiles>  (93) 
Cc1cccc([C@@H]2[C@@H](C)CN2C(=O)[C@H]2CC(=O)N3CCCC[C@@H]3C2)c1

>  <fragmenstein_error>  (93) 
nan

>  <fragmenstein_runtime>  (93) 
nan

>  <gnina_score_min>  (93) 
5.62

>  <orig_smiles>  (93) 
nan

>  <fragmenstein_mode>  (93) 
nan

>  <rmsd(smina/fragmenstein)>  (93) 
0.476

>  <inspiration_score>  (93) 
None

>  <name>  (93) 
P498129

>  <ref_pdb>  (93) 
A0875a

>  <ref_mols>  (93) 
A4715a,A0875a

>  <subsites>  (93) 
None

>  <tags>  (93) 
openbind_a71ev2a_c1_elabs_filtered,openbind_a71ev2a_c1_elab_chemspace_filtered_scored

>  <inchikey>  (93) 
RLXBDCJKAIEIGC-MMTROXRISA-N

>  <scratch_subdir>  (93) 
nan

>  <smina_score_min>  (93) 
-7.469

>  <energy_score>  (93) 
-14.696644

>  <Energy>  (93) 
nan

>  <fragmenstein_outcome>  (93) 
nan

>  <alias>  (93) 
None

>  <HIPPO Pose ID>  (93) 
498129

>  <exports>  (93) 
['/opt/xchem-fragalysis-2/maxwin/openbind-hippo/a71ev2a/cycle_01/bulkdock/openbind_a71ev2a_c1_elab_chemspace.sdf', '/opt/xchem-fragalysis-2/maxwin/openbind-hippo/a71ev2a/cycle_01/syndirella/elabs/openbind_a71ev2a_c1_elab_chemspace_filtered.sdf']

>  <HIPPO Compound ID>  (93) 
290594

>  <gnina_score>  (93) 
5.546

$$$$
P498132
     RDKit          3D

 25 28  0  0  0  0  0  0  0  0999 V2000
   11.0933   14.5555   21.3500 C   0  0  0  0  0  0  0  0  0  0  0  0
   10.4619   15.0764   22.5676 N   0  0  0  0  0  0  0  0  0  0  0  0
    8.9807   15.2579   22.3578 C   0  0  0  0  0  0  0  0  0  0  0  0
    8.7572   13.8291   22.9088 C   0  0  2  0  0  0  0  0  0  0  0  0
    7.6228   13.5080   23.8045 N   0  0  0  0  0  0  0  0  0  0  0  0
    7.6094   13.0318   25.2873 C   0  0  0  0  0  0  0  0  0  0  0  0
    8.4874   12.8961   26.0464 O   0  0  0  0  0  0  0  0  0  0  0  0
    6.1894   12.6016   25.7011 C   0  0  2  0  0  0  0  0  0  0  0  0
    5.3993   13.5778   26.5429 C   0  0  0  0  0  0  0  0  0  0  0  0
    5.8046   13.6170   28.0049 C   0  0  0  0  0  0  0  0  0  0  0  0
    5.8342   14.6649   28.6456 O   0  0  0  0  0  0  0  0  0  0  0  0
    6.0605   12.3966   28.5934 N   0  0  0  0  0  0  0  0  0  0  0  0
    5.9650   12.3131   30.0540 C   0  0  0  0  0  0  0  0  0  0  0  0
    5.3501   10.9919   30.5189 C   0  0  0  0  0  0  0  0  0  0  0  0
    4.1872   10.5391   29.6237 C   0  0  0  0  0  0  0  0  0  0  0  0
    4.4058   10.7452   28.1182 C   0  0  0  0  0  0  0  0  0  0  0  0
    5.8282   11.1773   27.8479 C   0  0  1  0  0  0  0  0  0  0  0  0
    6.3173   11.2474   26.3985 C   0  0  0  0  0  0  0  0  0  0  0  0
   10.1138   14.0755   23.6116 C   0  0  1  0  0  0  0  0  0  0  0  0
   11.1371   12.9268   23.9267 C   0  0  0  0  0  0  0  0  0  0  0  0
   10.7414   11.6166   24.2222 C   0  0  0  0  0  0  0  0  0  0  0  0
   11.6490   10.6806   24.7095 C   0  0  0  0  0  0  0  0  0  0  0  0
   12.9841   11.0445   24.9519 C   0  0  0  0  0  0  0  0  0  0  0  0
   13.4153   12.3112   24.6423 C   0  0  0  0  0  0  0  0  0  0  0  0
   12.5036   13.1998   24.0894 C   0  0  0  0  0  0  0  0  0  0  0  0
  1  2  1  0
  2  3  1  0
  3  4  1  0
  4  5  1  1
  5  6  1  0
  6  7  2  0
  8  6  1  1
  8  9  1  0
  9 10  1  0
 10 11  2  0
 10 12  1  0
 12 13  1  0
 13 14  1  0
 14 15  1  0
 15 16  1  0
 17 16  1  6
 17 18  1  0
  4 19  1  0
 19 20  1  6
 20 21  2  0
 21 22  1  0
 22 23  2  0
 23 24  1  0
 24 25  2  0
 19  2  1  0
 25 20  1  0
 18  8  1  0
 17 12  1  0
M  END
>  <distance_score>  (94) 
1.874222

>  <smiles>  (94) 
CN1C[C@H](NC(=O)[C@@H]2CC(=O)N3CCCC[C@H]3C2)[C@H]1c1ccccc1

>  <fragmenstein_error>  (94) 
nan

>  <fragmenstein_runtime>  (94) 
nan

>  <gnina_score_min>  (94) 
4.842

>  <orig_smiles>  (94) 
nan

>  <fragmenstein_mode>  (94) 
nan

>  <rmsd(smina/fragmenstein)>  (94) 
1.167

>  <inspiration_score>  (94) 
None

>  <name>  (94) 
P498132

>  <ref_pdb>  (94) 
A0875a

>  <ref_mols>  (94) 
A4715a,A0875a

>  <subsites>  (94) 
None

>  <tags>  (94) 
openbind_a71ev2a_c1_elabs_filtered,openbind_a71ev2a_c1_elab_chemspace_filtered_scored

>  <inchikey>  (94) 
QSVAIPBOUAGPDJ-LSTDLKDCSA-N

>  <scratch_subdir>  (94) 
nan

>  <smina_score_min>  (94) 
-6.825

>  <energy_score>  (94) 
-17.605524

>  <Energy>  (94) 
nan

>  <fragmenstein_outcome>  (94) 
nan

>  <alias>  (94) 
None

>  <HIPPO Pose ID>  (94) 
498132

>  <exports>  (94) 
['/opt/xchem-fragalysis-2/maxwin/openbind-hippo/a71ev2a/cycle_01/syndirella/elabs/openbind_a71ev2a_c1_elab_chemspace_filtered.sdf']

>  <HIPPO Compound ID>  (94) 
290595

>  <gnina_score>  (94) 
4.963

$$$$
P498135
     RDKit          3D

 22 24  0  0  0  0  0  0  0  0999 V2000
   11.7587   14.0456   21.1768 C   0  0  0  0  0  0  0  0  0  0  0  0
   11.5188   15.5147   21.0798 C   0  0  2  0  0  0  0  0  0  0  0  0
   10.9069   16.2008   22.6582 S   0  0  0  0  0  0  0  0  0  0  0  0
   10.5086   14.8376   23.5809 C   0  0  0  0  0  0  0  0  0  0  0  0
   11.3708   14.2984   24.4021 N   0  0  0  0  0  0  0  0  0  0  0  0
   10.9308   13.0455   24.6637 N   0  0  0  0  0  0  0  0  0  0  0  0
    9.7511   12.8988   24.0982 C   0  0  0  0  0  0  0  0  0  0  0  0
    8.9011   11.7557   24.2480 C   0  0  0  0  0  0  0  0  0  0  0  0
    7.8452   11.8510   25.1482 C   0  0  0  0  0  0  0  0  0  0  0  0
    7.1394   10.7092   25.4268 C   0  0  0  0  0  0  0  0  0  0  0  0
    7.4321    9.5156   24.8865 N   0  0  0  0  0  0  0  0  0  0  0  0
    8.4537    9.4550   23.9983 C   0  0  0  0  0  0  0  0  0  0  0  0
    9.1921   10.5512   23.6236 C   0  0  0  0  0  0  0  0  0  0  0  0
    9.4111   14.0449   23.4385 N   0  0  0  0  0  0  0  0  0  0  0  0
    8.1941   14.2606   22.7019 C   0  0  0  0  0  0  0  0  0  0  0  0
   10.5942   15.7712   19.8932 C   0  0  0  0  0  0  0  0  0  0  0  0
   10.7449   15.2094   18.8111 O   0  0  0  0  0  0  0  0  0  0  0  0
    9.6064   16.7696   20.1491 C   0  0  0  0  0  0  0  0  0  0  0  0
    9.5743   18.1080   19.8656 C   0  0  0  0  0  0  0  0  0  0  0  0
    8.6770   18.6960   20.7524 C   0  0  0  0  0  0  0  0  0  0  0  0
    8.0438   17.6518   21.3833 C   0  0  0  0  0  0  0  0  0  0  0  0
    8.5823   16.4708   21.0032 O   0  0  0  0  0  0  0  0  0  0  0  0
  2  1  1  1
  2  3  1  0
  3  4  1  0
  4  5  2  0
  5  6  1  0
  6  7  2  0
  7  8  1  0
  8  9  2  0
  9 10  1  0
 10 11  2  0
 11 12  1  0
 12 13  2  0
  7 14  1  0
 14 15  1  0
  2 16  1  0
 16 17  2  0
 16 18  1  0
 18 19  2  0
 19 20  1  0
 20 21  2  0
 21 22  1  0
 14  4  1  0
 22 18  1  0
 13  8  1  0
M  END
>  <distance_score>  (95) 
1.91381

>  <smiles>  (95) 
C[C@H](Sc1nnc(-c2ccncc2)n1C)C(=O)c1ccco1

>  <fragmenstein_error>  (95) 
nan

>  <fragmenstein_runtime>  (95) 
nan

>  <gnina_score_min>  (95) 
5.542

>  <orig_smiles>  (95) 
nan

>  <fragmenstein_mode>  (95) 
nan

>  <rmsd(smina/fragmenstein)>  (95) 
0.458

>  <inspiration_score>  (95) 
None

>  <name>  (95) 
P498135

>  <ref_pdb>  (95) 
A4298a

>  <ref_mols>  (95) 
A4298a,A1778a

>  <subsites>  (95) 
None

>  <tags>  (95) 
openbind_a71ev2a_c1_elabs_filtered,openbind_a71ev2a_c1_elab_chemspace_filtered_scored

>  <inchikey>  (95) 
CZHDIBGDQUZUQC-JTQLQIEISA-N

>  <scratch_subdir>  (95) 
nan

>  <smina_score_min>  (95) 
-3.355

>  <energy_score>  (95) 
-2.605288

>  <Energy>  (95) 
nan

>  <fragmenstein_outcome>  (95) 
nan

>  <alias>  (95) 
None

>  <HIPPO Pose ID>  (95) 
498135

>  <exports>  (95) 
['/opt/xchem-fragalysis-2/maxwin/openbind-hippo/a71ev2a/cycle_01/syndirella/elabs/openbind_a71ev2a_c1_elab_chemspace_filtered.sdf']

>  <HIPPO Compound ID>  (95) 
290811

>  <gnina_score>  (95) 
5.456

$$$$
P498137
     RDKit          3D

 28 31  0  0  0  0  0  0  0  0999 V2000
   11.9180   13.8201   23.0985 C   0  0  0  0  0  0  0  0  0  0  0  0
   11.2622   14.7849   22.1600 C   0  0  2  0  0  0  0  0  0  0  0  0
    9.4042   14.6579   22.2341 S   0  0  0  0  0  0  0  0  0  0  0  0
    9.2328   15.0310   23.8838 C   0  0  0  0  0  0  0  0  0  0  0  0
   10.0477   15.7822   24.5735 N   0  0  0  0  0  0  0  0  0  0  0  0
    9.6087   15.7634   25.8546 N   0  0  0  0  0  0  0  0  0  0  0  0
    8.4908   15.0499   25.9121 C   0  0  0  0  0  0  0  0  0  0  0  0
    7.6413   14.9968   27.0980 C   0  0  0  0  0  0  0  0  0  0  0  0
    6.2470   14.9515   27.0416 C   0  0  0  0  0  0  0  0  0  0  0  0
    5.5281   14.9380   28.2280 C   0  0  0  0  0  0  0  0  0  0  0  0
    6.0947   14.9881   29.4498 N   0  0  0  0  0  0  0  0  0  0  0  0
    7.4354   15.1078   29.4898 C   0  0  0  0  0  0  0  0  0  0  0  0
    8.2351   15.1264   28.3595 C   0  0  0  0  0  0  0  0  0  0  0  0
    8.3204   14.4341   24.6929 N   0  0  0  0  0  0  0  0  0  0  0  0
    7.4067   13.3867   24.3068 C   0  0  0  0  0  0  0  0  0  0  0  0
    8.0034   11.9964   24.3521 C   0  0  0  0  0  0  0  0  0  0  0  0
    9.0362   11.5516   23.5116 C   0  0  0  0  0  0  0  0  0  0  0  0
    9.3228   10.1975   23.3735 C   0  0  0  0  0  0  0  0  0  0  0  0
    8.6198    9.2677   24.1042 C   0  0  0  0  0  0  0  0  0  0  0  0
    7.6328    9.6915   24.9829 C   0  0  0  0  0  0  0  0  0  0  0  0
    7.3390   11.0421   25.1244 C   0  0  0  0  0  0  0  0  0  0  0  0
   11.6543   14.6586   20.6941 C   0  0  0  0  0  0  0  0  0  0  0  0
   12.3446   13.8078   20.1620 O   0  0  0  0  0  0  0  0  0  0  0  0
   10.9893   15.6460   19.9578 C   0  0  0  0  0  0  0  0  0  0  0  0
   10.5119   16.8509   20.3994 C   0  0  0  0  0  0  0  0  0  0  0  0
    9.6889   17.2703   19.3917 C   0  0  0  0  0  0  0  0  0  0  0  0
    9.5735   16.1965   18.5180 C   0  0  0  0  0  0  0  0  0  0  0  0
   10.4735   15.2558   18.7885 O   0  0  0  0  0  0  0  0  0  0  0  0
  2  1  1  1
  2  3  1  0
  3  4  1  0
  4  5  2  0
  5  6  1  0
  6  7  2  0
  7  8  1  0
  8  9  2  0
  9 10  1  0
 10 11  2  0
 11 12  1  0
 12 13  2  0
  7 14  1  0
 14 15  1  0
 15 16  1  0
 16 17  2  0
 17 18  1  0
 18 19  2  0
 19 20  1  0
 20 21  2  0
  2 22  1  0
 22 23  2  0
 22 24  1  0
 24 25  2  0
 25 26  1  0
 26 27  2  0
 27 28  1  0
 14  4  1  0
 21 16  1  0
 28 24  1  0
 13  8  1  0
M  END
>  <distance_score>  (96) 
1.985255

>  <smiles>  (96) 
C[C@H](Sc1nnc(-c2ccncc2)n1Cc1ccccc1)C(=O)c1ccco1

>  <fragmenstein_error>  (96) 
nan

>  <fragmenstein_runtime>  (96) 
nan

>  <gnina_score_min>  (96) 
6.031

>  <orig_smiles>  (96) 
nan

>  <fragmenstein_mode>  (96) 
nan

>  <rmsd(smina/fragmenstein)>  (96) 
0.681

>  <inspiration_score>  (96) 
None

>  <name>  (96) 
P498137

>  <ref_pdb>  (96) 
A4298a

>  <ref_mols>  (96) 
A4298a,A1778a

>  <subsites>  (96) 
None

>  <tags>  (96) 
openbind_a71ev2a_c1_elabs_filtered,openbind_a71ev2a_c1_elab_chemspace_filtered_scored

>  <inchikey>  (96) 
TUXDIXYASZVFEY-HNNXBMFYSA-N

>  <scratch_subdir>  (96) 
nan

>  <smina_score_min>  (96) 
-4.44

>  <energy_score>  (96) 
-0.765736

>  <Energy>  (96) 
nan

>  <fragmenstein_outcome>  (96) 
nan

>  <alias>  (96) 
None

>  <HIPPO Pose ID>  (96) 
498137

>  <exports>  (96) 
['/opt/xchem-fragalysis-2/maxwin/openbind-hippo/a71ev2a/cycle_01/bulkdock/openbind_a71ev2a_c1_elab_chemspace.sdf', '/opt/xchem-fragalysis-2/maxwin/openbind-hippo/a71ev2a/cycle_01/syndirella/elabs/openbind_a71ev2a_c1_elab_chemspace_filtered.sdf']

>  <HIPPO Compound ID>  (96) 
290827

>  <gnina_score>  (96) 
6.159

$$$$
P498138
     RDKit          3D

 19 21  0  0  0  0  0  0  0  0999 V2000
   12.7360   15.5945   22.1811 C   0  0  0  0  0  0  0  0  0  0  0  0
   11.8953   14.4921   21.6029 C   0  0  1  0  0  0  0  0  0  0  0  0
   10.8943   14.0181   22.5118 N   0  0  0  0  0  0  0  0  0  0  0  0
   10.8049   14.1232   24.0405 C   0  0  0  0  0  0  0  0  0  0  0  0
   11.4894   14.6773   24.7993 O   0  0  0  0  0  0  0  0  0  0  0  0
    9.6396   13.2959   24.4235 C   0  0  0  0  0  0  0  0  0  0  0  0
    9.5144   11.9498   23.9088 C   0  0  0  0  0  0  0  0  0  0  0  0
    8.5256   11.1995   24.3696 C   0  0  0  0  0  0  0  0  0  0  0  0
    7.6395   11.6885   25.2739 N   0  0  0  0  0  0  0  0  0  0  0  0
    7.6518   12.9564   25.7571 C   0  0  0  0  0  0  0  0  0  0  0  0
    6.8376   13.3293   26.5897 O   0  0  0  0  0  0  0  0  0  0  0  0
    8.7539   13.8153   25.2847 C   0  0  0  0  0  0  0  0  0  0  0  0
    6.6056   10.8098   25.7104 C   0  0  0  0  0  0  0  0  0  0  0  0
    6.8645    9.4579   25.1215 C   0  0  0  0  0  0  0  0  0  0  0  0
    8.2578    9.5701   23.9713 S   0  0  0  0  0  0  0  0  0  0  0  0
   11.0825   14.8502   20.3779 C   0  0  1  0  0  0  0  0  0  0  0  0
   10.2087   16.1015   20.2666 C   0  0  0  0  0  0  0  0  0  0  0  0
   10.6750   16.0403   18.8070 C   0  0  0  0  0  0  0  0  0  0  0  0
   11.8555   15.2699   19.2223 O   0  0  0  0  0  0  0  0  0  0  0  0
  2  1  1  1
  2  3  1  0
  3  4  1  0
  4  5  2  0
  4  6  1  0
  6  7  1  0
  7  8  2  0
  8  9  1  0
  9 10  1  0
 10 11  2  0
 10 12  1  0
  9 13  1  0
 13 14  1  0
 14 15  1  0
  2 16  1  0
 16 17  1  1
 17 18  1  0
 18 19  1  0
 12  6  2  0
 19 16  1  0
 15  8  1  0
M  END
>  <distance_score>  (97) 
1.911063

>  <smiles>  (97) 
C[C@@H](NC(=O)c1cc2n(c(=O)c1)CCS2)[C@H]1CCO1

>  <fragmenstein_error>  (97) 
nan

>  <fragmenstein_runtime>  (97) 
nan

>  <gnina_score_min>  (97) 
4.672

>  <orig_smiles>  (97) 
nan

>  <fragmenstein_mode>  (97) 
nan

>  <rmsd(smina/fragmenstein)>  (97) 
1.118

>  <inspiration_score>  (97) 
None

>  <name>  (97) 
P498138

>  <ref_pdb>  (97) 
A3176a

>  <ref_mols>  (97) 
A3176a,A2629a

>  <subsites>  (97) 
None

>  <tags>  (97) 
openbind_a71ev2a_c1_elabs_filtered,openbind_a71ev2a_c1_elab_chemspace_filtered_scored

>  <inchikey>  (97) 
QMSYPFAHUSABMU-PSASIEDQSA-N

>  <scratch_subdir>  (97) 
nan

>  <smina_score_min>  (97) 
-6.296

>  <energy_score>  (97) 
-20.258617

>  <Energy>  (97) 
nan

>  <fragmenstein_outcome>  (97) 
nan

>  <alias>  (97) 
None

>  <HIPPO Pose ID>  (97) 
498138

>  <exports>  (97) 
['/opt/xchem-fragalysis-2/maxwin/openbind-hippo/a71ev2a/cycle_01/syndirella/elabs/openbind_a71ev2a_c1_elab_chemspace_filtered.sdf']

>  <HIPPO Compound ID>  (97) 
290958

>  <gnina_score>  (97) 
5.059

$$$$
P498140
     RDKit          3D

 20 20  0  0  0  0  0  0  0  0999 V2000
   12.7841   13.8519   24.4584 C   0  0  0  0  0  0  0  0  0  0  0  0
   12.6379   14.5035   23.2924 C   0  0  0  0  0  0  0  0  0  0  0  0
   11.7135   14.1518   22.1492 C   0  0  2  0  0  0  0  0  0  0  0  0
   11.2370   15.3832   21.3674 C   0  0  0  0  0  0  0  0  0  0  0  0
   10.5545   14.9861   20.1744 O   0  0  0  0  0  0  0  0  0  0  0  0
   11.3916   14.9875   19.0268 C   0  0  0  0  0  0  0  0  0  0  0  0
   10.5972   13.4092   22.6674 N   0  0  0  0  0  0  0  0  0  0  0  0
    9.6181   13.7415   23.8032 C   0  0  0  0  0  0  0  0  0  0  0  0
    9.5110   14.7049   24.4512 O   0  0  0  0  0  0  0  0  0  0  0  0
    8.7356   12.5868   24.1820 C   0  0  0  0  0  0  0  0  0  0  0  0
    8.9410   11.2654   23.8104 C   0  0  0  0  0  0  0  0  0  0  0  0
    8.1498   10.3003   24.3980 C   0  0  0  0  0  0  0  0  0  0  0  0
    7.1980   10.5702   25.3118 N   0  0  0  0  0  0  0  0  0  0  0  0
    6.9667   11.8591   25.6474 C   0  0  0  0  0  0  0  0  0  0  0  0
    5.7286   12.0362   26.9118 S   0  0  0  0  0  0  0  0  0  0  0  0
    5.0570   13.7685   26.8834 C   0  0  0  0  0  0  0  0  0  0  0  0
    6.0085   14.7347   27.6024 C   0  0  0  0  0  0  0  0  0  0  0  0
    3.7603   13.6890   27.7216 C   0  0  0  0  0  0  0  0  0  0  0  0
    4.6678   14.2691   25.4893 C   0  0  0  0  0  0  0  0  0  0  0  0
    7.7217   12.8716   25.0996 C   0  0  0  0  0  0  0  0  0  0  0  0
  1  2  2  0
  2  3  1  0
  3  4  1  1
  4  5  1  0
  5  6  1  0
  3  7  1  0
  7  8  1  0
  8  9  2  0
  8 10  1  0
 10 11  2  0
 11 12  1  0
 12 13  2  0
 13 14  1  0
 14 15  1  0
 15 16  1  0
 16 17  1  0
 16 18  1  0
 16 19  1  0
 14 20  2  0
 20 10  1  0
M  END
>  <distance_score>  (98) 
1.940412

>  <smiles>  (98) 
C=C[C@H](COC)NC(=O)c1ccnc(SC(C)(C)C)c1

>  <fragmenstein_error>  (98) 
nan

>  <fragmenstein_runtime>  (98) 
nan

>  <gnina_score_min>  (98) 
5.381

>  <orig_smiles>  (98) 
nan

>  <fragmenstein_mode>  (98) 
nan

>  <rmsd(smina/fragmenstein)>  (98) 
0.631

>  <inspiration_score>  (98) 
None

>  <name>  (98) 
P498140

>  <ref_pdb>  (98) 
A3176a

>  <ref_mols>  (98) 
A3176a,A2629a

>  <subsites>  (98) 
None

>  <tags>  (98) 
openbind_a71ev2a_c1_elabs_filtered,openbind_a71ev2a_c1_elab_chemspace_filtered_scored

>  <inchikey>  (98) 
AXWGJRFGSYSISW-GFCCVEGCSA-N

>  <scratch_subdir>  (98) 
nan

>  <smina_score_min>  (98) 
-5.61

>  <energy_score>  (98) 
-0.212605

>  <Energy>  (98) 
nan

>  <fragmenstein_outcome>  (98) 
nan

>  <alias>  (98) 
None

>  <HIPPO Pose ID>  (98) 
498140

>  <exports>  (98) 
['/opt/xchem-fragalysis-2/maxwin/openbind-hippo/a71ev2a/cycle_01/bulkdock/openbind_a71ev2a_c1_elab_chemspace.sdf', '/opt/xchem-fragalysis-2/maxwin/openbind-hippo/a71ev2a/cycle_01/syndirella/elabs/openbind_a71ev2a_c1_elab_chemspace_filtered.sdf']

>  <HIPPO Compound ID>  (98) 
291028

>  <gnina_score>  (98) 
5.272

$$$$
P498141
     RDKit          3D

 20 20  0  0  0  0  0  0  0  0999 V2000
   12.5364   14.4492   24.7985 C   0  0  0  0  0  0  0  0  0  0  0  0
   12.7068   14.4674   23.2853 C   0  0  0  0  0  0  0  0  0  0  0  0
   11.5166   14.9482   22.4610 C   0  0  1  0  0  0  0  0  0  0  0  0
   11.8048   14.8356   20.9666 C   0  0  0  0  0  0  0  0  0  0  0  0
   10.6779   15.3247   20.2498 O   0  0  0  0  0  0  0  0  0  0  0  0
   10.8961   15.2981   18.8467 C   0  0  0  0  0  0  0  0  0  0  0  0
   10.3538   14.2312   22.9065 N   0  0  0  0  0  0  0  0  0  0  0  0
    9.4723   14.4367   24.1345 C   0  0  0  0  0  0  0  0  0  0  0  0
    9.4945   15.2676   24.9487 O   0  0  0  0  0  0  0  0  0  0  0  0
    8.4942   13.3412   24.3751 C   0  0  0  0  0  0  0  0  0  0  0  0
    8.6895   12.0162   23.9999 C   0  0  0  0  0  0  0  0  0  0  0  0
    7.9956   11.0501   24.7069 C   0  0  0  0  0  0  0  0  0  0  0  0
    7.2134   11.3232   25.7763 N   0  0  0  0  0  0  0  0  0  0  0  0
    7.0005   12.6193   26.0810 C   0  0  0  0  0  0  0  0  0  0  0  0
    6.3627   13.0946   27.6947 S   0  0  0  0  0  0  0  0  0  0  0  0
    4.7746   12.2103   27.8417 C   0  0  0  0  0  0  0  0  0  0  0  0
    4.3039   12.4018   29.2948 C   0  0  0  0  0  0  0  0  0  0  0  0
    4.9536   10.7204   27.5796 C   0  0  0  0  0  0  0  0  0  0  0  0
    3.7569   12.8612   26.9054 C   0  0  0  0  0  0  0  0  0  0  0  0
    7.5618   13.6406   25.3584 C   0  0  0  0  0  0  0  0  0  0  0  0
  1  2  1  0
  3  2  1  1
  3  4  1  0
  4  5  1  0
  5  6  1  0
  3  7  1  0
  7  8  1  0
  8  9  2  0
  8 10  1  0
 10 11  2  0
 11 12  1  0
 12 13  2  0
 13 14  1  0
 14 15  1  0
 15 16  1  0
 16 17  1  0
 16 18  1  0
 16 19  1  0
 14 20  2  0
 20 10  1  0
M  END
>  <distance_score>  (99) 
1.983996

>  <smiles>  (99) 
CC[C@@H](COC)NC(=O)c1ccnc(SC(C)(C)C)c1

>  <fragmenstein_error>  (99) 
nan

>  <fragmenstein_runtime>  (99) 
nan

>  <gnina_score_min>  (99) 
4.586

>  <orig_smiles>  (99) 
nan

>  <fragmenstein_mode>  (99) 
nan

>  <rmsd(smina/fragmenstein)>  (99) 
1.178

>  <inspiration_score>  (99) 
None

>  <name>  (99) 
P498141

>  <ref_pdb>  (99) 
A3176a

>  <ref_mols>  (99) 
A3176a,A2629a

>  <subsites>  (99) 
None

>  <tags>  (99) 
openbind_a71ev2a_c1_elabs_filtered,openbind_a71ev2a_c1_elab_chemspace_filtered_scored

>  <inchikey>  (99) 
PJRLGJCJZWQJRJ-LBPRGKRZSA-N

>  <scratch_subdir>  (99) 
nan

>  <smina_score_min>  (99) 
-5.049

>  <energy_score>  (99) 
-1.557439

>  <Energy>  (99) 
nan

>  <fragmenstein_outcome>  (99) 
nan

>  <alias>  (99) 
None

>  <HIPPO Pose ID>  (99) 
498141

>  <exports>  (99) 
['/opt/xchem-fragalysis-2/maxwin/openbind-hippo/a71ev2a/cycle_01/bulkdock/openbind_a71ev2a_c1_elab_chemspace.sdf', '/opt/xchem-fragalysis-2/maxwin/openbind-hippo/a71ev2a/cycle_01/syndirella/elabs/openbind_a71ev2a_c1_elab_chemspace_filtered.sdf']

>  <HIPPO Compound ID>  (99) 
291039

>  <gnina_score>  (99) 
4.991

$$$$
P498142
     RDKit          3D

 20 21  0  0  0  0  0  0  0  0999 V2000
   12.4861   15.0192   22.9657 C   0  0  0  0  0  0  0  0  0  0  0  0
   11.1470   15.0352   22.2724 C   0  0  2  0  0  0  0  0  0  0  0  0
   10.3995   13.8702   22.6419 N   0  0  0  0  0  0  0  0  0  0  0  0
    9.7930   13.4602   23.9935 C   0  0  0  0  0  0  0  0  0  0  0  0
    9.8696   13.9668   25.0414 O   0  0  0  0  0  0  0  0  0  0  0  0
    9.0166   12.1944   23.9744 C   0  0  0  0  0  0  0  0  0  0  0  0
    9.4063   11.0782   23.2556 C   0  0  0  0  0  0  0  0  0  0  0  0
    8.7902    9.8818   23.5560 C   0  0  0  0  0  0  0  0  0  0  0  0
    7.8049    9.7735   24.4727 N   0  0  0  0  0  0  0  0  0  0  0  0
    7.3867   10.8783   25.1342 C   0  0  0  0  0  0  0  0  0  0  0  0
    6.1245   10.5394   26.3302 S   0  0  0  0  0  0  0  0  0  0  0  0
    5.5030   12.1114   27.0997 C   0  0  0  0  0  0  0  0  0  0  0  0
    4.9357   13.0882   26.0778 C   0  0  0  0  0  0  0  0  0  0  0  0
    4.3557   11.6779   28.0460 C   0  0  0  0  0  0  0  0  0  0  0  0
    6.4891   12.8675   27.9976 C   0  0  0  0  0  0  0  0  0  0  0  0
    7.9790   12.0957   24.9064 C   0  0  0  0  0  0  0  0  0  0  0  0
   11.3572   15.2921   20.8069 C   0  0  1  0  0  0  0  0  0  0  0  0
   12.3302   14.5521   19.8920 C   0  0  0  0  0  0  0  0  0  0  0  0
   11.2784   14.8943   18.8334 C   0  0  0  0  0  0  0  0  0  0  0  0
   10.2670   14.9491   19.9090 O   0  0  0  0  0  0  0  0  0  0  0  0
  2  1  1  1
  2  3  1  0
  3  4  1  0
  4  5  2  0
  4  6  1  0
  6  7  2  0
  7  8  1  0
  8  9  2  0
  9 10  1  0
 10 11  1  0
 11 12  1  0
 12 13  1  0
 12 14  1  0
 12 15  1  0
 10 16  2  0
  2 17  1  0
 17 18  1  6
 18 19  1  0
 19 20  1  0
 16  6  1  0
 20 17  1  0
M  END
>  <distance_score>  (100) 
1.876781

>  <smiles>  (100) 
C[C@H](NC(=O)c1ccnc(SC(C)(C)C)c1)[C@H]1CCO1

>  <fragmenstein_error>  (100) 
nan

>  <fragmenstein_runtime>  (100) 
nan

>  <gnina_score_min>  (100) 
5.26

>  <orig_smiles>  (100) 
nan

>  <fragmenstein_mode>  (100) 
nan

>  <rmsd(smina/fragmenstein)>  (100) 
0.397

>  <inspiration_score>  (100) 
None

>  <name>  (100) 
P498142

>  <ref_pdb>  (100) 
A3176a

>  <ref_mols>  (100) 
A3176a,A2629a

>  <subsites>  (100) 
None

>  <tags>  (100) 
openbind_a71ev2a_c1_elabs_filtered,openbind_a71ev2a_c1_elab_chemspace_filtered_scored

>  <inchikey>  (100) 
XFONZUOWORYVSI-CMPLNLGQSA-N

>  <scratch_subdir>  (100) 
nan

>  <smina_score_min>  (100) 
-6.068

>  <energy_score>  (100) 
-4.832376

>  <Energy>  (100) 
nan

>  <fragmenstein_outcome>  (100) 
nan

>  <alias>  (100) 
None

>  <HIPPO Pose ID>  (100) 
498142

>  <exports>  (100) 
['/opt/xchem-fragalysis-2/maxwin/openbind-hippo/a71ev2a/cycle_01/bulkdock/openbind_a71ev2a_c1_elab_chemspace.sdf', '/opt/xchem-fragalysis-2/maxwin/openbind-hippo/a71ev2a/cycle_01/syndirella/elabs/openbind_a71ev2a_c1_elab_chemspace_filtered.sdf']

>  <HIPPO Compound ID>  (100) 
291043

>  <gnina_score>  (100) 
5.305

$$$$
P498145
     RDKit          3D

 20 22  0  0  0  0  0  0  0  0999 V2000
   12.8882   14.7687   23.2037 C   0  0  0  0  0  0  0  0  0  0  0  0
   11.6505   15.4609   22.6883 C   0  0  2  0  0  0  0  0  0  0  0  0
   10.5834   14.6396   23.1180 N   0  0  0  0  0  0  0  0  0  0  0  0
    9.9266   14.4949   24.5066 C   0  0  0  0  0  0  0  0  0  0  0  0
   10.1101   15.0849   25.4937 O   0  0  0  0  0  0  0  0  0  0  0  0
    9.0202   13.3231   24.4021 C   0  0  0  0  0  0  0  0  0  0  0  0
    9.5873   12.1973   23.6936 C   0  0  0  0  0  0  0  0  0  0  0  0
    8.9853   11.0340   23.7405 C   0  0  0  0  0  0  0  0  0  0  0  0
    7.8745   10.8510   24.4894 N   0  0  0  0  0  0  0  0  0  0  0  0
    7.3178   11.8203   25.2851 C   0  0  0  0  0  0  0  0  0  0  0  0
    6.4436   11.5734   26.1087 O   0  0  0  0  0  0  0  0  0  0  0  0
    7.9303   13.1757   25.1715 C   0  0  0  0  0  0  0  0  0  0  0  0
    7.5537    9.4751   24.6924 C   0  0  0  0  0  0  0  0  0  0  0  0
    8.3880    8.6153   23.7571 C   0  0  0  0  0  0  0  0  0  0  0  0
    9.6203    9.6442   23.0131 S   0  0  0  0  0  0  0  0  0  0  0  0
   11.6833   15.6260   21.1786 C   0  0  2  0  0  0  0  0  0  0  0  0
   10.4030   16.1711   20.5684 C   0  0  0  0  0  0  0  0  0  0  0  0
   10.5773   15.8664   19.1032 C   0  0  0  0  0  0  0  0  0  0  0  0
   11.5302   14.6960   19.0910 C   0  0  0  0  0  0  0  0  0  0  0  0
   11.9093   14.4132   20.4505 O   0  0  0  0  0  0  0  0  0  0  0  0
  2  1  1  6
  2  3  1  0
  3  4  1  0
  4  5  2  0
  4  6  1  0
  6  7  1  0
  7  8  2  0
  8  9  1  0
  9 10  1  0
 10 11  2  0
 10 12  1  0
  9 13  1  0
 13 14  1  0
 14 15  1  0
  2 16  1  0
 16 17  1  6
 17 18  1  0
 18 19  1  0
 19 20  1  0
 12  6  2  0
 20 16  1  0
 15  8  1  0
M  END
>  <distance_score>  (101) 
1.734593

>  <smiles>  (101) 
C[C@H](NC(=O)c1cc2n(c(=O)c1)CCS2)[C@@H]1CCCO1

>  <fragmenstein_error>  (101) 
nan

>  <fragmenstein_runtime>  (101) 
nan

>  <gnina_score_min>  (101) 
5.209

>  <orig_smiles>  (101) 
nan

>  <fragmenstein_mode>  (101) 
nan

>  <rmsd(smina/fragmenstein)>  (101) 
0.209

>  <inspiration_score>  (101) 
None

>  <name>  (101) 
P498145

>  <ref_pdb>  (101) 
A3176a

>  <ref_mols>  (101) 
A3176a,A2629a

>  <subsites>  (101) 
None

>  <tags>  (101) 
openbind_a71ev2a_c1_elabs_filtered,openbind_a71ev2a_c1_elab_chemspace_filtered_scored

>  <inchikey>  (101) 
VTFOVKHJIPJIAC-ONGXEEELSA-N

>  <scratch_subdir>  (101) 
nan

>  <smina_score_min>  (101) 
-5.082

>  <energy_score>  (101) 
-9.806562

>  <Energy>  (101) 
nan

>  <fragmenstein_outcome>  (101) 
nan

>  <alias>  (101) 
None

>  <HIPPO Pose ID>  (101) 
498145

>  <exports>  (101) 
['/opt/xchem-fragalysis-2/maxwin/openbind-hippo/a71ev2a/cycle_01/bulkdock/openbind_a71ev2a_c1_elab_chemspace.sdf', '/opt/xchem-fragalysis-2/maxwin/openbind-hippo/a71ev2a/cycle_01/syndirella/elabs/openbind_a71ev2a_c1_elab_chemspace_filtered.sdf']

>  <HIPPO Compound ID>  (101) 
291060

>  <gnina_score>  (101) 
5.219

$$$$
P498146
     RDKit          3D

 21 21  0  0  0  0  0  0  0  0999 V2000
   11.1938   15.0937   19.2676 C   0  0  0  0  0  0  0  0  0  0  0  0
   10.8639   15.2894   20.6365 O   0  0  0  0  0  0  0  0  0  0  0  0
   11.7787   14.6444   21.5217 C   0  0  0  0  0  0  0  0  0  0  0  0
   11.2494   14.7552   22.9706 C   0  0  1  0  0  0  0  0  0  0  0  0
   10.2390   13.7778   23.3238 N   0  0  0  0  0  0  0  0  0  0  0  0
    8.8542   13.5238   22.7325 C   0  0  0  0  0  0  0  0  0  0  0  0
    8.3272   14.0036   21.8181 O   0  0  0  0  0  0  0  0  0  0  0  0
    8.1913   12.5679   23.6281 C   0  0  0  0  0  0  0  0  0  0  0  0
    8.5230   11.2231   23.6222 C   0  0  0  0  0  0  0  0  0  0  0  0
    8.0378   10.4573   24.6566 C   0  0  0  0  0  0  0  0  0  0  0  0
    7.3750   10.9740   25.7159 N   0  0  0  0  0  0  0  0  0  0  0  0
    7.0998   12.2965   25.7021 C   0  0  0  0  0  0  0  0  0  0  0  0
    6.6167   13.0826   27.2201 S   0  0  0  0  0  0  0  0  0  0  0  0
    4.9903   12.3614   27.6823 C   0  0  0  0  0  0  0  0  0  0  0  0
    4.9942   10.8324   27.6967 C   0  0  0  0  0  0  0  0  0  0  0  0
    4.7011   12.8505   29.1147 C   0  0  0  0  0  0  0  0  0  0  0  0
    3.9265   12.9395   26.7503 C   0  0  0  0  0  0  0  0  0  0  0  0
    7.4671   13.1222   24.6636 C   0  0  0  0  0  0  0  0  0  0  0  0
   12.3822   14.6597   24.0263 C   0  0  0  0  0  0  0  0  0  0  0  0
   11.9950   15.2929   25.3704 C   0  0  0  0  0  0  0  0  0  0  0  0
   12.8353   13.2339   24.3263 C   0  0  0  0  0  0  0  0  0  0  0  0
  1  2  1  0
  2  3  1  0
  4  3  1  6
  4  5  1  0
  5  6  1  0
  6  7  2  0
  6  8  1  0
  8  9  2  0
  9 10  1  0
 10 11  2  0
 11 12  1  0
 12 13  1  0
 13 14  1  0
 14 15  1  0
 14 16  1  0
 14 17  1  0
 12 18  2  0
  4 19  1  0
 19 20  1  0
 19 21  1  0
 18  8  1  0
M  END
>  <distance_score>  (102) 
1.980624

>  <smiles>  (102) 
COC[C@@H](NC(=O)c1ccnc(SC(C)(C)C)c1)C(C)C

>  <fragmenstein_error>  (102) 
nan

>  <fragmenstein_runtime>  (102) 
nan

>  <gnina_score_min>  (102) 
4.855

>  <orig_smiles>  (102) 
nan

>  <fragmenstein_mode>  (102) 
nan

>  <rmsd(smina/fragmenstein)>  (102) 
0.728

>  <inspiration_score>  (102) 
None

>  <name>  (102) 
P498146

>  <ref_pdb>  (102) 
A3176a

>  <ref_mols>  (102) 
A3176a,A2629a

>  <subsites>  (102) 
None

>  <tags>  (102) 
openbind_a71ev2a_c1_elabs_filtered,openbind_a71ev2a_c1_elab_chemspace_filtered_scored

>  <inchikey>  (102) 
FTLDHJNSBXPDHJ-CYBMUJFWSA-N

>  <scratch_subdir>  (102) 
nan

>  <smina_score_min>  (102) 
-5.482

>  <energy_score>  (102) 
-10.14882

>  <Energy>  (102) 
nan

>  <fragmenstein_outcome>  (102) 
nan

>  <alias>  (102) 
None

>  <HIPPO Pose ID>  (102) 
498146

>  <exports>  (102) 
['/opt/xchem-fragalysis-2/maxwin/openbind-hippo/a71ev2a/cycle_01/syndirella/elabs/openbind_a71ev2a_c1_elab_chemspace_filtered.sdf']

>  <HIPPO Compound ID>  (102) 
291064

>  <gnina_score>  (102) 
5.128

$$$$
P498147
     RDKit          3D

 21 21  0  0  0  0  0  0  0  0999 V2000
   13.3851   13.5923   25.2386 C   0  0  0  0  0  0  0  0  0  0  0  0
   12.7097   13.6127   23.9925 O   0  0  0  0  0  0  0  0  0  0  0  0
   12.4958   14.9450   23.4824 C   0  0  0  0  0  0  0  0  0  0  0  0
   11.3810   14.9254   22.4187 C   0  0  1  0  0  0  0  0  0  0  0  0
   11.9411   14.5960   21.0415 C   0  0  0  0  0  0  0  0  0  0  0  0
   10.9858   14.9485   19.9123 C   0  0  0  0  0  0  0  0  0  0  0  0
   11.5925   14.5976   18.6719 O   0  0  0  0  0  0  0  0  0  0  0  0
   10.3866   14.0107   22.9384 N   0  0  0  0  0  0  0  0  0  0  0  0
    8.8946   13.8907   22.6375 C   0  0  0  0  0  0  0  0  0  0  0  0
    8.2344   14.4544   21.8676 O   0  0  0  0  0  0  0  0  0  0  0  0
    8.3027   12.9462   23.6056 C   0  0  0  0  0  0  0  0  0  0  0  0
    8.5935   11.5930   23.6281 C   0  0  0  0  0  0  0  0  0  0  0  0
    8.1091   10.8670   24.6969 C   0  0  0  0  0  0  0  0  0  0  0  0
    7.4682   11.4201   25.7555 N   0  0  0  0  0  0  0  0  0  0  0  0
    7.2161   12.7471   25.7114 C   0  0  0  0  0  0  0  0  0  0  0  0
    6.6621   13.5738   27.2005 S   0  0  0  0  0  0  0  0  0  0  0  0
    4.9624   12.9258   27.4918 C   0  0  0  0  0  0  0  0  0  0  0  0
    4.5131   13.5127   28.8431 C   0  0  0  0  0  0  0  0  0  0  0  0
    4.9348   11.3999   27.5974 C   0  0  0  0  0  0  0  0  0  0  0  0
    4.0238   13.4421   26.4003 C   0  0  0  0  0  0  0  0  0  0  0  0
    7.6005   13.5345   24.6459 C   0  0  0  0  0  0  0  0  0  0  0  0
  1  2  1  0
  2  3  1  0
  4  3  1  1
  4  5  1  0
  5  6  1  0
  6  7  1  0
  4  8  1  0
  8  9  1  0
  9 10  2  0
  9 11  1  0
 11 12  2  0
 12 13  1  0
 13 14  2  0
 14 15  1  0
 15 16  1  0
 16 17  1  0
 17 18  1  0
 17 19  1  0
 17 20  1  0
 15 21  2  0
 21 11  1  0
M  END
>  <distance_score>  (103) 
1.918952

>  <smiles>  (103) 
COC[C@@H](CCO)NC(=O)c1ccnc(SC(C)(C)C)c1

>  <fragmenstein_error>  (103) 
nan

>  <fragmenstein_runtime>  (103) 
nan

>  <gnina_score_min>  (103) 
5.169

>  <orig_smiles>  (103) 
nan

>  <fragmenstein_mode>  (103) 
nan

>  <rmsd(smina/fragmenstein)>  (103) 
0.71

>  <inspiration_score>  (103) 
None

>  <name>  (103) 
P498147

>  <ref_pdb>  (103) 
A3176a

>  <ref_mols>  (103) 
A3176a,A2629a

>  <subsites>  (103) 
None

>  <tags>  (103) 
openbind_a71ev2a_c1_elabs_filtered,openbind_a71ev2a_c1_elab_chemspace_filtered_scored

>  <inchikey>  (103) 
TVYRSNGJWARSFH-GFCCVEGCSA-N

>  <scratch_subdir>  (103) 
nan

>  <smina_score_min>  (103) 
-5.794

>  <energy_score>  (103) 
-12.043315

>  <Energy>  (103) 
nan

>  <fragmenstein_outcome>  (103) 
nan

>  <alias>  (103) 
None

>  <HIPPO Pose ID>  (103) 
498147

>  <exports>  (103) 
['/opt/xchem-fragalysis-2/maxwin/openbind-hippo/a71ev2a/cycle_01/bulkdock/openbind_a71ev2a_c1_elab_chemspace.sdf', '/opt/xchem-fragalysis-2/maxwin/openbind-hippo/a71ev2a/cycle_01/syndirella/elabs/openbind_a71ev2a_c1_elab_chemspace_filtered.sdf']

>  <HIPPO Compound ID>  (103) 
291066

>  <gnina_score>  (103) 
5.124

$$$$
P498148
     RDKit          3D

 21 21  0  0  0  0  0  0  0  0999 V2000
   10.1203   16.1276   19.0442 C   0  0  0  0  0  0  0  0  0  0  0  0
   10.1529   15.3734   20.2615 O   0  0  0  0  0  0  0  0  0  0  0  0
   11.1720   14.4761   20.3188 C   0  0  0  0  0  0  0  0  0  0  0  0
   11.8968   14.1713   19.3730 O   0  0  0  0  0  0  0  0  0  0  0  0
   11.4006   13.9502   21.7478 C   0  0  1  0  0  0  0  0  0  0  0  0
   11.9199   15.0721   22.6287 C   0  0  0  0  0  0  0  0  0  0  0  0
   13.2585   15.8779   21.8678 Cl  0  0  0  0  0  0  0  0  0  0  0  0
   10.3205   13.3030   22.4740 N   0  0  0  0  0  0  0  0  0  0  0  0
    9.1015   13.8978   23.1803 C   0  0  0  0  0  0  0  0  0  0  0  0
    8.7210   14.9946   23.2311 O   0  0  0  0  0  0  0  0  0  0  0  0
    8.3614   12.8946   24.0055 C   0  0  0  0  0  0  0  0  0  0  0  0
    8.4058   11.5160   23.8532 C   0  0  0  0  0  0  0  0  0  0  0  0
    7.7858   10.7422   24.8184 C   0  0  0  0  0  0  0  0  0  0  0  0
    7.1753   11.2460   25.9144 N   0  0  0  0  0  0  0  0  0  0  0  0
    7.1052   12.5856   26.0290 C   0  0  0  0  0  0  0  0  0  0  0  0
    6.5275   13.3170   27.5611 S   0  0  0  0  0  0  0  0  0  0  0  0
    4.8118   12.6858   27.7770 C   0  0  0  0  0  0  0  0  0  0  0  0
    4.7767   11.1634   27.9314 C   0  0  0  0  0  0  0  0  0  0  0  0
    4.2931   13.3146   29.0842 C   0  0  0  0  0  0  0  0  0  0  0  0
    3.9367   13.1730   26.6229 C   0  0  0  0  0  0  0  0  0  0  0  0
    7.6845   13.4263   25.1013 C   0  0  0  0  0  0  0  0  0  0  0  0
  1  2  1  0
  2  3  1  0
  3  4  2  0
  3  5  1  0
  5  6  1  1
  6  7  1  0
  5  8  1  0
  8  9  1  0
  9 10  2  0
  9 11  1  0
 11 12  2  0
 12 13  1  0
 13 14  2  0
 14 15  1  0
 15 16  1  0
 16 17  1  0
 17 18  1  0
 17 19  1  0
 17 20  1  0
 15 21  2  0
 21 11  1  0
M  END
>  <distance_score>  (104) 
1.944288

>  <smiles>  (104) 
COC(=O)[C@@H](CCl)NC(=O)c1ccnc(SC(C)(C)C)c1

>  <fragmenstein_error>  (104) 
nan

>  <fragmenstein_runtime>  (104) 
nan

>  <gnina_score_min>  (104) 
4.802

>  <orig_smiles>  (104) 
nan

>  <fragmenstein_mode>  (104) 
nan

>  <rmsd(smina/fragmenstein)>  (104) 
0.727

>  <inspiration_score>  (104) 
None

>  <name>  (104) 
P498148

>  <ref_pdb>  (104) 
A3176a

>  <ref_mols>  (104) 
A3176a,A2629a

>  <subsites>  (104) 
None

>  <tags>  (104) 
openbind_a71ev2a_c1_elabs_filtered,openbind_a71ev2a_c1_elab_chemspace_filtered_scored

>  <inchikey>  (104) 
BLJOAEARSMRWCO-SNVBAGLBSA-N

>  <scratch_subdir>  (104) 
nan

>  <smina_score_min>  (104) 
-5.212

>  <energy_score>  (104) 
-3.214707

>  <Energy>  (104) 
nan

>  <fragmenstein_outcome>  (104) 
nan

>  <alias>  (104) 
None

>  <HIPPO Pose ID>  (104) 
498148

>  <exports>  (104) 
['/opt/xchem-fragalysis-2/maxwin/openbind-hippo/a71ev2a/cycle_01/bulkdock/openbind_a71ev2a_c1_elab_chemspace.sdf', '/opt/xchem-fragalysis-2/maxwin/openbind-hippo/a71ev2a/cycle_01/syndirella/elabs/openbind_a71ev2a_c1_elab_chemspace_filtered.sdf']

>  <HIPPO Compound ID>  (104) 
291068

>  <gnina_score>  (104) 
4.9

$$$$
P498149
     RDKit          3D

 21 21  0  0  0  0  0  0  0  0999 V2000
   10.2129   16.0128   19.2587 C   0  0  0  0  0  0  0  0  0  0  0  0
   10.3112   15.1966   20.4342 O   0  0  0  0  0  0  0  0  0  0  0  0
   11.5148   14.6081   20.6313 C   0  0  0  0  0  0  0  0  0  0  0  0
   12.4628   14.6625   19.8528 O   0  0  0  0  0  0  0  0  0  0  0  0
   11.6494   13.9356   21.9958 C   0  0  1  0  0  0  0  0  0  0  0  0
   12.3373   14.9064   22.9679 C   0  0  0  0  0  0  0  0  0  0  0  0
   12.6373   14.1445   24.6231 S   0  0  0  0  0  0  0  0  0  0  0  0
   10.4965   13.3366   22.6430 N   0  0  0  0  0  0  0  0  0  0  0  0
    9.2673   13.9832   23.2782 C   0  0  0  0  0  0  0  0  0  0  0  0
    8.9386   15.0962   23.3196 O   0  0  0  0  0  0  0  0  0  0  0  0
    8.4372   12.9953   24.0379 C   0  0  0  0  0  0  0  0  0  0  0  0
    8.4334   11.6183   23.8552 C   0  0  0  0  0  0  0  0  0  0  0  0
    7.7743   10.8445   24.7948 C   0  0  0  0  0  0  0  0  0  0  0  0
    7.1571   11.3461   25.8875 N   0  0  0  0  0  0  0  0  0  0  0  0
    7.1263   12.6852   26.0253 C   0  0  0  0  0  0  0  0  0  0  0  0
    6.5310   13.4047   27.5560 S   0  0  0  0  0  0  0  0  0  0  0  0
    4.8077   12.7822   27.7392 C   0  0  0  0  0  0  0  0  0  0  0  0
    4.7651   11.2619   27.9130 C   0  0  0  0  0  0  0  0  0  0  0  0
    3.9571   13.2542   26.5605 C   0  0  0  0  0  0  0  0  0  0  0  0
    4.2624   13.4297   29.0264 C   0  0  0  0  0  0  0  0  0  0  0  0
    7.7528   13.5267   25.1278 C   0  0  0  0  0  0  0  0  0  0  0  0
  1  2  1  0
  2  3  1  0
  3  4  2  0
  3  5  1  0
  5  6  1  1
  6  7  1  0
  5  8  1  0
  8  9  1  0
  9 10  2  0
  9 11  1  0
 11 12  2  0
 12 13  1  0
 13 14  2  0
 14 15  1  0
 15 16  1  0
 16 17  1  0
 17 18  1  0
 17 19  1  0
 17 20  1  0
 15 21  2  0
 21 11  1  0
M  END
>  <distance_score>  (105) 
1.914648

>  <smiles>  (105) 
COC(=O)[C@@H](CS)NC(=O)c1ccnc(SC(C)(C)C)c1

>  <fragmenstein_error>  (105) 
nan

>  <fragmenstein_runtime>  (105) 
nan

>  <gnina_score_min>  (105) 
5.233

>  <orig_smiles>  (105) 
nan

>  <fragmenstein_mode>  (105) 
nan

>  <rmsd(smina/fragmenstein)>  (105) 
0.635

>  <inspiration_score>  (105) 
None

>  <name>  (105) 
P498149

>  <ref_pdb>  (105) 
A3176a

>  <ref_mols>  (105) 
A3176a,A2629a

>  <subsites>  (105) 
None

>  <tags>  (105) 
openbind_a71ev2a_c1_elabs_filtered,openbind_a71ev2a_c1_elab_chemspace_filtered_scored

>  <inchikey>  (105) 
HORVWOGOKYNXCT-SNVBAGLBSA-N

>  <scratch_subdir>  (105) 
nan

>  <smina_score_min>  (105) 
-5.577

>  <energy_score>  (105) 
-9.13599

>  <Energy>  (105) 
nan

>  <fragmenstein_outcome>  (105) 
nan

>  <alias>  (105) 
None

>  <HIPPO Pose ID>  (105) 
498149

>  <exports>  (105) 
['/opt/xchem-fragalysis-2/maxwin/openbind-hippo/a71ev2a/cycle_01/bulkdock/openbind_a71ev2a_c1_elab_chemspace.sdf', '/opt/xchem-fragalysis-2/maxwin/openbind-hippo/a71ev2a/cycle_01/syndirella/elabs/openbind_a71ev2a_c1_elab_chemspace_filtered.sdf']

>  <HIPPO Compound ID>  (105) 
291086

>  <gnina_score>  (105) 
5.201

$$$$
P498150
     RDKit          3D

 21 21  0  0  0  0  0  0  0  0999 V2000
   11.2382   14.9691   19.2846 C   0  0  0  0  0  0  0  0  0  0  0  0
   11.0255   14.8428   20.6843 O   0  0  0  0  0  0  0  0  0  0  0  0
   12.1410   14.2472   21.3745 C   0  0  0  0  0  0  0  0  0  0  0  0
   11.8973   14.3170   22.8992 C   0  0  0  0  0  0  0  0  0  0  0  0
   12.0117   15.7760   23.2359 C   0  0  0  0  0  0  0  0  0  0  0  0
   12.8553   13.6169   23.8547 C   0  0  0  0  0  0  0  0  0  0  0  0
   10.5952   13.8311   23.2634 N   0  0  0  0  0  0  0  0  0  0  0  0
    9.8168   13.9674   24.5629 C   0  0  0  0  0  0  0  0  0  0  0  0
   10.0640   14.5599   25.5310 O   0  0  0  0  0  0  0  0  0  0  0  0
    8.6259   13.1254   24.5764 C   0  0  0  0  0  0  0  0  0  0  0  0
    8.6917   11.7550   24.3696 C   0  0  0  0  0  0  0  0  0  0  0  0
    7.6185   11.0167   24.8096 C   0  0  0  0  0  0  0  0  0  0  0  0
    6.5294   11.5706   25.3883 N   0  0  0  0  0  0  0  0  0  0  0  0
    6.4676   12.9170   25.4695 C   0  0  0  0  0  0  0  0  0  0  0  0
    5.0196   13.7256   26.1239 S   0  0  0  0  0  0  0  0  0  0  0  0
    4.4897   12.5548   27.4049 C   0  0  0  0  0  0  0  0  0  0  0  0
    5.5719   11.9061   28.2367 C   0  0  0  0  0  0  0  0  0  0  0  0
    6.0255   10.7586   27.6937 F   0  0  0  0  0  0  0  0  0  0  0  0
    6.6239   12.7133   28.4874 F   0  0  0  0  0  0  0  0  0  0  0  0
    5.0570   11.5635   29.4494 F   0  0  0  0  0  0  0  0  0  0  0  0
    7.4922   13.7286   25.0687 C   0  0  0  0  0  0  0  0  0  0  0  0
  1  2  1  0
  2  3  1  0
  3  4  1  0
  4  5  1  0
  4  6  1  0
  4  7  1  0
  7  8  1  0
  8  9  2  0
  8 10  1  0
 10 11  2  0
 11 12  1  0
 12 13  2  0
 13 14  1  0
 14 15  1  0
 15 16  1  0
 16 17  1  0
 17 18  1  0
 17 19  1  0
 17 20  1  0
 14 21  2  0
 21 10  1  0
M  END
>  <distance_score>  (106) 
1.971433

>  <smiles>  (106) 
COCC(C)(C)NC(=O)c1ccnc(SCC(F)(F)F)c1

>  <fragmenstein_error>  (106) 
nan

>  <fragmenstein_runtime>  (106) 
nan

>  <gnina_score_min>  (106) 
4.826

>  <orig_smiles>  (106) 
nan

>  <fragmenstein_mode>  (106) 
nan

>  <rmsd(smina/fragmenstein)>  (106) 
1.778

>  <inspiration_score>  (106) 
None

>  <name>  (106) 
P498150

>  <ref_pdb>  (106) 
A3176a

>  <ref_mols>  (106) 
A3176a,A2629a

>  <subsites>  (106) 
None

>  <tags>  (106) 
openbind_a71ev2a_c1_elabs_filtered,openbind_a71ev2a_c1_elab_chemspace_filtered_scored

>  <inchikey>  (106) 
NSCTWEKXNBMTAD-UHFFFAOYSA-N

>  <scratch_subdir>  (106) 
nan

>  <smina_score_min>  (106) 
-5.942

>  <energy_score>  (106) 
-16.878396

>  <Energy>  (106) 
nan

>  <fragmenstein_outcome>  (106) 
nan

>  <alias>  (106) 
None

>  <HIPPO Pose ID>  (106) 
498150

>  <exports>  (106) 
['/opt/xchem-fragalysis-2/maxwin/openbind-hippo/a71ev2a/cycle_01/bulkdock/openbind_a71ev2a_c1_elab_chemspace.sdf', '/opt/xchem-fragalysis-2/maxwin/openbind-hippo/a71ev2a/cycle_01/syndirella/elabs/openbind_a71ev2a_c1_elab_chemspace_filtered.sdf']

>  <HIPPO Compound ID>  (106) 
291104

>  <gnina_score>  (106) 
5.08

$$$$
P498151
     RDKit          3D

 21 22  0  0  0  0  0  0  0  0999 V2000
   10.0098   15.5207   21.5645 C   0  0  0  0  0  0  0  0  0  0  0  0
   11.0920   14.5053   21.8319 C   0  0  1  0  0  0  0  0  0  0  0  0
   10.5002   13.2985   22.3410 N   0  0  0  0  0  0  0  0  0  0  0  0
   10.1536   12.8888   23.7726 C   0  0  0  0  0  0  0  0  0  0  0  0
   10.3601   13.4281   24.7828 O   0  0  0  0  0  0  0  0  0  0  0  0
    9.3360   11.6393   23.8278 C   0  0  0  0  0  0  0  0  0  0  0  0
    9.5060   10.5329   23.0168 C   0  0  0  0  0  0  0  0  0  0  0  0
    8.7746    9.4004   23.2983 C   0  0  0  0  0  0  0  0  0  0  0  0
    7.8138    9.3692   24.2384 N   0  0  0  0  0  0  0  0  0  0  0  0
    7.5916   10.4724   24.9730 C   0  0  0  0  0  0  0  0  0  0  0  0
    6.3346   10.2537   26.1832 S   0  0  0  0  0  0  0  0  0  0  0  0
    5.4449   11.8264   26.3630 C   0  0  0  0  0  0  0  0  0  0  0  0
    6.1444   13.1568   26.3594 C   0  0  0  0  0  0  0  0  0  0  0  0
    5.2907   14.1199   26.7478 F   0  0  0  0  0  0  0  0  0  0  0  0
    6.5909   13.5216   25.1440 F   0  0  0  0  0  0  0  0  0  0  0  0
    7.1678   13.1816   27.2363 F   0  0  0  0  0  0  0  0  0  0  0  0
    8.3896   11.5813   24.8442 C   0  0  0  0  0  0  0  0  0  0  0  0
   11.8601   14.1396   20.5766 C   0  0  2  0  0  0  0  0  0  0  0  0
   12.7534   15.1889   20.0279 C   0  0  0  0  0  0  0  0  0  0  0  0
   11.7350   15.3475   18.9045 C   0  0  0  0  0  0  0  0  0  0  0  0
   11.0743   14.1456   19.3490 O   0  0  0  0  0  0  0  0  0  0  0  0
  2  1  1  6
  2  3  1  0
  3  4  1  0
  4  5  2  0
  4  6  1  0
  6  7  2  0
  7  8  1  0
  8  9  2  0
  9 10  1  0
 10 11  1  0
 11 12  1  0
 12 13  1  0
 13 14  1  0
 13 15  1  0
 13 16  1  0
 10 17  2  0
  2 18  1  0
 18 19  1  6
 19 20  1  0
 20 21  1  0
 17  6  1  0
 21 18  1  0
M  END
>  <distance_score>  (107) 
1.510556

>  <smiles>  (107) 
C[C@@H](NC(=O)c1ccnc(SCC(F)(F)F)c1)[C@@H]1CCO1

>  <fragmenstein_error>  (107) 
nan

>  <fragmenstein_runtime>  (107) 
nan

>  <gnina_score_min>  (107) 
5.145

>  <orig_smiles>  (107) 
nan

>  <fragmenstein_mode>  (107) 
nan

>  <rmsd(smina/fragmenstein)>  (107) 
1.361

>  <inspiration_score>  (107) 
None

>  <name>  (107) 
P498151

>  <ref_pdb>  (107) 
A3176a

>  <ref_mols>  (107) 
A3176a,A2629a

>  <subsites>  (107) 
None

>  <tags>  (107) 
openbind_a71ev2a_c1_elabs_filtered,openbind_a71ev2a_c1_elab_chemspace_filtered_scored

>  <inchikey>  (107) 
HAXGUQPYDAPEMR-SCZZXKLOSA-N

>  <scratch_subdir>  (107) 
nan

>  <smina_score_min>  (107) 
-5.446

>  <energy_score>  (107) 
-2.604008

>  <Energy>  (107) 
nan

>  <fragmenstein_outcome>  (107) 
nan

>  <alias>  (107) 
None

>  <HIPPO Pose ID>  (107) 
498151

>  <exports>  (107) 
['/opt/xchem-fragalysis-2/maxwin/openbind-hippo/a71ev2a/cycle_01/bulkdock/openbind_a71ev2a_c1_elab_chemspace.sdf', '/opt/xchem-fragalysis-2/maxwin/openbind-hippo/a71ev2a/cycle_01/syndirella/elabs/openbind_a71ev2a_c1_elab_chemspace_filtered.sdf']

>  <HIPPO Compound ID>  (107) 
291122

>  <gnina_score>  (107) 
5.228

$$$$
P498152
     RDKit          3D

 21 22  0  0  0  0  0  0  0  0999 V2000
   11.2109   15.4196   18.6697 C   0  0  0  0  0  0  0  0  0  0  0  0
   11.7123   15.5796   19.9892 O   0  0  0  0  0  0  0  0  0  0  0  0
   11.3113   14.5238   20.8324 C   0  0  0  0  0  0  0  0  0  0  0  0
   11.1110   15.0593   22.2401 C   0  0  2  0  0  0  0  0  0  0  0  0
   12.2141   15.1226   23.2513 C   0  0  0  0  0  0  0  0  0  0  0  0
   11.8107   13.7152   23.5239 C   0  0  0  0  0  0  0  0  0  0  0  0
   10.3436   14.0318   23.0599 N   0  0  0  0  0  0  0  0  0  0  0  0
    9.4254   14.2033   24.2270 C   0  0  0  0  0  0  0  0  0  0  0  0
    9.1415   15.1680   24.8365 O   0  0  0  0  0  0  0  0  0  0  0  0
    8.7318   12.9153   24.5395 C   0  0  0  0  0  0  0  0  0  0  0  0
    9.0054   11.7042   23.9110 C   0  0  0  0  0  0  0  0  0  0  0  0
    8.2891   10.5911   24.3073 C   0  0  0  0  0  0  0  0  0  0  0  0
    7.3179   10.6272   25.2412 N   0  0  0  0  0  0  0  0  0  0  0  0
    7.0136   11.8204   25.7874 C   0  0  0  0  0  0  0  0  0  0  0  0
    5.6871   11.8056   26.9741 S   0  0  0  0  0  0  0  0  0  0  0  0
    4.6830   13.2355   26.4073 C   0  0  0  0  0  0  0  0  0  0  0  0
    4.7315   14.4051   27.3733 C   0  0  0  0  0  0  0  0  0  0  0  0
    3.9748   15.4287   26.9156 F   0  0  0  0  0  0  0  0  0  0  0  0
    4.2502   14.0683   28.5917 F   0  0  0  0  0  0  0  0  0  0  0  0
    5.9878   14.8726   27.5425 F   0  0  0  0  0  0  0  0  0  0  0  0
    7.7131   12.9677   25.4807 C   0  0  0  0  0  0  0  0  0  0  0  0
  1  2  1  0
  2  3  1  0
  4  3  1  6
  4  5  1  0
  5  6  1  0
  6  7  1  0
  7  8  1  0
  8  9  2  0
  8 10  1  0
 10 11  2  0
 11 12  1  0
 12 13  2  0
 13 14  1  0
 14 15  1  0
 15 16  1  0
 16 17  1  0
 17 18  1  0
 17 19  1  0
 17 20  1  0
 14 21  2  0
  7  4  1  0
 21 10  1  0
M  END
>  <distance_score>  (108) 
1.94841

>  <smiles>  (108) 
COC[C@@H]1CCN1C(=O)c1ccnc(SCC(F)(F)F)c1

>  <fragmenstein_error>  (108) 
nan

>  <fragmenstein_runtime>  (108) 
nan

>  <gnina_score_min>  (108) 
5.323

>  <orig_smiles>  (108) 
nan

>  <fragmenstein_mode>  (108) 
nan

>  <rmsd(smina/fragmenstein)>  (108) 
1.336

>  <inspiration_score>  (108) 
None

>  <name>  (108) 
P498152

>  <ref_pdb>  (108) 
A3176a

>  <ref_mols>  (108) 
A3176a,A2629a

>  <subsites>  (108) 
None

>  <tags>  (108) 
openbind_a71ev2a_c1_elabs_filtered,openbind_a71ev2a_c1_elab_chemspace_filtered_scored

>  <inchikey>  (108) 
ZPLHCUWGWQELGB-JTQLQIEISA-N

>  <scratch_subdir>  (108) 
nan

>  <smina_score_min>  (108) 
-5.924

>  <energy_score>  (108) 
-2.448788

>  <Energy>  (108) 
nan

>  <fragmenstein_outcome>  (108) 
nan

>  <alias>  (108) 
None

>  <HIPPO Pose ID>  (108) 
498152

>  <exports>  (108) 
['/opt/xchem-fragalysis-2/maxwin/openbind-hippo/a71ev2a/cycle_01/bulkdock/openbind_a71ev2a_c1_elab_chemspace.sdf', '/opt/xchem-fragalysis-2/maxwin/openbind-hippo/a71ev2a/cycle_01/syndirella/elabs/openbind_a71ev2a_c1_elab_chemspace_filtered.sdf']

>  <HIPPO Compound ID>  (108) 
291124

>  <gnina_score>  (108) 
4.86

$$$$
P498153
     RDKit          3D

 22 22  0  0  0  0  0  0  0  0999 V2000
   11.1229   15.0675   19.2163 C   0  0  0  0  0  0  0  0  0  0  0  0
   10.7631   15.1278   20.5908 O   0  0  0  0  0  0  0  0  0  0  0  0
   11.7942   14.6412   21.4536 C   0  0  0  0  0  0  0  0  0  0  0  0
   11.3427   14.8494   22.9075 C   0  0  1  0  0  0  0  0  0  0  0  0
   10.2291   14.0322   23.3230 N   0  0  0  0  0  0  0  0  0  0  0  0
    9.0377   14.3597   24.2235 C   0  0  0  0  0  0  0  0  0  0  0  0
    8.7179   15.3641   24.7157 O   0  0  0  0  0  0  0  0  0  0  0  0
    8.2300   13.1520   24.5895 C   0  0  0  0  0  0  0  0  0  0  0  0
    8.3278   11.8790   24.0409 C   0  0  0  0  0  0  0  0  0  0  0  0
    7.7030   10.8357   24.7106 C   0  0  0  0  0  0  0  0  0  0  0  0
    7.0016   10.9772   25.8597 N   0  0  0  0  0  0  0  0  0  0  0  0
    6.8857   12.2257   26.3479 C   0  0  0  0  0  0  0  0  0  0  0  0
    6.1217   12.4542   27.9578 S   0  0  0  0  0  0  0  0  0  0  0  0
    4.3744   12.3323   27.4883 C   0  0  0  0  0  0  0  0  0  0  0  0
    3.9073   13.4921   26.6377 C   0  0  0  0  0  0  0  0  0  0  0  0
    4.6557   13.6112   25.5265 F   0  0  0  0  0  0  0  0  0  0  0  0
    2.6202   13.3108   26.2628 F   0  0  0  0  0  0  0  0  0  0  0  0
    3.9690   14.6594   27.3152 F   0  0  0  0  0  0  0  0  0  0  0  0
    7.4790   13.3137   25.7493 C   0  0  0  0  0  0  0  0  0  0  0  0
   12.4574   14.6459   23.9653 C   0  0  0  0  0  0  0  0  0  0  0  0
   12.1349   15.2997   25.3198 C   0  0  0  0  0  0  0  0  0  0  0  0
   12.7446   13.1790   24.2616 C   0  0  0  0  0  0  0  0  0  0  0  0
  1  2  1  0
  2  3  1  0
  4  3  1  6
  4  5  1  0
  5  6  1  0
  6  7  2  0
  6  8  1  0
  8  9  2  0
  9 10  1  0
 10 11  2  0
 11 12  1  0
 12 13  1  0
 13 14  1  0
 14 15  1  0
 15 16  1  0
 15 17  1  0
 15 18  1  0
 12 19  2  0
  4 20  1  0
 20 21  1  0
 20 22  1  0
 19  8  1  0
M  END
>  <distance_score>  (109) 
1.978479

>  <smiles>  (109) 
COC[C@@H](NC(=O)c1ccnc(SCC(F)(F)F)c1)C(C)C

>  <fragmenstein_error>  (109) 
nan

>  <fragmenstein_runtime>  (109) 
nan

>  <gnina_score_min>  (109) 
5.513

>  <orig_smiles>  (109) 
nan

>  <fragmenstein_mode>  (109) 
nan

>  <rmsd(smina/fragmenstein)>  (109) 
1.789

>  <inspiration_score>  (109) 
None

>  <name>  (109) 
P498153

>  <ref_pdb>  (109) 
A3176a

>  <ref_mols>  (109) 
A3176a,A2629a

>  <subsites>  (109) 
None

>  <tags>  (109) 
openbind_a71ev2a_c1_elabs_filtered,openbind_a71ev2a_c1_elab_chemspace_filtered_scored

>  <inchikey>  (109) 
ZVGUORDVWVZBRQ-LLVKDONJSA-N

>  <scratch_subdir>  (109) 
nan

>  <smina_score_min>  (109) 
-5.977

>  <energy_score>  (109) 
-8.034748

>  <Energy>  (109) 
nan

>  <fragmenstein_outcome>  (109) 
nan

>  <alias>  (109) 
None

>  <HIPPO Pose ID>  (109) 
498153

>  <exports>  (109) 
['/opt/xchem-fragalysis-2/maxwin/openbind-hippo/a71ev2a/cycle_01/bulkdock/openbind_a71ev2a_c1_elab_chemspace.sdf', '/opt/xchem-fragalysis-2/maxwin/openbind-hippo/a71ev2a/cycle_01/syndirella/elabs/openbind_a71ev2a_c1_elab_chemspace_filtered.sdf']

>  <HIPPO Compound ID>  (109) 
291130

>  <gnina_score>  (109) 
5.088

$$$$
P498154
     RDKit          3D

 22 22  0  0  0  0  0  0  0  0999 V2000
   10.8006   15.4839   18.7330 C   0  0  0  0  0  0  0  0  0  0  0  0
   10.6360   15.5678   20.1455 O   0  0  0  0  0  0  0  0  0  0  0  0
   11.4794   14.7782   20.8636 C   0  0  0  0  0  0  0  0  0  0  0  0
   12.3768   14.0901   20.3989 O   0  0  0  0  0  0  0  0  0  0  0  0
   11.1495   14.9133   22.3445 C   0  0  2  0  0  0  0  0  0  0  0  0
   12.4458   14.9259   23.1504 C   0  0  0  0  0  0  0  0  0  0  0  0
   12.1631   15.2210   24.5302 O   0  0  0  0  0  0  0  0  0  0  0  0
   10.2861   13.8932   22.9040 N   0  0  0  0  0  0  0  0  0  0  0  0
    8.8190   13.5843   22.6395 C   0  0  0  0  0  0  0  0  0  0  0  0
    8.0792   14.0450   21.8747 O   0  0  0  0  0  0  0  0  0  0  0  0
    8.3496   12.6014   23.6248 C   0  0  0  0  0  0  0  0  0  0  0  0
    8.7196   11.2694   23.5800 C   0  0  0  0  0  0  0  0  0  0  0  0
    8.2154   10.4522   24.5677 C   0  0  0  0  0  0  0  0  0  0  0  0
    7.4653   10.8999   25.6029 N   0  0  0  0  0  0  0  0  0  0  0  0
    7.1494   12.2128   25.6271 C   0  0  0  0  0  0  0  0  0  0  0  0
    6.2728   12.8520   27.0394 S   0  0  0  0  0  0  0  0  0  0  0  0
    5.0715   11.5072   27.3308 C   0  0  0  0  0  0  0  0  0  0  0  0
    4.8652   11.2069   28.8028 C   0  0  0  0  0  0  0  0  0  0  0  0
    5.9912   10.7438   29.3924 F   0  0  0  0  0  0  0  0  0  0  0  0
    4.4526   12.2929   29.4928 F   0  0  0  0  0  0  0  0  0  0  0  0
    3.9140   10.2543   28.9559 F   0  0  0  0  0  0  0  0  0  0  0  0
    7.5646   13.0923   24.6528 C   0  0  0  0  0  0  0  0  0  0  0  0
  1  2  1  0
  2  3  1  0
  3  4  2  0
  3  5  1  0
  5  6  1  1
  6  7  1  0
  5  8  1  0
  8  9  1  0
  9 10  2  0
  9 11  1  0
 11 12  2  0
 12 13  1  0
 13 14  2  0
 14 15  1  0
 15 16  1  0
 16 17  1  0
 17 18  1  0
 18 19  1  0
 18 20  1  0
 18 21  1  0
 15 22  2  0
 22 11  1  0
M  END
>  <distance_score>  (110) 
1.942911

>  <smiles>  (110) 
COC(=O)[C@H](CO)NC(=O)c1ccnc(SCC(F)(F)F)c1

>  <fragmenstein_error>  (110) 
nan

>  <fragmenstein_runtime>  (110) 
nan

>  <gnina_score_min>  (110) 
4.882

>  <orig_smiles>  (110) 
nan

>  <fragmenstein_mode>  (110) 
nan

>  <rmsd(smina/fragmenstein)>  (110) 
0.9

>  <inspiration_score>  (110) 
None

>  <name>  (110) 
P498154

>  <ref_pdb>  (110) 
A3176a

>  <ref_mols>  (110) 
A3176a,A2629a

>  <subsites>  (110) 
None

>  <tags>  (110) 
openbind_a71ev2a_c1_elabs_filtered,openbind_a71ev2a_c1_elab_chemspace_filtered_scored

>  <inchikey>  (110) 
VKAQHQPNFUPRFA-QMMMGPOBSA-N

>  <scratch_subdir>  (110) 
nan

>  <smina_score_min>  (110) 
-5.808

>  <energy_score>  (110) 
-4.649918

>  <Energy>  (110) 
nan

>  <fragmenstein_outcome>  (110) 
nan

>  <alias>  (110) 
None

>  <HIPPO Pose ID>  (110) 
498154

>  <exports>  (110) 
['/opt/xchem-fragalysis-2/maxwin/openbind-hippo/a71ev2a/cycle_01/bulkdock/openbind_a71ev2a_c1_elab_chemspace.sdf', '/opt/xchem-fragalysis-2/maxwin/openbind-hippo/a71ev2a/cycle_01/syndirella/elabs/openbind_a71ev2a_c1_elab_chemspace_filtered.sdf']

>  <HIPPO Compound ID>  (110) 
291136

>  <gnina_score>  (110) 
4.767

$$$$
P498155
     RDKit          3D

 22 23  0  0  0  0  0  0  0  0999 V2000
   10.4434   10.0079   24.6822 C   0  0  0  0  0  0  0  0  0  0  0  0
   10.7093   11.3584   24.2642 O   0  0  0  0  0  0  0  0  0  0  0  0
    9.6654   11.8614   23.5570 C   0  0  0  0  0  0  0  0  0  0  0  0
    8.6067   11.2536   23.4155 O   0  0  0  0  0  0  0  0  0  0  0  0
    9.8473   13.2883   23.0044 C   0  0  2  0  0  0  0  0  0  0  0  0
   11.2844   13.7599   22.9143 C   0  0  0  0  0  0  0  0  0  0  0  0
   11.0398   15.1784   22.5077 C   0  0  0  0  0  0  0  0  0  0  0  0
    9.5263   15.2024   22.5676 C   0  0  0  0  0  0  0  0  0  0  0  0
    9.0332   14.3925   23.7271 N   0  0  0  0  0  0  0  0  0  0  0  0
    7.7098   13.9127   24.0466 C   0  0  0  0  0  0  0  0  0  0  0  0
    6.6887   13.9670   23.4168 O   0  0  0  0  0  0  0  0  0  0  0  0
    7.7798   13.3507   25.5201 C   0  0  1  0  0  0  0  0  0  0  0  0
    8.6341   14.2732   26.4150 C   0  0  0  0  0  0  0  0  0  0  0  0
    6.1344   13.0585   26.3093 S   0  0  0  0  0  0  0  0  0  0  0  0
    5.6984   14.7362   26.6460 C   0  0  0  0  0  0  0  0  0  0  0  0
    5.3834   15.1897   27.9141 C   0  0  0  0  0  0  0  0  0  0  0  0
    5.2693   16.5681   28.1141 C   0  0  0  0  0  0  0  0  0  0  0  0
    5.4654   17.4438   27.0435 C   0  0  0  0  0  0  0  0  0  0  0  0
    5.4062   19.3023   27.3765 Br  0  0  0  0  0  0  0  0  0  0  0  0
    5.7299   16.8874   25.8040 C   0  0  0  0  0  0  0  0  0  0  0  0
    6.0654   17.8510   24.2301 Br  0  0  0  0  0  0  0  0  0  0  0  0
    5.8432   15.5658   25.6135 N   0  0  0  0  0  0  0  0  0  0  0  0
  1  2  1  0
  2  3  1  0
  3  4  2  0
  5  3  1  1
  5  6  1  0
  6  7  1  0
  7  8  1  0
  8  9  1  0
  9 10  1  0
 10 11  2  0
 10 12  1  0
 12 13  1  1
 12 14  1  0
 14 15  1  0
 15 16  2  0
 16 17  1  0
 17 18  2  0
 18 19  1  0
 18 20  1  0
 20 21  1  0
 20 22  2  0
  9  5  1  0
 22 15  1  0
M  END
>  <distance_score>  (111) 
1.943871

>  <smiles>  (111) 
COC(=O)[C@@H]1CCCN1C(=O)[C@@H](C)Sc1ccc(Br)c(Br)n1

>  <fragmenstein_error>  (111) 
nan

>  <fragmenstein_runtime>  (111) 
nan

>  <gnina_score_min>  (111) 
4.945

>  <orig_smiles>  (111) 
nan

>  <fragmenstein_mode>  (111) 
nan

>  <rmsd(smina/fragmenstein)>  (111) 
1.08

>  <inspiration_score>  (111) 
None

>  <name>  (111) 
P498155

>  <ref_pdb>  (111) 
A4237a

>  <ref_mols>  (111) 
A4237a,A1778a

>  <subsites>  (111) 
None

>  <tags>  (111) 
openbind_a71ev2a_c1_elabs_filtered,openbind_a71ev2a_c1_elab_chemspace_filtered_scored

>  <inchikey>  (111) 
ZUDILCXAQYKHSO-SCZZXKLOSA-N

>  <scratch_subdir>  (111) 
nan

>  <smina_score_min>  (111) 
-4.477

>  <energy_score>  (111) 
-39.481693

>  <Energy>  (111) 
nan

>  <fragmenstein_outcome>  (111) 
nan

>  <alias>  (111) 
None

>  <HIPPO Pose ID>  (111) 
498155

>  <exports>  (111) 
['/opt/xchem-fragalysis-2/maxwin/openbind-hippo/a71ev2a/cycle_01/bulkdock/openbind_a71ev2a_c1_elab_chemspace.sdf', '/opt/xchem-fragalysis-2/maxwin/openbind-hippo/a71ev2a/cycle_01/syndirella/elabs/openbind_a71ev2a_c1_elab_chemspace_filtered.sdf']

>  <HIPPO Compound ID>  (111) 
291505

>  <gnina_score>  (111) 
5.083

$$$$
P498156
     RDKit          3D

 23 24  0  0  0  0  0  0  0  0999 V2000
    9.4893   10.5593   24.3487 C   0  0  0  0  0  0  0  0  0  0  0  0
    9.5902   11.9755   24.4841 O   0  0  0  0  0  0  0  0  0  0  0  0
   10.2611   12.5675   23.3660 C   0  0  0  0  0  0  0  0  0  0  0  0
   10.0190   14.1020   23.2765 C   0  0  1  0  0  0  0  0  0  0  0  0
   11.1646   14.7489   22.4788 C   0  0  2  0  0  0  0  0  0  0  0  0
   12.1047   15.4185   23.3011 O   0  0  0  0  0  0  0  0  0  0  0  0
   10.3858   15.6793   21.6265 C   0  0  1  0  0  0  0  0  0  0  0  0
   11.0135   15.8269   20.3683 O   0  0  0  0  0  0  0  0  0  0  0  0
    9.1656   14.8061   21.6050 C   0  0  0  0  0  0  0  0  0  0  0  0
    8.5550   14.5750   22.9423 N   0  0  0  0  0  0  0  0  0  0  0  0
    7.6056   13.5946   23.3798 C   0  0  0  0  0  0  0  0  0  0  0  0
    7.1302   12.6543   22.7987 O   0  0  0  0  0  0  0  0  0  0  0  0
    7.1293   13.9664   24.8001 C   0  0  2  0  0  0  0  0  0  0  0  0
    6.5916   12.7764   25.5854 C   0  0  0  0  0  0  0  0  0  0  0  0
    5.7654   15.1779   24.5828 S   0  0  0  0  0  0  0  0  0  0  0  0
    6.1785   16.4280   25.7620 C   0  0  0  0  0  0  0  0  0  0  0  0
    7.4716   16.8975   25.9453 C   0  0  0  0  0  0  0  0  0  0  0  0
    7.6959   17.9103   26.8724 C   0  0  0  0  0  0  0  0  0  0  0  0
    6.6177   18.4746   27.5462 C   0  0  0  0  0  0  0  0  0  0  0  0
    6.9817   19.9034   28.7302 Br  0  0  0  0  0  0  0  0  0  0  0  0
    5.3509   17.9595   27.2957 C   0  0  0  0  0  0  0  0  0  0  0  0
    3.7939   18.6346   28.1602 Br  0  0  0  0  0  0  0  0  0  0  0  0
    5.1280   16.9325   26.4410 N   0  0  0  0  0  0  0  0  0  0  0  0
  1  2  1  0
  2  3  1  0
  4  3  1  6
  4  5  1  0
  5  6  1  1
  5  7  1  0
  7  8  1  6
  7  9  1  0
  9 10  1  0
 10 11  1  0
 11 12  2  0
 11 13  1  0
 13 14  1  6
 13 15  1  0
 15 16  1  0
 16 17  2  0
 17 18  1  0
 18 19  2  0
 19 20  1  0
 19 21  1  0
 21 22  1  0
 21 23  2  0
 10  4  1  0
 23 16  1  0
M  END
>  <distance_score>  (112) 
1.967778

>  <smiles>  (112) 
COC[C@H]1[C@H](O)[C@@H](O)CN1C(=O)[C@H](C)Sc1ccc(Br)c(Br)n1

>  <fragmenstein_error>  (112) 
nan

>  <fragmenstein_runtime>  (112) 
nan

>  <gnina_score_min>  (112) 
4.429

>  <orig_smiles>  (112) 
nan

>  <fragmenstein_mode>  (112) 
nan

>  <rmsd(smina/fragmenstein)>  (112) 
1.503

>  <inspiration_score>  (112) 
None

>  <name>  (112) 
P498156

>  <ref_pdb>  (112) 
A4237a

>  <ref_mols>  (112) 
A4237a,A1778a

>  <subsites>  (112) 
None

>  <tags>  (112) 
openbind_a71ev2a_c1_elabs_filtered,openbind_a71ev2a_c1_elab_chemspace_filtered_scored

>  <inchikey>  (112) 
PLOIIVZEXYLGST-GCWIYAPXSA-N

>  <scratch_subdir>  (112) 
nan

>  <smina_score_min>  (112) 
-5.617

>  <energy_score>  (112) 
-26.18626

>  <Energy>  (112) 
nan

>  <fragmenstein_outcome>  (112) 
nan

>  <alias>  (112) 
None

>  <HIPPO Pose ID>  (112) 
498156

>  <exports>  (112) 
['/opt/xchem-fragalysis-2/maxwin/openbind-hippo/a71ev2a/cycle_01/syndirella/elabs/openbind_a71ev2a_c1_elab_chemspace_filtered.sdf']

>  <HIPPO Compound ID>  (112) 
291538

>  <gnina_score>  (112) 
4.709

$$$$
P498157
     RDKit          3D

 24 25  0  0  0  0  0  0  0  0999 V2000
   10.7695   15.5846   19.4024 C   0  0  0  0  0  0  0  0  0  0  0  0
    9.4284   15.4037   19.8145 O   0  0  0  0  0  0  0  0  0  0  0  0
    9.1868   15.5935   21.2110 C   0  0  0  0  0  0  0  0  0  0  0  0
    9.8952   14.5300   22.0973 C   0  0  1  0  0  0  0  0  0  0  0  0
   11.2331   15.0661   22.5712 C   0  0  0  0  0  0  0  0  0  0  0  0
   11.4823   14.1333   23.6982 C   0  0  0  0  0  0  0  0  0  0  0  0
   10.2389   13.2536   23.6202 C   0  0  1  0  0  0  0  0  0  0  0  0
   10.2020   12.4672   24.9603 C   0  0  0  0  0  0  0  0  0  0  0  0
    9.2535   11.4097   25.0299 O   0  0  0  0  0  0  0  0  0  0  0  0
    9.5510   10.2652   24.2398 C   0  0  0  0  0  0  0  0  0  0  0  0
    9.0213   14.1706   23.3059 N   0  0  0  0  0  0  0  0  0  0  0  0
    7.7943   13.4216   23.3883 C   0  0  0  0  0  0  0  0  0  0  0  0
    7.1918   12.8122   22.5410 O   0  0  0  0  0  0  0  0  0  0  0  0
    7.1816   13.5692   24.8080 C   0  0  2  0  0  0  0  0  0  0  0  0
    6.5151   12.2967   25.3254 C   0  0  0  0  0  0  0  0  0  0  0  0
    5.8926   14.8840   24.6465 S   0  0  0  0  0  0  0  0  0  0  0  0
    6.4280   16.1424   25.7641 C   0  0  0  0  0  0  0  0  0  0  0  0
    7.7567   16.4875   25.9627 C   0  0  0  0  0  0  0  0  0  0  0  0
    8.0599   17.5248   26.8415 C   0  0  0  0  0  0  0  0  0  0  0  0
    7.0288   18.2341   27.4519 C   0  0  0  0  0  0  0  0  0  0  0  0
    7.5062   19.6818   28.5718 Br  0  0  0  0  0  0  0  0  0  0  0  0
    5.7229   17.8389   27.1894 C   0  0  0  0  0  0  0  0  0  0  0  0
    4.2219   18.7152   27.9662 Br  0  0  0  0  0  0  0  0  0  0  0  0
    5.4215   16.7933   26.3842 N   0  0  0  0  0  0  0  0  0  0  0  0
  1  2  1  0
  2  3  1  0
  4  3  1  1
  4  5  1  0
  5  6  1  0
  6  7  1  0
  7  8  1  1
  8  9  1  0
  9 10  1  0
  7 11  1  0
 11 12  1  0
 12 13  2  0
 12 14  1  0
 14 15  1  6
 14 16  1  0
 16 17  1  0
 17 18  2  0
 18 19  1  0
 19 20  2  0
 20 21  1  0
 20 22  1  0
 22 23  1  0
 22 24  2  0
 11  4  1  0
 24 17  1  0
M  END
>  <distance_score>  (113) 
1.861115

>  <smiles>  (113) 
COC[C@H]1CC[C@@H](COC)N1C(=O)[C@H](C)Sc1ccc(Br)c(Br)n1

>  <fragmenstein_error>  (113) 
nan

>  <fragmenstein_runtime>  (113) 
nan

>  <gnina_score_min>  (113) 
4.997

>  <orig_smiles>  (113) 
nan

>  <fragmenstein_mode>  (113) 
nan

>  <rmsd(smina/fragmenstein)>  (113) 
1.238

>  <inspiration_score>  (113) 
None

>  <name>  (113) 
P498157

>  <ref_pdb>  (113) 
A4237a

>  <ref_mols>  (113) 
A4237a,A1778a

>  <subsites>  (113) 
None

>  <tags>  (113) 
openbind_a71ev2a_c1_elabs_filtered,openbind_a71ev2a_c1_elab_chemspace_filtered_scored

>  <inchikey>  (113) 
OMQWTXCQTQMZOJ-SDDRHHMPSA-N

>  <scratch_subdir>  (113) 
nan

>  <smina_score_min>  (113) 
-5.554

>  <energy_score>  (113) 
-6.567721

>  <Energy>  (113) 
nan

>  <fragmenstein_outcome>  (113) 
nan

>  <alias>  (113) 
None

>  <HIPPO Pose ID>  (113) 
498157

>  <exports>  (113) 
['/opt/xchem-fragalysis-2/maxwin/openbind-hippo/a71ev2a/cycle_01/syndirella/elabs/openbind_a71ev2a_c1_elab_chemspace_filtered.sdf']

>  <HIPPO Compound ID>  (113) 
291578

>  <gnina_score>  (113) 
5.165

$$$$
P498158
     RDKit          3D

 26 28  0  0  0  0  0  0  0  0999 V2000
    9.2115   17.2212   20.9865 C   0  0  0  0  0  0  0  0  0  0  0  0
    9.5543   16.3122   21.6874 C   0  0  0  0  0  0  0  0  0  0  0  0
   10.2223   15.2511   22.4262 C   0  0  2  0  0  0  0  0  0  0  0  0
   11.4207   15.8550   23.1343 C   0  0  0  0  0  0  0  0  0  0  0  0
   11.7362   14.7377   24.0681 C   0  0  0  0  0  0  0  0  0  0  0  0
   10.6741   13.7281   23.6197 C   0  0  2  0  0  0  0  0  0  0  0  0
   10.6996   12.5922   24.6914 C   0  0  0  0  0  0  0  0  0  0  0  0
   10.7033   12.7683   25.9017 O   0  0  0  0  0  0  0  0  0  0  0  0
   10.6526   11.3698   24.0976 O   0  0  0  0  0  0  0  0  0  0  0  0
   10.4236   10.1983   24.8814 C   0  0  0  0  0  0  0  0  0  0  0  0
   11.0138   13.1428   22.2668 C   0  0  0  0  0  0  0  0  0  0  0  0
   10.6370   14.2520   21.3691 C   0  0  0  0  0  0  0  0  0  0  0  0
    9.3666   14.5546   23.4936 N   0  0  0  0  0  0  0  0  0  0  0  0
    8.1443   13.6438   23.3522 C   0  0  0  0  0  0  0  0  0  0  0  0
    7.6277   13.2041   22.3860 O   0  0  0  0  0  0  0  0  0  0  0  0
    7.6902   13.2527   24.7691 C   0  0  2  0  0  0  0  0  0  0  0  0
    7.4620   11.7448   24.8306 C   0  0  0  0  0  0  0  0  0  0  0  0
    6.1347   14.0410   25.2356 S   0  0  0  0  0  0  0  0  0  0  0  0
    6.6211   15.6097   25.8819 C   0  0  0  0  0  0  0  0  0  0  0  0
    7.7779   15.8438   26.6129 C   0  0  0  0  0  0  0  0  0  0  0  0
    7.9664   17.0950   27.1948 C   0  0  0  0  0  0  0  0  0  0  0  0
    6.9839   18.0712   27.0568 C   0  0  0  0  0  0  0  0  0  0  0  0
    7.2408   19.7070   27.9633 Br  0  0  0  0  0  0  0  0  0  0  0  0
    5.8512   17.7592   26.3176 C   0  0  0  0  0  0  0  0  0  0  0  0
    4.3611   18.9361   26.2128 Br  0  0  0  0  0  0  0  0  0  0  0  0
    5.6704   16.5530   25.7348 N   0  0  0  0  0  0  0  0  0  0  0  0
  1  2  3  0
  3  2  1  6
  3  4  1  0
  4  5  1  0
  5  6  1  0
  6  7  1  1
  7  8  2  0
  7  9  1  0
  9 10  1  0
  6 11  1  0
 11 12  1  0
  6 13  1  0
 13 14  1  0
 14 15  2  0
 14 16  1  0
 16 17  1  6
 16 18  1  0
 18 19  1  0
 19 20  2  0
 20 21  1  0
 21 22  2  0
 22 23  1  0
 22 24  1  0
 24 25  1  0
 24 26  2  0
 12  3  1  0
 26 19  1  0
 13  3  1  0
M  END
>  <distance_score>  (114) 
1.969287

>  <smiles>  (114) 
C#C[C@]12CC[C@](C(=O)OC)(CC1)N2C(=O)[C@H](C)Sc1ccc(Br)c(Br)n1

>  <fragmenstein_error>  (114) 
nan

>  <fragmenstein_runtime>  (114) 
nan

>  <gnina_score_min>  (114) 
5.47

>  <orig_smiles>  (114) 
nan

>  <fragmenstein_mode>  (114) 
nan

>  <rmsd(smina/fragmenstein)>  (114) 
1.613

>  <inspiration_score>  (114) 
None

>  <name>  (114) 
P498158

>  <ref_pdb>  (114) 
A4237a

>  <ref_mols>  (114) 
A4237a,A1778a

>  <subsites>  (114) 
None

>  <tags>  (114) 
openbind_a71ev2a_c1_elabs_filtered,openbind_a71ev2a_c1_elab_chemspace_filtered_scored

>  <inchikey>  (114) 
DCYSKAMXJQPCGL-FJNPEDAXSA-N

>  <scratch_subdir>  (114) 
nan

>  <smina_score_min>  (114) 
-5.447

>  <energy_score>  (114) 
-7.706439

>  <Energy>  (114) 
nan

>  <fragmenstein_outcome>  (114) 
nan

>  <alias>  (114) 
None

>  <HIPPO Pose ID>  (114) 
498158

>  <exports>  (114) 
['/opt/xchem-fragalysis-2/maxwin/openbind-hippo/a71ev2a/cycle_01/bulkdock/openbind_a71ev2a_c1_elab_chemspace.sdf', '/opt/xchem-fragalysis-2/maxwin/openbind-hippo/a71ev2a/cycle_01/syndirella/elabs/openbind_a71ev2a_c1_elab_chemspace_filtered.sdf']

>  <HIPPO Compound ID>  (114) 
291643

>  <gnina_score>  (114) 
5.736

$$$$
P498159
     RDKit          3D

 27 29  0  0  0  0  0  0  0  0999 V2000
   10.4456   15.3144   18.8542 C   0  0  0  0  0  0  0  0  0  0  0  0
   10.8104   15.3463   20.2233 O   0  0  0  0  0  0  0  0  0  0  0  0
    9.7806   14.9091   21.1244 C   0  0  0  0  0  0  0  0  0  0  0  0
   10.4351   14.6357   22.5087 C   0  0  2  0  0  0  0  0  0  0  0  0
   11.2439   15.8589   22.8694 C   0  0  0  0  0  0  0  0  0  0  0  0
   11.5660   15.4828   24.2583 C   0  0  0  0  0  0  0  0  0  0  0  0
   10.7902   14.1765   24.4220 C   0  0  2  0  0  0  0  0  0  0  0  0
   10.8155   13.9913   25.9649 C   0  0  0  0  0  0  0  0  0  0  0  0
   11.4359   13.1065   26.5396 O   0  0  0  0  0  0  0  0  0  0  0  0
   10.1445   14.9893   26.6030 O   0  0  0  0  0  0  0  0  0  0  0  0
   10.3467   15.1194   28.0147 C   0  0  0  0  0  0  0  0  0  0  0  0
   11.5599   13.0372   23.7980 C   0  0  0  0  0  0  0  0  0  0  0  0
   11.2942   13.3741   22.3719 C   0  0  0  0  0  0  0  0  0  0  0  0
    9.4421   14.3074   23.6449 N   0  0  0  0  0  0  0  0  0  0  0  0
    8.5548   13.0866   23.8655 C   0  0  0  0  0  0  0  0  0  0  0  0
    8.4825   12.0771   23.2600 O   0  0  0  0  0  0  0  0  0  0  0  0
    7.6729   13.3004   25.0962 C   0  0  2  0  0  0  0  0  0  0  0  0
    7.2514   11.9303   25.6213 C   0  0  0  0  0  0  0  0  0  0  0  0
    6.1903   14.2272   24.6007 S   0  0  0  0  0  0  0  0  0  0  0  0
    6.3720   15.7482   25.4858 C   0  0  0  0  0  0  0  0  0  0  0  0
    7.5882   16.3726   25.6934 C   0  0  0  0  0  0  0  0  0  0  0  0
    7.6506   17.5301   26.4577 C   0  0  0  0  0  0  0  0  0  0  0  0
    6.4757   18.1067   26.9089 C   0  0  0  0  0  0  0  0  0  0  0  0
    6.6223   19.7191   27.8748 Br  0  0  0  0  0  0  0  0  0  0  0  0
    5.2837   17.4606   26.6099 C   0  0  0  0  0  0  0  0  0  0  0  0
    3.5981   18.1420   27.1799 Br  0  0  0  0  0  0  0  0  0  0  0  0
    5.2252   16.2802   25.9442 N   0  0  0  0  0  0  0  0  0  0  0  0
  1  2  1  0
  2  3  1  0
  4  3  1  6
  4  5  1  0
  5  6  1  0
  6  7  1  0
  7  8  1  1
  8  9  2  0
  8 10  1  0
 10 11  1  0
  7 12  1  0
 12 13  1  0
  7 14  1  0
 14 15  1  0
 15 16  2  0
 15 17  1  0
 17 18  1  6
 17 19  1  0
 19 20  1  0
 20 21  2  0
 21 22  1  0
 22 23  2  0
 23 24  1  0
 23 25  1  0
 25 26  1  0
 25 27  2  0
 13  4  1  0
 27 20  1  0
 14  4  1  0
M  END
>  <distance_score>  (115) 
1.91036

>  <smiles>  (115) 
COC[C@]12CC[C@](C(=O)OC)(CC1)N2C(=O)[C@H](C)Sc1ccc(Br)c(Br)n1

>  <fragmenstein_error>  (115) 
nan

>  <fragmenstein_runtime>  (115) 
nan

>  <gnina_score_min>  (115) 
5.485

>  <orig_smiles>  (115) 
nan

>  <fragmenstein_mode>  (115) 
nan

>  <rmsd(smina/fragmenstein)>  (115) 
0.541

>  <inspiration_score>  (115) 
None

>  <name>  (115) 
P498159

>  <ref_pdb>  (115) 
A4237a

>  <ref_mols>  (115) 
A4237a,A1778a

>  <subsites>  (115) 
None

>  <tags>  (115) 
openbind_a71ev2a_c1_elabs_filtered,openbind_a71ev2a_c1_elab_chemspace_filtered_scored

>  <inchikey>  (115) 
YABVFKKLRCJWPJ-FJNPEDAXSA-N

>  <scratch_subdir>  (115) 
nan

>  <smina_score_min>  (115) 
-5.088

>  <energy_score>  (115) 
-34.330745

>  <Energy>  (115) 
nan

>  <fragmenstein_outcome>  (115) 
nan

>  <alias>  (115) 
None

>  <HIPPO Pose ID>  (115) 
498159

>  <exports>  (115) 
['/opt/xchem-fragalysis-2/maxwin/openbind-hippo/a71ev2a/cycle_01/bulkdock/openbind_a71ev2a_c1_elab_chemspace.sdf', '/opt/xchem-fragalysis-2/maxwin/openbind-hippo/a71ev2a/cycle_01/syndirella/elabs/openbind_a71ev2a_c1_elab_chemspace_filtered.sdf']

>  <HIPPO Compound ID>  (115) 
291666

>  <gnina_score>  (115) 
5.812

$$$$
P498160
     RDKit          3D

 27 29  0  0  0  0  0  0  0  0999 V2000
    9.4241   17.4118   20.8162 C   0  0  0  0  0  0  0  0  0  0  0  0
    8.3883   16.6174   21.4003 O   0  0  0  0  0  0  0  0  0  0  0  0
    8.5580   16.1999   22.6709 C   0  0  0  0  0  0  0  0  0  0  0  0
    7.8358   16.5871   23.5861 O   0  0  0  0  0  0  0  0  0  0  0  0
    9.6947   15.1865   22.9006 C   0  0  2  0  0  0  0  0  0  0  0  0
   10.9018   15.8939   23.4902 C   0  0  0  0  0  0  0  0  0  0  0  0
   11.5175   14.7519   24.2148 C   0  0  0  0  0  0  0  0  0  0  0  0
   10.5479   13.6362   23.8086 C   0  0  2  0  0  0  0  0  0  0  0  0
   10.8743   12.4284   24.7108 C   0  0  0  0  0  0  0  0  0  0  0  0
   10.1949   11.3203   24.3269 F   0  0  0  0  0  0  0  0  0  0  0  0
   12.1932   12.1238   24.5985 F   0  0  0  0  0  0  0  0  0  0  0  0
   10.7416   13.2353   22.3544 C   0  0  0  0  0  0  0  0  0  0  0  0
   10.0512   14.3700   21.6688 C   0  0  0  0  0  0  0  0  0  0  0  0
    9.1208   14.2188   23.9547 N   0  0  0  0  0  0  0  0  0  0  0  0
    8.0598   13.1267   23.8284 C   0  0  0  0  0  0  0  0  0  0  0  0
    7.4934   12.7200   22.8770 O   0  0  0  0  0  0  0  0  0  0  0  0
    7.7196   12.6515   25.2497 C   0  0  2  0  0  0  0  0  0  0  0  0
    7.4683   11.1496   25.2598 C   0  0  0  0  0  0  0  0  0  0  0  0
    6.1689   13.4400   25.8051 S   0  0  0  0  0  0  0  0  0  0  0  0
    6.6268   15.1087   26.1851 C   0  0  0  0  0  0  0  0  0  0  0  0
    7.7939   15.4506   26.8555 C   0  0  0  0  0  0  0  0  0  0  0  0
    7.9723   16.7683   27.2717 C   0  0  0  0  0  0  0  0  0  0  0  0
    6.9758   17.7077   27.0208 C   0  0  0  0  0  0  0  0  0  0  0  0
    7.1956   19.4344   27.7583 Br  0  0  0  0  0  0  0  0  0  0  0  0
    5.8446   17.2915   26.3300 C   0  0  0  0  0  0  0  0  0  0  0  0
    4.3634   18.4472   26.0432 Br  0  0  0  0  0  0  0  0  0  0  0  0
    5.6565   16.0104   25.9353 N   0  0  0  0  0  0  0  0  0  0  0  0
  1  2  1  0
  2  3  1  0
  3  4  2  0
  5  3  1  6
  5  6  1  0
  6  7  1  0
  7  8  1  0
  8  9  1  1
  9 10  1  0
  9 11  1  0
  8 12  1  0
 12 13  1  0
  8 14  1  0
 14 15  1  0
 15 16  2  0
 15 17  1  0
 17 18  1  6
 17 19  1  0
 19 20  1  0
 20 21  2  0
 21 22  1  0
 22 23  2  0
 23 24  1  0
 23 25  1  0
 25 26  1  0
 25 27  2  0
 13  5  1  0
 27 20  1  0
 14  5  1  0
M  END
>  <distance_score>  (116) 
1.558178

>  <smiles>  (116) 
COC(=O)[C@]12CC[C@](C(F)F)(CC1)N2C(=O)[C@H](C)Sc1ccc(Br)c(Br)n1

>  <fragmenstein_error>  (116) 
nan

>  <fragmenstein_runtime>  (116) 
nan

>  <gnina_score_min>  (116) 
5.429

>  <orig_smiles>  (116) 
nan

>  <fragmenstein_mode>  (116) 
nan

>  <rmsd(smina/fragmenstein)>  (116) 
0.923

>  <inspiration_score>  (116) 
None

>  <name>  (116) 
P498160

>  <ref_pdb>  (116) 
A4237a

>  <ref_mols>  (116) 
A4237a,A1778a

>  <subsites>  (116) 
None

>  <tags>  (116) 
openbind_a71ev2a_c1_elabs_filtered,openbind_a71ev2a_c1_elab_chemspace_filtered_scored

>  <inchikey>  (116) 
HZSXOYVWKSYWHG-YMUUXVPOSA-N

>  <scratch_subdir>  (116) 
nan

>  <smina_score_min>  (116) 
-5.767

>  <energy_score>  (116) 
-12.302253

>  <Energy>  (116) 
nan

>  <fragmenstein_outcome>  (116) 
nan

>  <alias>  (116) 
None

>  <HIPPO Pose ID>  (116) 
498160

>  <exports>  (116) 
['/opt/xchem-fragalysis-2/maxwin/openbind-hippo/a71ev2a/cycle_01/bulkdock/openbind_a71ev2a_c1_elab_chemspace.sdf', '/opt/xchem-fragalysis-2/maxwin/openbind-hippo/a71ev2a/cycle_01/syndirella/elabs/openbind_a71ev2a_c1_elab_chemspace_filtered.sdf']

>  <HIPPO Compound ID>  (116) 
291669

>  <gnina_score>  (116) 
5.562

$$$$
P498166
     RDKit          3D

 25 27  0  0  0  0  0  0  0  0999 V2000
    5.5805   13.1211   27.1442 C   0  0  0  0  0  0  0  0  0  0  0  0
    5.6611   11.7388   26.7788 O   0  0  0  0  0  0  0  0  0  0  0  0
    6.4212   11.3168   25.7264 C   0  0  0  0  0  0  0  0  0  0  0  0
    6.3752   10.1353   25.3895 O   0  0  0  0  0  0  0  0  0  0  0  0
    7.3544   12.3716   25.1016 C   0  0  0  0  0  0  0  0  0  0  0  0
    7.9683   11.9670   23.8097 N   0  0  0  0  0  0  0  0  0  0  0  0
    8.7771   10.7416   23.9051 C   0  0  0  0  0  0  0  0  0  0  0  0
   10.2185   11.0080   23.5459 C   0  0  0  0  0  0  0  0  0  0  0  0
   10.6896   12.2161   24.3472 C   0  0  0  0  0  0  0  0  0  0  0  0
   10.0283   13.4809   23.8223 C   0  0  1  0  0  0  0  0  0  0  0  0
   10.8898   14.2226   22.9151 N   0  0  0  0  0  0  0  0  0  0  0  0
   12.3081   13.8834   22.3617 C   0  0  0  0  0  0  0  0  0  0  0  0
   13.0267   12.9952   22.6128 O   0  0  0  0  0  0  0  0  0  0  0  0
   12.7239   15.0105   21.4428 C   0  0  0  0  0  0  0  0  0  0  0  0
   12.1274   15.0387   20.0401 C   0  0  1  0  0  0  0  0  0  0  0  0
   10.6824   15.0754   20.1172 N   0  0  0  0  0  0  0  0  0  0  0  0
   10.2242   16.3700   20.1542 C   0  0  0  0  0  0  0  0  0  0  0  0
    9.1741   16.7789   20.5896 O   0  0  0  0  0  0  0  0  0  0  0  0
   11.2969   17.2235   19.6835 C   0  0  0  0  0  0  0  0  0  0  0  0
   11.3045   18.5943   19.5001 C   0  0  0  0  0  0  0  0  0  0  0  0
   12.5044   19.1752   19.0983 C   0  0  0  0  0  0  0  0  0  0  0  0
   13.6297   18.3687   18.8534 C   0  0  0  0  0  0  0  0  0  0  0  0
   13.5858   16.9814   19.0508 C   0  0  0  0  0  0  0  0  0  0  0  0
   12.4143   16.4188   19.5051 C   0  0  0  0  0  0  0  0  0  0  0  0
    8.6744   13.1070   23.1810 C   0  0  0  0  0  0  0  0  0  0  0  0
  1  2  1  0
  2  3  1  0
  3  4  2  0
  3  5  1  0
  5  6  1  0
  6  7  1  0
  7  8  1  0
  8  9  1  0
  9 10  1  0
 10 11  1  6
 11 12  1  0
 12 13  2  0
 12 14  1  0
 15 14  1  1
 15 16  1  0
 16 17  1  0
 17 18  2  0
 17 19  1  0
 19 20  2  0
 20 21  1  0
 21 22  2  0
 22 23  1  0
 23 24  2  0
 10 25  1  0
 25  6  1  0
 24 15  1  0
 24 19  1  0
M  END
>  <distance_score>  (117) 
1.912535

>  <smiles>  (117) 
COC(=O)CN1CCC[C@@H](NC(=O)C[C@H]2NC(=O)c3ccccc32)C1

>  <fragmenstein_error>  (117) 
nan

>  <fragmenstein_runtime>  (117) 
nan

>  <gnina_score_min>  (117) 
5.578

>  <orig_smiles>  (117) 
nan

>  <fragmenstein_mode>  (117) 
nan

>  <rmsd(smina/fragmenstein)>  (117) 
0.65

>  <inspiration_score>  (117) 
None

>  <name>  (117) 
P498166

>  <ref_pdb>  (117) 
A2293a

>  <ref_mols>  (117) 
A4943b,A2293a

>  <subsites>  (117) 
None

>  <tags>  (117) 
openbind_a71ev2a_c1_elabs_filtered,openbind_a71ev2a_c1_elab_chemspace_filtered_scored

>  <inchikey>  (117) 
NCVYHZRWGZMWSU-IUODEOHRSA-N

>  <scratch_subdir>  (117) 
nan

>  <smina_score_min>  (117) 
-7.706

>  <energy_score>  (117) 
-12.870399

>  <Energy>  (117) 
nan

>  <fragmenstein_outcome>  (117) 
nan

>  <alias>  (117) 
None

>  <HIPPO Pose ID>  (117) 
498166

>  <exports>  (117) 
['/opt/xchem-fragalysis-2/maxwin/openbind-hippo/a71ev2a/cycle_01/bulkdock/openbind_a71ev2a_c1_elab_chemspace.sdf', '/opt/xchem-fragalysis-2/maxwin/openbind-hippo/a71ev2a/cycle_01/syndirella/elabs/openbind_a71ev2a_c1_elab_chemspace_filtered.sdf']

>  <HIPPO Compound ID>  (117) 
291885

>  <gnina_score>  (117) 
5.648

$$$$
P498171
     RDKit          3D

 20 22  0  0  0  0  0  0  0  0999 V2000
   11.9140   14.0330   19.2780 C   0  0  0  0  0  0  0  0  0  0  0  0
   12.4407   15.2811   19.7068 N   0  0  0  0  0  0  0  0  0  0  0  0
   12.7376   16.3308   18.8605 C   0  0  0  0  0  0  0  0  0  0  0  0
   12.4996   16.3815   17.6615 O   0  0  0  0  0  0  0  0  0  0  0  0
   13.3526   17.4225   19.6929 C   0  0  1  0  0  0  0  0  0  0  0  0
   12.9505   18.6793   19.3643 F   0  0  0  0  0  0  0  0  0  0  0  0
   12.8873   17.0777   21.0967 C   0  0  0  0  0  0  0  0  0  0  0  0
   12.7450   15.5604   21.0909 C   0  0  1  0  0  0  0  0  0  0  0  0
   11.7777   14.9905   22.1505 C   0  0  0  0  0  0  0  0  0  0  0  0
   11.0426   15.6537   22.8654 O   0  0  0  0  0  0  0  0  0  0  0  0
   11.8760   13.6282   22.2694 O   0  0  0  0  0  0  0  0  0  0  0  0
   11.4970   13.0862   23.5522 C   0  0  0  0  0  0  0  0  0  0  0  0
   10.0361   12.6979   23.7307 C   0  0  0  0  0  0  0  0  0  0  0  0
    9.7859   11.2357   23.8121 N   0  0  0  0  0  0  0  0  0  0  0  0
   10.1639   10.3397   22.8677 C   0  0  0  0  0  0  0  0  0  0  0  0
    9.5476    9.1586   23.1805 C   0  0  0  0  0  0  0  0  0  0  0  0
    8.7749    9.4832   24.3047 C   0  0  0  0  0  0  0  0  0  0  0  0
    8.9537   10.7275   24.7330 N   0  0  0  0  0  0  0  0  0  0  0  0
    8.8711   13.5668   23.2723 C   0  0  0  0  0  0  0  0  0  0  0  0
    9.2709   13.6009   24.7037 C   0  0  0  0  0  0  0  0  0  0  0  0
  1  2  1  0
  2  3  1  0
  3  4  2  0
  3  5  1  0
  5  6  1  6
  5  7  1  0
  7  8  1  0
  8  9  1  1
  9 10  2  0
  9 11  1  0
 11 12  1  0
 12 13  1  0
 13 14  1  0
 14 15  1  0
 15 16  2  0
 16 17  1  0
 17 18  2  0
 13 19  1  0
 19 20  1  0
  8  2  1  0
 20 13  1  0
 18 14  1  0
M  END
>  <distance_score>  (118) 
1.428157

>  <smiles>  (118) 
CN1C(=O)[C@@H](F)C[C@H]1C(=O)OCC1(n2cccn2)CC1

>  <fragmenstein_error>  (118) 
nan

>  <fragmenstein_runtime>  (118) 
nan

>  <gnina_score_min>  (118) 
4.838

>  <orig_smiles>  (118) 
nan

>  <fragmenstein_mode>  (118) 
nan

>  <rmsd(smina/fragmenstein)>  (118) 
0.739

>  <inspiration_score>  (118) 
None

>  <name>  (118) 
P498171

>  <ref_pdb>  (118) 
A2629a

>  <ref_mols>  (118) 
A3956a,A2629a

>  <subsites>  (118) 
None

>  <tags>  (118) 
openbind_a71ev2a_c1_elabs_filtered,openbind_a71ev2a_c1_elab_chemspace_filtered_scored

>  <inchikey>  (118) 
ZPKSJKHOBDDPBW-UWVGGRQHSA-N

>  <scratch_subdir>  (118) 
nan

>  <smina_score_min>  (118) 
-5.767

>  <energy_score>  (118) 
-14.71477

>  <Energy>  (118) 
nan

>  <fragmenstein_outcome>  (118) 
nan

>  <alias>  (118) 
None

>  <HIPPO Pose ID>  (118) 
498171

>  <exports>  (118) 
['/opt/xchem-fragalysis-2/maxwin/openbind-hippo/a71ev2a/cycle_01/syndirella/elabs/openbind_a71ev2a_c1_elab_chemspace_filtered.sdf']

>  <HIPPO Compound ID>  (118) 
291925

>  <gnina_score>  (118) 
4.761

$$$$
P498172
     RDKit          3D

 20 22  0  0  0  0  0  0  0  0999 V2000
   12.1533   13.6326   18.5620 C   0  0  0  0  0  0  0  0  0  0  0  0
   11.5765   14.7976   19.2350 C   0  0  0  0  0  0  0  0  0  0  0  0
   12.6136   15.5576   19.8554 N   0  0  0  0  0  0  0  0  0  0  0  0
   13.4997   16.2766   19.0725 C   0  0  0  0  0  0  0  0  0  0  0  0
   13.6376   16.1843   17.8641 O   0  0  0  0  0  0  0  0  0  0  0  0
   14.1120   17.3293   19.9427 C   0  0  0  0  0  0  0  0  0  0  0  0
   13.7068   16.9042   21.3447 C   0  0  0  0  0  0  0  0  0  0  0  0
   12.3832   16.2374   21.1067 C   0  0  2  0  0  0  0  0  0  0  0  0
   11.6364   15.4010   22.1636 C   0  0  0  0  0  0  0  0  0  0  0  0
   10.7937   15.8966   22.9043 O   0  0  0  0  0  0  0  0  0  0  0  0
   11.8658   14.0623   22.1868 O   0  0  0  0  0  0  0  0  0  0  0  0
   10.6212   13.3103   22.2836 C   0  0  0  0  0  0  0  0  0  0  0  0
   10.2823   12.7104   23.6317 C   0  0  0  0  0  0  0  0  0  0  0  0
    9.6523   11.3525   23.6109 N   0  0  0  0  0  0  0  0  0  0  0  0
   10.1370   10.2832   22.9293 C   0  0  0  0  0  0  0  0  0  0  0  0
    9.4782    9.1823   23.4052 C   0  0  0  0  0  0  0  0  0  0  0  0
    8.5941    9.7057   24.3611 C   0  0  0  0  0  0  0  0  0  0  0  0
    8.6788   11.0269   24.4821 N   0  0  0  0  0  0  0  0  0  0  0  0
   11.1775   13.0504   24.7807 C   0  0  0  0  0  0  0  0  0  0  0  0
    9.8175   13.6638   24.7358 C   0  0  0  0  0  0  0  0  0  0  0  0
  1  2  1  0
  2  3  1  0
  3  4  1  0
  4  5  2  0
  4  6  1  0
  6  7  1  0
  7  8  1  0
  8  9  1  1
  9 10  2  0
  9 11  1  0
 11 12  1  0
 12 13  1  0
 13 14  1  0
 14 15  1  0
 15 16  2  0
 16 17  1  0
 17 18  2  0
 13 19  1  0
 19 20  1  0
  8  3  1  0
 20 13  1  0
 18 14  1  0
M  END
>  <distance_score>  (119) 
1.689628

>  <smiles>  (119) 
CCN1C(=O)CC[C@@H]1C(=O)OCC1(n2cccn2)CC1

>  <fragmenstein_error>  (119) 
nan

>  <fragmenstein_runtime>  (119) 
nan

>  <gnina_score_min>  (119) 
4.862

>  <orig_smiles>  (119) 
nan

>  <fragmenstein_mode>  (119) 
nan

>  <rmsd(smina/fragmenstein)>  (119) 
0.678

>  <inspiration_score>  (119) 
None

>  <name>  (119) 
P498172

>  <ref_pdb>  (119) 
A2629a

>  <ref_mols>  (119) 
A3956a,A2629a

>  <subsites>  (119) 
None

>  <tags>  (119) 
openbind_a71ev2a_c1_elabs_filtered,openbind_a71ev2a_c1_elab_chemspace_filtered_scored

>  <inchikey>  (119) 
WMOYKYFPVNLARC-LLVKDONJSA-N

>  <scratch_subdir>  (119) 
nan

>  <smina_score_min>  (119) 
-2.332

>  <energy_score>  (119) 
-15.834944

>  <Energy>  (119) 
nan

>  <fragmenstein_outcome>  (119) 
nan

>  <alias>  (119) 
None

>  <HIPPO Pose ID>  (119) 
498172

>  <exports>  (119) 
['/opt/xchem-fragalysis-2/maxwin/openbind-hippo/a71ev2a/cycle_01/bulkdock/openbind_a71ev2a_c1_elab_chemspace.sdf', '/opt/xchem-fragalysis-2/maxwin/openbind-hippo/a71ev2a/cycle_01/syndirella/elabs/openbind_a71ev2a_c1_elab_chemspace_filtered.sdf']

>  <HIPPO Compound ID>  (119) 
291926

>  <gnina_score>  (119) 
4.783

$$$$
P498179
     RDKit          3D

 18 19  0  0  0  0  0  0  0  0999 V2000
    9.0948    8.3683   22.8903 C   0  0  0  0  0  0  0  0  0  0  0  0
    8.2694    9.2087   23.7000 O   0  0  0  0  0  0  0  0  0  0  0  0
    8.9163   10.3499   24.0080 C   0  0  0  0  0  0  0  0  0  0  0  0
   10.0815   10.5826   23.7251 O   0  0  0  0  0  0  0  0  0  0  0  0
    8.0549   11.2905   24.7637 C   0  0  0  0  0  0  0  0  0  0  0  0
    7.0028   10.8419   25.5750 C   0  0  0  0  0  0  0  0  0  0  0  0
    6.3223   11.7747   26.3552 C   0  0  0  0  0  0  0  0  0  0  0  0
    5.1234   11.4848   27.1951 C   0  0  0  0  0  0  0  0  0  0  0  0
    5.1414   10.6176   28.4142 C   0  0  0  0  0  0  0  0  0  0  0  0
    5.0795   12.1048   28.5804 C   0  0  0  0  0  0  0  0  0  0  0  0
    6.6963   13.0697   26.3929 N   0  0  0  0  0  0  0  0  0  0  0  0
    7.6589   13.4815   25.5633 C   0  0  0  0  0  0  0  0  0  0  0  0
    8.3424   12.6598   24.6822 C   0  0  0  0  0  0  0  0  0  0  0  0
    9.2240   13.1880   23.7162 N   0  0  0  0  0  0  0  0  0  0  0  0
   10.5949   13.1686   24.1466 N   0  0  0  0  0  0  0  0  0  0  0  0
    8.7308   14.3952   23.0136 C   0  0  0  0  0  0  0  0  0  0  0  0
    7.3544   14.2114   22.3824 C   0  0  0  0  0  0  0  0  0  0  0  0
    9.6983   14.8058   21.9002 C   0  0  0  0  0  0  0  0  0  0  0  0
  1  2  1  0
  2  3  1  0
  3  4  2  0
  3  5  1  0
  5  6  2  0
  6  7  1  0
  7  8  1  0
  8  9  1  0
  9 10  1  0
  7 11  2  0
 11 12  1  0
 12 13  2  0
 13 14  1  0
 14 15  1  0
 14 16  1  0
 16 17  1  0
 16 18  1  0
 13  5  1  0
 10  8  1  0
M  END
>  <distance_score>  (120) 
1.473901

>  <smiles>  (120) 
COC(=O)c1cc(C2CC2)ncc1N(N)C(C)C

>  <fragmenstein_error>  (120) 
nan

>  <fragmenstein_runtime>  (120) 
nan

>  <gnina_score_min>  (120) 
4.82

>  <orig_smiles>  (120) 
nan

>  <fragmenstein_mode>  (120) 
nan

>  <rmsd(smina/fragmenstein)>  (120) 
0.48

>  <inspiration_score>  (120) 
None

>  <name>  (120) 
P498179

>  <ref_pdb>  (120) 
A0514a

>  <ref_mols>  (120) 
A4331a,A0514a

>  <subsites>  (120) 
None

>  <tags>  (120) 
openbind_a71ev2a_c1_elabs_filtered,openbind_a71ev2a_c1_elab_chemspace_filtered_scored

>  <inchikey>  (120) 
SBZPRWJMGAJEGS-UHFFFAOYSA-N

>  <scratch_subdir>  (120) 
nan

>  <smina_score_min>  (120) 
-5.215

>  <energy_score>  (120) 
-25.706418

>  <Energy>  (120) 
nan

>  <fragmenstein_outcome>  (120) 
nan

>  <alias>  (120) 
None

>  <HIPPO Pose ID>  (120) 
498179

>  <exports>  (120) 
['/opt/xchem-fragalysis-2/maxwin/openbind-hippo/a71ev2a/cycle_01/bulkdock/openbind_a71ev2a_c1_elab_chemspace.sdf', '/opt/xchem-fragalysis-2/maxwin/openbind-hippo/a71ev2a/cycle_01/syndirella/elabs/openbind_a71ev2a_c1_elab_chemspace_filtered.sdf']

>  <HIPPO Compound ID>  (120) 
292533

>  <gnina_score>  (120) 
4.863

$$$$
P498182
     RDKit          3D

 19 20  0  0  0  0  0  0  0  0999 V2000
    9.3860    8.4559   23.1029 C   0  0  0  0  0  0  0  0  0  0  0  0
    8.6362    9.2656   24.0119 O   0  0  0  0  0  0  0  0  0  0  0  0
    8.7981   10.5925   23.8330 C   0  0  0  0  0  0  0  0  0  0  0  0
    9.5090   11.1175   22.9930 O   0  0  0  0  0  0  0  0  0  0  0  0
    7.9769   11.3611   24.7991 C   0  0  0  0  0  0  0  0  0  0  0  0
    6.9361   10.7519   25.5090 C   0  0  0  0  0  0  0  0  0  0  0  0
    6.2080   11.5132   26.4154 C   0  0  0  0  0  0  0  0  0  0  0  0
    5.1692   10.9237   27.3269 C   0  0  0  0  0  0  0  0  0  0  0  0
    3.9759   11.7591   27.7428 C   0  0  0  0  0  0  0  0  0  0  0  0
    5.0657   11.4881   28.7314 C   0  0  0  0  0  0  0  0  0  0  0  0
    6.4598   12.8328   26.5836 N   0  0  0  0  0  0  0  0  0  0  0  0
    7.4461   13.4031   25.8817 C   0  0  0  0  0  0  0  0  0  0  0  0
    8.2678   12.7175   25.0061 C   0  0  0  0  0  0  0  0  0  0  0  0
    9.3584   13.3629   24.3844 N   0  0  0  0  0  0  0  0  0  0  0  0
   10.2071   14.1136   25.2480 N   0  0  0  0  0  0  0  0  0  0  0  0
    8.9012   14.0234   23.1331 C   0  0  0  0  0  0  0  0  0  0  0  0
   10.0710   14.2972   22.1985 C   0  0  0  0  0  0  0  0  0  0  0  0
   11.0373   14.9953   22.8623 F   0  0  0  0  0  0  0  0  0  0  0  0
    9.6506   15.0800   21.1731 F   0  0  0  0  0  0  0  0  0  0  0  0
  1  2  1  0
  2  3  1  0
  3  4  2  0
  3  5  1  0
  5  6  2  0
  6  7  1  0
  7  8  1  0
  8  9  1  0
  9 10  1  0
  7 11  2  0
 11 12  1  0
 12 13  2  0
 13 14  1  0
 14 15  1  0
 14 16  1  0
 16 17  1  0
 17 18  1  0
 17 19  1  0
 13  5  1  0
 10  8  1  0
M  END
>  <distance_score>  (121) 
1.356384

>  <smiles>  (121) 
COC(=O)c1cc(C2CC2)ncc1N(N)CC(F)F

>  <fragmenstein_error>  (121) 
nan

>  <fragmenstein_runtime>  (121) 
nan

>  <gnina_score_min>  (121) 
4.642

>  <orig_smiles>  (121) 
nan

>  <fragmenstein_mode>  (121) 
nan

>  <rmsd(smina/fragmenstein)>  (121) 
1.004

>  <inspiration_score>  (121) 
None

>  <name>  (121) 
P498182

>  <ref_pdb>  (121) 
A0514a

>  <ref_mols>  (121) 
A4331a,A0514a

>  <subsites>  (121) 
None

>  <tags>  (121) 
openbind_a71ev2a_c1_elabs_filtered,openbind_a71ev2a_c1_elab_chemspace_filtered_scored

>  <inchikey>  (121) 
ZOVOQBKIJAECHS-UHFFFAOYSA-N

>  <scratch_subdir>  (121) 
nan

>  <smina_score_min>  (121) 
-5.713

>  <energy_score>  (121) 
-38.931392

>  <Energy>  (121) 
nan

>  <fragmenstein_outcome>  (121) 
nan

>  <alias>  (121) 
None

>  <HIPPO Pose ID>  (121) 
498182

>  <exports>  (121) 
['/opt/xchem-fragalysis-2/maxwin/openbind-hippo/a71ev2a/cycle_01/bulkdock/openbind_a71ev2a_c1_elab_chemspace.sdf', '/opt/xchem-fragalysis-2/maxwin/openbind-hippo/a71ev2a/cycle_01/syndirella/elabs/openbind_a71ev2a_c1_elab_chemspace_filtered.sdf']

>  <HIPPO Compound ID>  (121) 
292542

>  <gnina_score>  (121) 
4.789

$$$$
P498188
     RDKit          3D

 19 20  0  0  0  0  0  0  0  0999 V2000
   11.0325   15.1977   20.3011 C   0  0  0  0  0  0  0  0  0  0  0  0
   10.0129   14.8128   21.2653 C   0  0  0  0  0  0  0  0  0  0  0  0
    9.2174   14.4955   22.1027 C   0  0  0  0  0  0  0  0  0  0  0  0
    8.3181   14.1384   23.1942 C   0  0  0  0  0  0  0  0  0  0  0  0
    8.8163   12.9364   23.9088 N   0  0  0  0  0  0  0  0  0  0  0  0
   10.1891   12.8694   24.3087 N   0  0  0  0  0  0  0  0  0  0  0  0
    7.9175   12.4783   24.8900 C   0  0  0  0  0  0  0  0  0  0  0  0
    7.3101   13.3748   25.7642 C   0  0  0  0  0  0  0  0  0  0  0  0
    6.3821   13.0625   26.6810 N   0  0  0  0  0  0  0  0  0  0  0  0
    5.9637   11.7878   26.7659 C   0  0  0  0  0  0  0  0  0  0  0  0
    4.8897   11.4802   27.7634 C   0  0  0  0  0  0  0  0  0  0  0  0
    3.5949   12.2549   27.7016 C   0  0  0  0  0  0  0  0  0  0  0  0
    4.5553   12.5103   28.8228 C   0  0  0  0  0  0  0  0  0  0  0  0
    6.5361   10.8102   25.9774 C   0  0  0  0  0  0  0  0  0  0  0  0
    7.5518   11.1423   25.0635 C   0  0  0  0  0  0  0  0  0  0  0  0
    8.1407    9.9704   24.3869 C   0  0  0  0  0  0  0  0  0  0  0  0
    7.7504    8.8525   24.6910 O   0  0  0  0  0  0  0  0  0  0  0  0
    9.1163   10.2317   23.4977 O   0  0  0  0  0  0  0  0  0  0  0  0
    9.6685    9.0497   22.9151 C   0  0  0  0  0  0  0  0  0  0  0  0
  1  2  1  0
  2  3  3  0
  3  4  1  0
  4  5  1  0
  5  6  1  0
  5  7  1  0
  7  8  2  0
  8  9  1  0
  9 10  2  0
 10 11  1  0
 11 12  1  0
 12 13  1  0
 10 14  1  0
 14 15  2  0
 15 16  1  0
 16 17  2  0
 16 18  1  0
 18 19  1  0
 15  7  1  0
 13 11  1  0
M  END
>  <distance_score>  (122) 
1.357933

>  <smiles>  (122) 
CC#CCN(N)c1cnc(C2CC2)cc1C(=O)OC

>  <fragmenstein_error>  (122) 
nan

>  <fragmenstein_runtime>  (122) 
nan

>  <gnina_score_min>  (122) 
4.997

>  <orig_smiles>  (122) 
nan

>  <fragmenstein_mode>  (122) 
nan

>  <rmsd(smina/fragmenstein)>  (122) 
1.156

>  <inspiration_score>  (122) 
None

>  <name>  (122) 
P498188

>  <ref_pdb>  (122) 
A0514a

>  <ref_mols>  (122) 
A4331a,A0514a

>  <subsites>  (122) 
None

>  <tags>  (122) 
openbind_a71ev2a_c1_elabs_filtered,openbind_a71ev2a_c1_elab_chemspace_filtered_scored

>  <inchikey>  (122) 
GMDZUUKOTDMXCW-UHFFFAOYSA-N

>  <scratch_subdir>  (122) 
nan

>  <smina_score_min>  (122) 
-5.772

>  <energy_score>  (122) 
-28.009583

>  <Energy>  (122) 
nan

>  <fragmenstein_outcome>  (122) 
nan

>  <alias>  (122) 
None

>  <HIPPO Pose ID>  (122) 
498188

>  <exports>  (122) 
['/opt/xchem-fragalysis-2/maxwin/openbind-hippo/a71ev2a/cycle_01/bulkdock/openbind_a71ev2a_c1_elab_chemspace.sdf', '/opt/xchem-fragalysis-2/maxwin/openbind-hippo/a71ev2a/cycle_01/syndirella/elabs/openbind_a71ev2a_c1_elab_chemspace_filtered.sdf']

>  <HIPPO Compound ID>  (122) 
292548

>  <gnina_score>  (122) 
5.068

$$$$
P498189
     RDKit          3D

 19 20  0  0  0  0  0  0  0  0999 V2000
   10.8206   15.3488   20.2261 C   0  0  0  0  0  0  0  0  0  0  0  0
    9.6209   15.1129   21.1160 C   0  0  0  0  0  0  0  0  0  0  0  0
   10.0272   14.2222   22.2756 C   0  0  0  0  0  0  0  0  0  0  0  0
    8.8375   13.8851   23.1536 C   0  0  0  0  0  0  0  0  0  0  0  0
    9.2381   12.9470   24.2304 N   0  0  0  0  0  0  0  0  0  0  0  0
   10.3913   13.2702   24.9998 N   0  0  0  0  0  0  0  0  0  0  0  0
    8.1102   12.6068   25.0077 C   0  0  0  0  0  0  0  0  0  0  0  0
    7.4567   13.5904   25.7445 C   0  0  0  0  0  0  0  0  0  0  0  0
    6.3703   13.3968   26.5030 N   0  0  0  0  0  0  0  0  0  0  0  0
    5.8518   12.1580   26.5645 C   0  0  0  0  0  0  0  0  0  0  0  0
    4.6430   12.0007   27.4215 C   0  0  0  0  0  0  0  0  0  0  0  0
    4.6946   11.1984   28.6897 C   0  0  0  0  0  0  0  0  0  0  0  0
    4.6386   12.6953   28.7658 C   0  0  0  0  0  0  0  0  0  0  0  0
    6.4336   11.1009   25.8879 C   0  0  0  0  0  0  0  0  0  0  0  0
    7.5760   11.3197   25.1024 C   0  0  0  0  0  0  0  0  0  0  0  0
    8.1179   10.0982   24.4731 C   0  0  0  0  0  0  0  0  0  0  0  0
    7.6807    9.0042   24.8035 O   0  0  0  0  0  0  0  0  0  0  0  0
    9.0698   10.3117   23.5452 O   0  0  0  0  0  0  0  0  0  0  0  0
    9.6084    9.1066   22.9974 C   0  0  0  0  0  0  0  0  0  0  0  0
  1  2  1  0
  2  3  1  0
  3  4  1  0
  4  5  1  0
  5  6  1  0
  5  7  1  0
  7  8  2  0
  8  9  1  0
  9 10  2  0
 10 11  1  0
 11 12  1  0
 12 13  1  0
 10 14  1  0
 14 15  2  0
 15 16  1  0
 16 17  2  0
 16 18  1  0
 18 19  1  0
 15  7  1  0
 13 11  1  0
M  END
>  <distance_score>  (123) 
1.782796

>  <smiles>  (123) 
CCCCN(N)c1cnc(C2CC2)cc1C(=O)OC

>  <fragmenstein_error>  (123) 
nan

>  <fragmenstein_runtime>  (123) 
nan

>  <gnina_score_min>  (123) 
5.123

>  <orig_smiles>  (123) 
nan

>  <fragmenstein_mode>  (123) 
nan

>  <rmsd(smina/fragmenstein)>  (123) 
1.191

>  <inspiration_score>  (123) 
None

>  <name>  (123) 
P498189

>  <ref_pdb>  (123) 
A0514a

>  <ref_mols>  (123) 
A4331a,A0514a

>  <subsites>  (123) 
None

>  <tags>  (123) 
openbind_a71ev2a_c1_elabs_filtered,openbind_a71ev2a_c1_elab_chemspace_filtered_scored

>  <inchikey>  (123) 
ABEXHQKTXABXEF-UHFFFAOYSA-N

>  <scratch_subdir>  (123) 
nan

>  <smina_score_min>  (123) 
-5.703

>  <energy_score>  (123) 
-34.7238

>  <Energy>  (123) 
nan

>  <fragmenstein_outcome>  (123) 
nan

>  <alias>  (123) 
None

>  <HIPPO Pose ID>  (123) 
498189

>  <exports>  (123) 
['/opt/xchem-fragalysis-2/maxwin/openbind-hippo/a71ev2a/cycle_01/bulkdock/openbind_a71ev2a_c1_elab_chemspace.sdf', '/opt/xchem-fragalysis-2/maxwin/openbind-hippo/a71ev2a/cycle_01/syndirella/elabs/openbind_a71ev2a_c1_elab_chemspace_filtered.sdf']

>  <HIPPO Compound ID>  (123) 
292550

>  <gnina_score>  (123) 
5.01

$$$$
P498200
     RDKit          3D

 19 20  0  0  0  0  0  0  0  0999 V2000
   10.5126   15.5776   20.3155 C   0  0  0  0  0  0  0  0  0  0  0  0
    9.4338   15.0829   21.0987 O   0  0  0  0  0  0  0  0  0  0  0  0
    9.9468   14.3206   22.1798 C   0  0  0  0  0  0  0  0  0  0  0  0
    8.7929   13.8319   23.0364 C   0  0  0  0  0  0  0  0  0  0  0  0
    9.2605   13.0810   24.2223 N   0  0  0  0  0  0  0  0  0  0  0  0
   10.4384   12.3282   24.1694 N   0  0  0  0  0  0  0  0  0  0  0  0
    8.1621   12.5586   24.9403 C   0  0  0  0  0  0  0  0  0  0  0  0
    7.4398   13.4866   25.6914 C   0  0  0  0  0  0  0  0  0  0  0  0
    6.4106   13.2101   26.5069 N   0  0  0  0  0  0  0  0  0  0  0  0
    5.9888   11.9372   26.5978 C   0  0  0  0  0  0  0  0  0  0  0  0
    4.8671   11.6425   27.5483 C   0  0  0  0  0  0  0  0  0  0  0  0
    3.6136   12.4814   27.4924 C   0  0  0  0  0  0  0  0  0  0  0  0
    4.5587   12.6421   28.6439 C   0  0  0  0  0  0  0  0  0  0  0  0
    6.6043   10.9437   25.8618 C   0  0  0  0  0  0  0  0  0  0  0  0
    7.7085   11.2376   25.0352 C   0  0  0  0  0  0  0  0  0  0  0  0
    8.2407   10.0249   24.3750 C   0  0  0  0  0  0  0  0  0  0  0  0
    7.8814    8.9208   24.7625 O   0  0  0  0  0  0  0  0  0  0  0  0
    9.0783   10.2337   23.3405 O   0  0  0  0  0  0  0  0  0  0  0  0
    9.6172    9.0105   22.8305 C   0  0  0  0  0  0  0  0  0  0  0  0
  1  2  1  0
  2  3  1  0
  3  4  1  0
  4  5  1  0
  5  6  1  0
  5  7  1  0
  7  8  2  0
  8  9  1  0
  9 10  2  0
 10 11  1  0
 11 12  1  0
 12 13  1  0
 10 14  1  0
 14 15  2  0
 15 16  1  0
 16 17  2  0
 16 18  1  0
 18 19  1  0
 15  7  1  0
 13 11  1  0
M  END
>  <distance_score>  (124) 
1.384638

>  <smiles>  (124) 
COCCN(N)c1cnc(C2CC2)cc1C(=O)OC

>  <fragmenstein_error>  (124) 
nan

>  <fragmenstein_runtime>  (124) 
nan

>  <gnina_score_min>  (124) 
4.716

>  <orig_smiles>  (124) 
nan

>  <fragmenstein_mode>  (124) 
nan

>  <rmsd(smina/fragmenstein)>  (124) 
0.914

>  <inspiration_score>  (124) 
None

>  <name>  (124) 
P498200

>  <ref_pdb>  (124) 
A0514a

>  <ref_mols>  (124) 
A4331a,A0514a

>  <subsites>  (124) 
None

>  <tags>  (124) 
openbind_a71ev2a_c1_elabs_filtered,openbind_a71ev2a_c1_elab_chemspace_filtered_scored

>  <inchikey>  (124) 
MQBRRQAUSXUPRV-UHFFFAOYSA-N

>  <scratch_subdir>  (124) 
nan

>  <smina_score_min>  (124) 
-5.431

>  <energy_score>  (124) 
-42.023756

>  <Energy>  (124) 
nan

>  <fragmenstein_outcome>  (124) 
nan

>  <alias>  (124) 
None

>  <HIPPO Pose ID>  (124) 
498200

>  <exports>  (124) 
['/opt/xchem-fragalysis-2/maxwin/openbind-hippo/a71ev2a/cycle_01/bulkdock/openbind_a71ev2a_c1_elab_chemspace.sdf', '/opt/xchem-fragalysis-2/maxwin/openbind-hippo/a71ev2a/cycle_01/syndirella/elabs/openbind_a71ev2a_c1_elab_chemspace_filtered.sdf']

>  <HIPPO Compound ID>  (124) 
292562

>  <gnina_score>  (124) 
4.851

$$$$
P498204
     RDKit          3D

 19 20  0  0  0  0  0  0  0  0999 V2000
   11.4437   14.6493   22.5914 C   0  0  0  0  0  0  0  0  0  0  0  0
   10.0219   14.4505   22.0850 C   0  0  0  0  0  0  0  0  0  0  0  0
    8.9370   14.1797   23.1477 C   0  0  1  0  0  0  0  0  0  0  0  0
    7.5802   14.3171   22.4405 C   0  0  0  0  0  0  0  0  0  0  0  0
    9.0595   12.8564   23.8187 N   0  0  0  0  0  0  0  0  0  0  0  0
   10.3312   12.3890   24.1956 N   0  0  0  0  0  0  0  0  0  0  0  0
    8.0599   12.5140   24.7518 C   0  0  0  0  0  0  0  0  0  0  0  0
    7.4503   13.4906   25.5383 C   0  0  0  0  0  0  0  0  0  0  0  0
    6.4581   13.2920   26.4195 N   0  0  0  0  0  0  0  0  0  0  0  0
    5.9731   12.0495   26.5605 C   0  0  0  0  0  0  0  0  0  0  0  0
    4.8239   11.8940   27.4986 C   0  0  0  0  0  0  0  0  0  0  0  0
    5.0024   11.2554   28.8450 C   0  0  0  0  0  0  0  0  0  0  0  0
    4.8100   12.7399   28.7543 C   0  0  0  0  0  0  0  0  0  0  0  0
    6.5343   10.9890   25.8753 C   0  0  0  0  0  0  0  0  0  0  0  0
    7.5997   11.2103   24.9812 C   0  0  0  0  0  0  0  0  0  0  0  0
    8.1228    9.9681   24.3708 C   0  0  0  0  0  0  0  0  0  0  0  0
    7.7482    8.8860   24.8006 O   0  0  0  0  0  0  0  0  0  0  0  0
    8.9927   10.1368   23.3599 O   0  0  0  0  0  0  0  0  0  0  0  0
    9.5585    8.9180   22.8838 C   0  0  0  0  0  0  0  0  0  0  0  0
  1  2  1  0
  2  3  1  0
  3  4  1  6
  3  5  1  0
  5  6  1  0
  5  7  1  0
  7  8  2  0
  8  9  1  0
  9 10  2  0
 10 11  1  0
 11 12  1  0
 12 13  1  0
 10 14  1  0
 14 15  2  0
 15 16  1  0
 16 17  2  0
 16 18  1  0
 18 19  1  0
 15  7  1  0
 13 11  1  0
M  END
>  <distance_score>  (125) 
1.524039

>  <smiles>  (125) 
CC[C@@H](C)N(N)c1cnc(C2CC2)cc1C(=O)OC

>  <fragmenstein_error>  (125) 
nan

>  <fragmenstein_runtime>  (125) 
nan

>  <gnina_score_min>  (125) 
5.144

>  <orig_smiles>  (125) 
nan

>  <fragmenstein_mode>  (125) 
nan

>  <rmsd(smina/fragmenstein)>  (125) 
1.35

>  <inspiration_score>  (125) 
None

>  <name>  (125) 
P498204

>  <ref_pdb>  (125) 
A0514a

>  <ref_mols>  (125) 
A4331a,A0514a

>  <subsites>  (125) 
None

>  <tags>  (125) 
openbind_a71ev2a_c1_elabs_filtered,openbind_a71ev2a_c1_elab_chemspace_filtered_scored

>  <inchikey>  (125) 
HFXAEOUZALBIQK-SECBINFHSA-N

>  <scratch_subdir>  (125) 
nan

>  <smina_score_min>  (125) 
-5.559

>  <energy_score>  (125) 
-30.838698

>  <Energy>  (125) 
nan

>  <fragmenstein_outcome>  (125) 
nan

>  <alias>  (125) 
None

>  <HIPPO Pose ID>  (125) 
498204

>  <exports>  (125) 
['/opt/xchem-fragalysis-2/maxwin/openbind-hippo/a71ev2a/cycle_01/bulkdock/openbind_a71ev2a_c1_elab_chemspace.sdf', '/opt/xchem-fragalysis-2/maxwin/openbind-hippo/a71ev2a/cycle_01/syndirella/elabs/openbind_a71ev2a_c1_elab_chemspace_filtered.sdf']

>  <HIPPO Compound ID>  (125) 
292564

>  <gnina_score>  (125) 
5.29

$$$$
P498209
     RDKit          3D

 20 21  0  0  0  0  0  0  0  0999 V2000
    9.3456    8.5915   23.0166 C   0  0  0  0  0  0  0  0  0  0  0  0
    8.4858    9.3705   23.8503 O   0  0  0  0  0  0  0  0  0  0  0  0
    8.9267   10.6363   24.0394 C   0  0  0  0  0  0  0  0  0  0  0  0
    9.9708   11.0768   23.5955 O   0  0  0  0  0  0  0  0  0  0  0  0
    7.9636   11.4203   24.8553 C   0  0  0  0  0  0  0  0  0  0  0  0
    6.9261   10.7589   25.5275 C   0  0  0  0  0  0  0  0  0  0  0  0
    6.0771   11.4907   26.3458 C   0  0  0  0  0  0  0  0  0  0  0  0
    5.0866   10.8448   27.2685 C   0  0  0  0  0  0  0  0  0  0  0  0
    5.1293   11.2121   28.7348 C   0  0  0  0  0  0  0  0  0  0  0  0
    3.9944   11.6971   27.8882 C   0  0  0  0  0  0  0  0  0  0  0  0
    6.1698   12.8349   26.4187 N   0  0  0  0  0  0  0  0  0  0  0  0
    7.1457   13.4572   25.7495 C   0  0  0  0  0  0  0  0  0  0  0  0
    8.1301   12.8063   25.0238 C   0  0  0  0  0  0  0  0  0  0  0  0
    9.2719   13.5185   24.5860 N   0  0  0  0  0  0  0  0  0  0  0  0
    9.8313   14.4529   25.5087 N   0  0  0  0  0  0  0  0  0  0  0  0
    9.1095   13.9844   23.1830 C   0  0  0  0  0  0  0  0  0  0  0  0
   10.4340   14.4897   22.6114 C   0  0  1  0  0  0  0  0  0  0  0  0
   11.5497   13.4776   22.6469 C   0  0  0  0  0  0  0  0  0  0  0  0
   10.2428   15.0267   21.2679 C   0  0  0  0  0  0  0  0  0  0  0  0
   10.1250   15.4754   20.2085 N   0  0  0  0  0  0  0  0  0  0  0  0
  1  2  1  0
  2  3  1  0
  3  4  2  0
  3  5  1  0
  5  6  2  0
  6  7  1  0
  7  8  1  0
  8  9  1  0
  9 10  1  0
  7 11  2  0
 11 12  1  0
 12 13  2  0
 13 14  1  0
 14 15  1  0
 14 16  1  0
 16 17  1  0
 17 18  1  6
 17 19  1  0
 19 20  3  0
 13  5  1  0
 10  8  1  0
M  END
>  <distance_score>  (126) 
1.467933

>  <smiles>  (126) 
COC(=O)c1cc(C2CC2)ncc1N(N)C[C@@H](C)C#N

>  <fragmenstein_error>  (126) 
nan

>  <fragmenstein_runtime>  (126) 
nan

>  <gnina_score_min>  (126) 
5.225

>  <orig_smiles>  (126) 
nan

>  <fragmenstein_mode>  (126) 
nan

>  <rmsd(smina/fragmenstein)>  (126) 
0.495

>  <inspiration_score>  (126) 
None

>  <name>  (126) 
P498209

>  <ref_pdb>  (126) 
A0514a

>  <ref_mols>  (126) 
A4331a,A0514a

>  <subsites>  (126) 
None

>  <tags>  (126) 
openbind_a71ev2a_c1_elabs_filtered,openbind_a71ev2a_c1_elab_chemspace_filtered_scored

>  <inchikey>  (126) 
QRNHIPRWTQBRQB-VIFPVBQESA-N

>  <scratch_subdir>  (126) 
nan

>  <smina_score_min>  (126) 
-5.306

>  <energy_score>  (126) 
-32.078382

>  <Energy>  (126) 
nan

>  <fragmenstein_outcome>  (126) 
nan

>  <alias>  (126) 
None

>  <HIPPO Pose ID>  (126) 
498209

>  <exports>  (126) 
['/opt/xchem-fragalysis-2/maxwin/openbind-hippo/a71ev2a/cycle_01/bulkdock/openbind_a71ev2a_c1_elab_chemspace.sdf', '/opt/xchem-fragalysis-2/maxwin/openbind-hippo/a71ev2a/cycle_01/syndirella/elabs/openbind_a71ev2a_c1_elab_chemspace_filtered.sdf']

>  <HIPPO Compound ID>  (126) 
292570

>  <gnina_score>  (126) 
5.163

$$$$
P498210
     RDKit          3D

 20 21  0  0  0  0  0  0  0  0999 V2000
    9.3464    8.3984   22.9245 C   0  0  0  0  0  0  0  0  0  0  0  0
    8.4909    9.1718   23.7566 O   0  0  0  0  0  0  0  0  0  0  0  0
    8.9813   10.4042   23.9849 C   0  0  0  0  0  0  0  0  0  0  0  0
   10.0724   10.8252   23.6346 O   0  0  0  0  0  0  0  0  0  0  0  0
    7.9763   11.2149   24.6974 C   0  0  0  0  0  0  0  0  0  0  0  0
    7.0415   10.6367   25.5560 C   0  0  0  0  0  0  0  0  0  0  0  0
    6.1631   11.4667   26.2435 C   0  0  0  0  0  0  0  0  0  0  0  0
    5.2927   10.9595   27.3593 C   0  0  0  0  0  0  0  0  0  0  0  0
    4.0937   11.7588   27.8209 C   0  0  0  0  0  0  0  0  0  0  0  0
    5.3294   11.7312   28.6657 C   0  0  0  0  0  0  0  0  0  0  0  0
    6.1241   12.7998   26.0057 N   0  0  0  0  0  0  0  0  0  0  0  0
    6.9715   13.3278   25.1065 C   0  0  0  0  0  0  0  0  0  0  0  0
    7.9841   12.5985   24.5028 C   0  0  0  0  0  0  0  0  0  0  0  0
    8.8661   13.1853   23.5240 N   0  0  0  0  0  0  0  0  0  0  0  0
    9.6742   13.5026   24.8425 N   0  0  0  0  0  0  0  0  0  0  0  0
    8.7028   14.4280   22.6634 C   0  0  0  0  0  0  0  0  0  0  0  0
    7.8540   15.2401   22.6552 O   0  0  0  0  0  0  0  0  0  0  0  0
    9.9919   14.4384   21.8492 C   0  0  0  0  0  0  0  0  0  0  0  0
   10.0032   15.7031   20.5878 S   0  0  0  0  0  0  0  0  0  0  0  0
   11.4064   15.0943   19.6446 C   0  0  0  0  0  0  0  0  0  0  0  0
  1  2  1  0
  2  3  1  0
  3  4  2  0
  3  5  1  0
  5  6  2  0
  6  7  1  0
  7  8  1  0
  8  9  1  0
  9 10  1  0
  7 11  2  0
 11 12  1  0
 12 13  2  0
 13 14  1  0
 14 15  1  0
 14 16  1  0
 16 17  2  0
 16 18  1  0
 18 19  1  0
 19 20  1  0
 13  5  1  0
 10  8  1  0
M  END
>  <distance_score>  (127) 
1.794576

>  <smiles>  (127) 
COC(=O)c1cc(C2CC2)ncc1N(N)C(=O)CSC

>  <fragmenstein_error>  (127) 
nan

>  <fragmenstein_runtime>  (127) 
nan

>  <gnina_score_min>  (127) 
4.954

>  <orig_smiles>  (127) 
nan

>  <fragmenstein_mode>  (127) 
nan

>  <rmsd(smina/fragmenstein)>  (127) 
0.361

>  <inspiration_score>  (127) 
None

>  <name>  (127) 
P498210

>  <ref_pdb>  (127) 
A0514a

>  <ref_mols>  (127) 
A4331a,A0514a

>  <subsites>  (127) 
None

>  <tags>  (127) 
openbind_a71ev2a_c1_elabs_filtered,openbind_a71ev2a_c1_elab_chemspace_filtered_scored

>  <inchikey>  (127) 
KNQZZWYJTIWVCH-UHFFFAOYSA-N

>  <scratch_subdir>  (127) 
nan

>  <smina_score_min>  (127) 
-5.453

>  <energy_score>  (127) 
-4.604222

>  <Energy>  (127) 
nan

>  <fragmenstein_outcome>  (127) 
nan

>  <alias>  (127) 
None

>  <HIPPO Pose ID>  (127) 
498210

>  <exports>  (127) 
['/opt/xchem-fragalysis-2/maxwin/openbind-hippo/a71ev2a/cycle_01/bulkdock/openbind_a71ev2a_c1_elab_chemspace.sdf', '/opt/xchem-fragalysis-2/maxwin/openbind-hippo/a71ev2a/cycle_01/syndirella/elabs/openbind_a71ev2a_c1_elab_chemspace_filtered.sdf']

>  <HIPPO Compound ID>  (127) 
292571

>  <gnina_score>  (127) 
5.027

$$$$
P498216
     RDKit          3D

 20 21  0  0  0  0  0  0  0  0999 V2000
    9.4452    8.7311   23.0572 C   0  0  0  0  0  0  0  0  0  0  0  0
    8.5169    9.4563   23.8658 O   0  0  0  0  0  0  0  0  0  0  0  0
    8.8756   10.7428   24.0923 C   0  0  0  0  0  0  0  0  0  0  0  0
    9.9067   11.2583   23.7023 O   0  0  0  0  0  0  0  0  0  0  0  0
    7.8204   11.4353   24.8812 C   0  0  0  0  0  0  0  0  0  0  0  0
    6.8697   10.6667   25.5712 C   0  0  0  0  0  0  0  0  0  0  0  0
    5.9356   11.3032   26.3768 C   0  0  0  0  0  0  0  0  0  0  0  0
    5.1096   10.5719   27.3917 C   0  0  0  0  0  0  0  0  0  0  0  0
    3.9357   11.2532   28.0631 C   0  0  0  0  0  0  0  0  0  0  0  0
    5.2112   11.0650   28.8231 C   0  0  0  0  0  0  0  0  0  0  0  0
    5.8273   12.6457   26.3899 N   0  0  0  0  0  0  0  0  0  0  0  0
    6.7266   13.3630   25.7104 C   0  0  0  0  0  0  0  0  0  0  0  0
    7.8095   12.8327   25.0226 C   0  0  0  0  0  0  0  0  0  0  0  0
    8.8616   13.6843   24.6078 N   0  0  0  0  0  0  0  0  0  0  0  0
    9.1594   14.7745   25.4847 N   0  0  0  0  0  0  0  0  0  0  0  0
    8.7689   14.0110   23.1600 C   0  0  0  0  0  0  0  0  0  0  0  0
   10.1742   14.2614   22.5912 C   0  0  0  0  0  0  0  0  0  0  0  0
   10.2215   14.6079   21.1683 N   0  0  0  0  0  0  0  0  0  0  0  0
   11.6230   14.6924   20.7440 C   0  0  0  0  0  0  0  0  0  0  0  0
    9.5666   15.8550   20.8095 C   0  0  0  0  0  0  0  0  0  0  0  0
  1  2  1  0
  2  3  1  0
  3  4  2  0
  3  5  1  0
  5  6  2  0
  6  7  1  0
  7  8  1  0
  8  9  1  0
  9 10  1  0
  7 11  2  0
 11 12  1  0
 12 13  2  0
 13 14  1  0
 14 15  1  0
 14 16  1  0
 16 17  1  0
 17 18  1  0
 18 19  1  0
 18 20  1  0
 13  5  1  0
 10  8  1  0
M  END
>  <distance_score>  (128) 
1.596353

>  <smiles>  (128) 
COC(=O)c1cc(C2CC2)ncc1N(N)CCN(C)C

>  <fragmenstein_error>  (128) 
nan

>  <fragmenstein_runtime>  (128) 
nan

>  <gnina_score_min>  (128) 
5.08

>  <orig_smiles>  (128) 
nan

>  <fragmenstein_mode>  (128) 
nan

>  <rmsd(smina/fragmenstein)>  (128) 
0.457

>  <inspiration_score>  (128) 
None

>  <name>  (128) 
P498216

>  <ref_pdb>  (128) 
A0514a

>  <ref_mols>  (128) 
A4331a,A0514a

>  <subsites>  (128) 
None

>  <tags>  (128) 
openbind_a71ev2a_c1_elabs_filtered,openbind_a71ev2a_c1_elab_chemspace_filtered_scored

>  <inchikey>  (128) 
PNMQNNHGJQVTLV-UHFFFAOYSA-N

>  <scratch_subdir>  (128) 
nan

>  <smina_score_min>  (128) 
-5.438

>  <energy_score>  (128) 
-26.676831

>  <Energy>  (128) 
nan

>  <fragmenstein_outcome>  (128) 
nan

>  <alias>  (128) 
None

>  <HIPPO Pose ID>  (128) 
498216

>  <exports>  (128) 
['/opt/xchem-fragalysis-2/maxwin/openbind-hippo/a71ev2a/cycle_01/bulkdock/openbind_a71ev2a_c1_elab_chemspace.sdf', '/opt/xchem-fragalysis-2/maxwin/openbind-hippo/a71ev2a/cycle_01/syndirella/elabs/openbind_a71ev2a_c1_elab_chemspace_filtered.sdf']

>  <HIPPO Compound ID>  (128) 
292577

>  <gnina_score>  (128) 
5.076

$$$$
P498225
     RDKit          3D

 20 21  0  0  0  0  0  0  0  0999 V2000
   10.8859   15.2698   20.1009 C   0  0  0  0  0  0  0  0  0  0  0  0
    9.7314   15.1590   21.0811 C   0  0  0  0  0  0  0  0  0  0  0  0
   10.1109   14.2647   22.2571 C   0  0  1  0  0  0  0  0  0  0  0  0
   11.1272   14.8913   23.0714 O   0  0  0  0  0  0  0  0  0  0  0  0
    8.8814   13.9331   23.1241 C   0  0  0  0  0  0  0  0  0  0  0  0
    9.2121   12.8656   24.1073 N   0  0  0  0  0  0  0  0  0  0  0  0
   10.4184   13.0289   24.8559 N   0  0  0  0  0  0  0  0  0  0  0  0
    8.1124   12.4996   24.9040 C   0  0  0  0  0  0  0  0  0  0  0  0
    7.4591   13.4477   25.6827 C   0  0  0  0  0  0  0  0  0  0  0  0
    6.4388   13.1956   26.5195 N   0  0  0  0  0  0  0  0  0  0  0  0
    5.9776   11.9339   26.6170 C   0  0  0  0  0  0  0  0  0  0  0  0
    4.8586   11.6761   27.5812 C   0  0  0  0  0  0  0  0  0  0  0  0
    3.6010   12.5050   27.4857 C   0  0  0  0  0  0  0  0  0  0  0  0
    4.5414   12.7198   28.6323 C   0  0  0  0  0  0  0  0  0  0  0  0
    6.5508   10.9183   25.8780 C   0  0  0  0  0  0  0  0  0  0  0  0
    7.6371   11.1927   25.0308 C   0  0  0  0  0  0  0  0  0  0  0  0
    8.2017    9.9936   24.3850 C   0  0  0  0  0  0  0  0  0  0  0  0
    7.8064    8.8867   24.7227 O   0  0  0  0  0  0  0  0  0  0  0  0
    9.1295   10.2301   23.4388 O   0  0  0  0  0  0  0  0  0  0  0  0
    9.6798    9.0294   22.9000 C   0  0  0  0  0  0  0  0  0  0  0  0
  1  2  1  0
  2  3  1  0
  3  4  1  1
  3  5  1  0
  5  6  1  0
  6  7  1  0
  6  8  1  0
  8  9  2  0
  9 10  1  0
 10 11  2  0
 11 12  1  0
 12 13  1  0
 13 14  1  0
 11 15  1  0
 15 16  2  0
 16 17  1  0
 17 18  2  0
 17 19  1  0
 19 20  1  0
 16  8  1  0
 14 12  1  0
M  END
>  <distance_score>  (129) 
1.357011

>  <smiles>  (129) 
CC[C@@H](O)CN(N)c1cnc(C2CC2)cc1C(=O)OC

>  <fragmenstein_error>  (129) 
nan

>  <fragmenstein_runtime>  (129) 
nan

>  <gnina_score_min>  (129) 
5.035

>  <orig_smiles>  (129) 
nan

>  <fragmenstein_mode>  (129) 
nan

>  <rmsd(smina/fragmenstein)>  (129) 
1.089

>  <inspiration_score>  (129) 
None

>  <name>  (129) 
P498225

>  <ref_pdb>  (129) 
A0514a

>  <ref_mols>  (129) 
A4331a,A0514a

>  <subsites>  (129) 
None

>  <tags>  (129) 
openbind_a71ev2a_c1_elabs_filtered,openbind_a71ev2a_c1_elab_chemspace_filtered_scored

>  <inchikey>  (129) 
AIZOPMSHDDVJDT-SNVBAGLBSA-N

>  <scratch_subdir>  (129) 
nan

>  <smina_score_min>  (129) 
-5.825

>  <energy_score>  (129) 
-31.241178

>  <Energy>  (129) 
nan

>  <fragmenstein_outcome>  (129) 
nan

>  <alias>  (129) 
None

>  <HIPPO Pose ID>  (129) 
498225

>  <exports>  (129) 
['/opt/xchem-fragalysis-2/maxwin/openbind-hippo/a71ev2a/cycle_01/bulkdock/openbind_a71ev2a_c1_elab_chemspace.sdf', '/opt/xchem-fragalysis-2/maxwin/openbind-hippo/a71ev2a/cycle_01/syndirella/elabs/openbind_a71ev2a_c1_elab_chemspace_filtered.sdf']

>  <HIPPO Compound ID>  (129) 
292585

>  <gnina_score>  (129) 
5.026

$$$$
P498227
     RDKit          3D

 20 22  0  0  0  0  0  0  0  0999 V2000
    9.4541    8.3767   23.3711 C   0  0  0  0  0  0  0  0  0  0  0  0
    8.6591    9.1915   24.2338 O   0  0  0  0  0  0  0  0  0  0  0  0
    8.7370   10.4851   23.8601 C   0  0  0  0  0  0  0  0  0  0  0  0
    9.3002   10.8874   22.8567 O   0  0  0  0  0  0  0  0  0  0  0  0
    8.0611   11.3780   24.8196 C   0  0  0  0  0  0  0  0  0  0  0  0
    6.9138   10.9846   25.5123 C   0  0  0  0  0  0  0  0  0  0  0  0
    6.2712   11.9333   26.3024 C   0  0  0  0  0  0  0  0  0  0  0  0
    5.0007   11.6912   27.0443 C   0  0  0  0  0  0  0  0  0  0  0  0
    4.8889   10.6988   28.1616 C   0  0  0  0  0  0  0  0  0  0  0  0
    4.9348   12.1620   28.4834 C   0  0  0  0  0  0  0  0  0  0  0  0
    6.7423   13.1937   26.4305 N   0  0  0  0  0  0  0  0  0  0  0  0
    7.8428   13.5398   25.7548 C   0  0  0  0  0  0  0  0  0  0  0  0
    8.5583   12.6799   24.9437 C   0  0  0  0  0  0  0  0  0  0  0  0
    9.7127   13.0941   24.2665 N   0  0  0  0  0  0  0  0  0  0  0  0
   10.9025   13.1008   25.0397 N   0  0  0  0  0  0  0  0  0  0  0  0
    9.5194   14.2108   23.3448 C   0  0  0  0  0  0  0  0  0  0  0  0
    8.2932   14.1682   22.4593 C   0  0  0  0  0  0  0  0  0  0  0  0
    8.6577   15.0773   21.2967 C   0  0  0  0  0  0  0  0  0  0  0  0
   10.1700   15.1252   21.1982 C   0  0  0  0  0  0  0  0  0  0  0  0
   10.6827   14.3061   22.3637 C   0  0  0  0  0  0  0  0  0  0  0  0
  1  2  1  0
  2  3  1  0
  3  4  2  0
  3  5  1  0
  5  6  2  0
  6  7  1  0
  7  8  1  0
  8  9  1  0
  9 10  1  0
  7 11  2  0
 11 12  1  0
 12 13  2  0
 13 14  1  0
 14 15  1  0
 14 16  1  0
 16 17  1  0
 17 18  1  0
 18 19  1  0
 19 20  1  0
 13  5  1  0
 20 16  1  0
 10  8  1  0
M  END
>  <distance_score>  (130) 
1.570875

>  <smiles>  (130) 
COC(=O)c1cc(C2CC2)ncc1N(N)C1CCCC1

>  <fragmenstein_error>  (130) 
nan

>  <fragmenstein_runtime>  (130) 
nan

>  <gnina_score_min>  (130) 
5.306

>  <orig_smiles>  (130) 
nan

>  <fragmenstein_mode>  (130) 
nan

>  <rmsd(smina/fragmenstein)>  (130) 
1.152

>  <inspiration_score>  (130) 
None

>  <name>  (130) 
P498227

>  <ref_pdb>  (130) 
A0514a

>  <ref_mols>  (130) 
A4331a,A0514a

>  <subsites>  (130) 
None

>  <tags>  (130) 
openbind_a71ev2a_c1_elabs_filtered,openbind_a71ev2a_c1_elab_chemspace_filtered_scored

>  <inchikey>  (130) 
UBFYULYRQUHUBZ-UHFFFAOYSA-N

>  <scratch_subdir>  (130) 
nan

>  <smina_score_min>  (130) 
-6.218

>  <energy_score>  (130) 
-57.391228

>  <Energy>  (130) 
nan

>  <fragmenstein_outcome>  (130) 
nan

>  <alias>  (130) 
None

>  <HIPPO Pose ID>  (130) 
498227

>  <exports>  (130) 
['/opt/xchem-fragalysis-2/maxwin/openbind-hippo/a71ev2a/cycle_01/bulkdock/openbind_a71ev2a_c1_elab_chemspace.sdf', '/opt/xchem-fragalysis-2/maxwin/openbind-hippo/a71ev2a/cycle_01/syndirella/elabs/openbind_a71ev2a_c1_elab_chemspace_filtered.sdf']

>  <HIPPO Compound ID>  (130) 
292588

>  <gnina_score>  (130) 
5.323

$$$$
P498228
     RDKit          3D

 20 22  0  0  0  0  0  0  0  0999 V2000
    9.5172    8.5062   23.0228 C   0  0  0  0  0  0  0  0  0  0  0  0
    8.8300    9.4303   23.8595 O   0  0  0  0  0  0  0  0  0  0  0  0
    9.1969   10.7166   23.6793 C   0  0  0  0  0  0  0  0  0  0  0  0
   10.0465   11.1138   22.9056 O   0  0  0  0  0  0  0  0  0  0  0  0
    8.3879   11.6138   24.5264 C   0  0  0  0  0  0  0  0  0  0  0  0
    7.4079   11.0748   25.3798 C   0  0  0  0  0  0  0  0  0  0  0  0
    6.5889   11.9265   26.1070 C   0  0  0  0  0  0  0  0  0  0  0  0
    5.5841   11.4161   27.1070 C   0  0  0  0  0  0  0  0  0  0  0  0
    4.3344   12.2145   27.4045 C   0  0  0  0  0  0  0  0  0  0  0  0
    5.4407   12.1737   28.4126 C   0  0  0  0  0  0  0  0  0  0  0  0
    6.7092   13.2670   25.9739 N   0  0  0  0  0  0  0  0  0  0  0  0
    7.6069   13.7649   25.0987 C   0  0  0  0  0  0  0  0  0  0  0  0
    8.5121   12.9982   24.3906 C   0  0  0  0  0  0  0  0  0  0  0  0
    9.3713   13.6311   23.4781 N   0  0  0  0  0  0  0  0  0  0  0  0
    8.7850   14.4013   22.5115 N   0  0  0  0  0  0  0  0  0  0  0  0
    9.7688   14.9307   21.8482 C   0  0  0  0  0  0  0  0  0  0  0  0
    9.5946   15.9168   20.7651 C   0  0  0  0  0  0  0  0  0  0  0  0
   11.1244   14.5023   22.2861 C   0  0  0  0  0  0  0  0  0  0  0  0
   10.7725   13.7552   23.5231 C   0  0  0  0  0  0  0  0  0  0  0  0
   11.5789   13.4407   24.3797 O   0  0  0  0  0  0  0  0  0  0  0  0
  1  2  1  0
  2  3  1  0
  3  4  2  0
  3  5  1  0
  5  6  2  0
  6  7  1  0
  7  8  1  0
  8  9  1  0
  9 10  1  0
  7 11  2  0
 11 12  1  0
 12 13  2  0
 13 14  1  0
 14 15  1  0
 15 16  2  0
 16 17  1  0
 16 18  1  0
 18 19  1  0
 19 20  2  0
 13  5  1  0
 19 14  1  0
 10  8  1  0
M  END
>  <distance_score>  (131) 
1.810613

>  <smiles>  (131) 
COC(=O)c1cc(C2CC2)ncc1N1N=C(C)CC1=O

>  <fragmenstein_error>  (131) 
nan

>  <fragmenstein_runtime>  (131) 
nan

>  <gnina_score_min>  (131) 
5.117

>  <orig_smiles>  (131) 
nan

>  <fragmenstein_mode>  (131) 
nan

>  <rmsd(smina/fragmenstein)>  (131) 
0.702

>  <inspiration_score>  (131) 
None

>  <name>  (131) 
P498228

>  <ref_pdb>  (131) 
A0514a

>  <ref_mols>  (131) 
A4331a,A0514a

>  <subsites>  (131) 
None

>  <tags>  (131) 
openbind_a71ev2a_c1_elabs_filtered,openbind_a71ev2a_c1_elab_chemspace_filtered_scored

>  <inchikey>  (131) 
NTQDXWFMSJCNQL-UHFFFAOYSA-N

>  <scratch_subdir>  (131) 
nan

>  <smina_score_min>  (131) 
-6.355

>  <energy_score>  (131) 
-31.178193

>  <Energy>  (131) 
nan

>  <fragmenstein_outcome>  (131) 
nan

>  <alias>  (131) 
None

>  <HIPPO Pose ID>  (131) 
498228

>  <exports>  (131) 
['/opt/xchem-fragalysis-2/maxwin/openbind-hippo/a71ev2a/cycle_01/bulkdock/openbind_a71ev2a_c1_elab_chemspace.sdf', '/opt/xchem-fragalysis-2/maxwin/openbind-hippo/a71ev2a/cycle_01/syndirella/elabs/openbind_a71ev2a_c1_elab_chemspace_filtered.sdf']

>  <HIPPO Compound ID>  (131) 
292589

>  <gnina_score>  (131) 
5.004

$$$$
P498229
     RDKit          3D

 20 22  0  0  0  0  0  0  0  0999 V2000
    9.4878    8.3750   23.3939 C   0  0  0  0  0  0  0  0  0  0  0  0
    8.6659    9.1769   24.2427 O   0  0  0  0  0  0  0  0  0  0  0  0
    8.7271   10.4678   23.8548 C   0  0  0  0  0  0  0  0  0  0  0  0
    9.2842   10.8643   22.8454 O   0  0  0  0  0  0  0  0  0  0  0  0
    8.0535   11.3644   24.8114 C   0  0  0  0  0  0  0  0  0  0  0  0
    6.9100   10.9738   25.5116 C   0  0  0  0  0  0  0  0  0  0  0  0
    6.2750   11.9241   26.3055 C   0  0  0  0  0  0  0  0  0  0  0  0
    5.0038   11.6885   27.0484 C   0  0  0  0  0  0  0  0  0  0  0  0
    4.8887   10.7025   28.1711 C   0  0  0  0  0  0  0  0  0  0  0  0
    4.9381   12.1672   28.4849 C   0  0  0  0  0  0  0  0  0  0  0  0
    6.7545   13.1808   26.4350 N   0  0  0  0  0  0  0  0  0  0  0  0
    7.8480   13.5266   25.7482 C   0  0  0  0  0  0  0  0  0  0  0  0
    8.5517   12.6666   24.9269 C   0  0  0  0  0  0  0  0  0  0  0  0
    9.6930   13.0815   24.2265 N   0  0  0  0  0  0  0  0  0  0  0  0
   10.8973   13.0834   24.9781 N   0  0  0  0  0  0  0  0  0  0  0  0
    9.4743   14.2072   23.3193 C   0  0  2  0  0  0  0  0  0  0  0  0
    8.2305   14.1953   22.4742 C   0  0  0  0  0  0  0  0  0  0  0  0
    8.6239   15.0999   21.3264 C   0  0  0  0  0  0  0  0  0  0  0  0
   10.0387   15.0765   21.1936 O   0  0  0  0  0  0  0  0  0  0  0  0
   10.5721   14.3226   22.2752 C   0  0  0  0  0  0  0  0  0  0  0  0
  1  2  1  0
  2  3  1  0
  3  4  2  0
  3  5  1  0
  5  6  2  0
  6  7  1  0
  7  8  1  0
  8  9  1  0
  9 10  1  0
  7 11  2  0
 11 12  1  0
 12 13  2  0
 13 14  1  0
 14 15  1  0
 16 14  1  6
 16 17  1  0
 17 18  1  0
 18 19  1  0
 19 20  1  0
 13  5  1  0
 20 16  1  0
 10  8  1  0
M  END
>  <distance_score>  (132) 
1.759962

>  <smiles>  (132) 
COC(=O)c1cc(C2CC2)ncc1N(N)[C@@H]1CCOC1

>  <fragmenstein_error>  (132) 
nan

>  <fragmenstein_runtime>  (132) 
nan

>  <gnina_score_min>  (132) 
5.183

>  <orig_smiles>  (132) 
nan

>  <fragmenstein_mode>  (132) 
nan

>  <rmsd(smina/fragmenstein)>  (132) 
1.182

>  <inspiration_score>  (132) 
None

>  <name>  (132) 
P498229

>  <ref_pdb>  (132) 
A0514a

>  <ref_mols>  (132) 
A4331a,A0514a

>  <subsites>  (132) 
None

>  <tags>  (132) 
openbind_a71ev2a_c1_elabs_filtered,openbind_a71ev2a_c1_elab_chemspace_filtered_scored

>  <inchikey>  (132) 
ADMRHHZQCUPDIX-SNVBAGLBSA-N

>  <scratch_subdir>  (132) 
nan

>  <smina_score_min>  (132) 
-6.015

>  <energy_score>  (132) 
-32.055471

>  <Energy>  (132) 
nan

>  <fragmenstein_outcome>  (132) 
nan

>  <alias>  (132) 
None

>  <HIPPO Pose ID>  (132) 
498229

>  <exports>  (132) 
['/opt/xchem-fragalysis-2/maxwin/openbind-hippo/a71ev2a/cycle_01/bulkdock/openbind_a71ev2a_c1_elab_chemspace.sdf', '/opt/xchem-fragalysis-2/maxwin/openbind-hippo/a71ev2a/cycle_01/syndirella/elabs/openbind_a71ev2a_c1_elab_chemspace_filtered.sdf']

>  <HIPPO Compound ID>  (132) 
292593

>  <gnina_score>  (132) 
5.106

$$$$
P498231
     RDKit          3D

 20 21  0  0  0  0  0  0  0  0999 V2000
   12.2922   15.2978   21.2352 C   0  0  0  0  0  0  0  0  0  0  0  0
   12.0430   14.3478   22.3707 C   0  0  0  0  0  0  0  0  0  0  0  0
   10.8624   14.7020   23.0793 O   0  0  0  0  0  0  0  0  0  0  0  0
    9.6723   14.4515   22.3041 C   0  0  0  0  0  0  0  0  0  0  0  0
    8.5280   14.1586   23.2710 C   0  0  0  0  0  0  0  0  0  0  0  0
    8.7536   12.8736   23.9724 N   0  0  0  0  0  0  0  0  0  0  0  0
   10.0335   12.6230   24.5354 N   0  0  0  0  0  0  0  0  0  0  0  0
    7.7175   12.4307   24.8045 C   0  0  0  0  0  0  0  0  0  0  0  0
    6.9435   13.3317   25.5275 C   0  0  0  0  0  0  0  0  0  0  0  0
    6.0144   13.0046   26.4380 N   0  0  0  0  0  0  0  0  0  0  0  0
    5.7660   11.7033   26.6666 C   0  0  0  0  0  0  0  0  0  0  0  0
    4.7830   11.3727   27.7473 C   0  0  0  0  0  0  0  0  0  0  0  0
    3.5191   12.1880   27.8753 C   0  0  0  0  0  0  0  0  0  0  0  0
    4.6127   12.3562   28.8871 C   0  0  0  0  0  0  0  0  0  0  0  0
    6.4375   10.7257   25.9614 C   0  0  0  0  0  0  0  0  0  0  0  0
    7.4369   11.0817   25.0416 C   0  0  0  0  0  0  0  0  0  0  0  0
    8.1074    9.9242   24.4116 C   0  0  0  0  0  0  0  0  0  0  0  0
    7.8142    8.7970   24.7811 O   0  0  0  0  0  0  0  0  0  0  0  0
    9.0090   10.2017   23.4485 O   0  0  0  0  0  0  0  0  0  0  0  0
    9.6233    9.0284   22.9122 C   0  0  0  0  0  0  0  0  0  0  0  0
  1  2  1  0
  2  3  1  0
  3  4  1  0
  4  5  1  0
  5  6  1  0
  6  7  1  0
  6  8  1  0
  8  9  2  0
  9 10  1  0
 10 11  2  0
 11 12  1  0
 12 13  1  0
 13 14  1  0
 11 15  1  0
 15 16  2  0
 16 17  1  0
 17 18  2  0
 17 19  1  0
 19 20  1  0
 16  8  1  0
 14 12  1  0
M  END
>  <distance_score>  (133) 
1.369543

>  <smiles>  (133) 
CCOCCN(N)c1cnc(C2CC2)cc1C(=O)OC

>  <fragmenstein_error>  (133) 
nan

>  <fragmenstein_runtime>  (133) 
nan

>  <gnina_score_min>  (133) 
4.751

>  <orig_smiles>  (133) 
nan

>  <fragmenstein_mode>  (133) 
nan

>  <rmsd(smina/fragmenstein)>  (133) 
1.052

>  <inspiration_score>  (133) 
None

>  <name>  (133) 
P498231

>  <ref_pdb>  (133) 
A0514a

>  <ref_mols>  (133) 
A4331a,A0514a

>  <subsites>  (133) 
None

>  <tags>  (133) 
openbind_a71ev2a_c1_elabs_filtered,openbind_a71ev2a_c1_elab_chemspace_filtered_scored

>  <inchikey>  (133) 
GDQFIFMSWDFHTC-UHFFFAOYSA-N

>  <scratch_subdir>  (133) 
nan

>  <smina_score_min>  (133) 
-5.457

>  <energy_score>  (133) 
-35.60164

>  <Energy>  (133) 
nan

>  <fragmenstein_outcome>  (133) 
nan

>  <alias>  (133) 
None

>  <HIPPO Pose ID>  (133) 
498231

>  <exports>  (133) 
['/opt/xchem-fragalysis-2/maxwin/openbind-hippo/a71ev2a/cycle_01/bulkdock/openbind_a71ev2a_c1_elab_chemspace.sdf', '/opt/xchem-fragalysis-2/maxwin/openbind-hippo/a71ev2a/cycle_01/syndirella/elabs/openbind_a71ev2a_c1_elab_chemspace_filtered.sdf']

>  <HIPPO Compound ID>  (133) 
292594

>  <gnina_score>  (133) 
5.095

$$$$
P498235
     RDKit          3D

 20 22  0  0  0  0  0  0  0  0999 V2000
    9.3907    8.3916   23.2678 C   0  0  0  0  0  0  0  0  0  0  0  0
    8.6802    9.2967   24.1134 O   0  0  0  0  0  0  0  0  0  0  0  0
    8.8981   10.5864   23.7857 C   0  0  0  0  0  0  0  0  0  0  0  0
    9.5849   10.9646   22.8512 O   0  0  0  0  0  0  0  0  0  0  0  0
    8.2298   11.5116   24.7229 C   0  0  0  0  0  0  0  0  0  0  0  0
    7.0742   11.1087   25.4092 C   0  0  0  0  0  0  0  0  0  0  0  0
    6.4031   12.0423   26.1919 C   0  0  0  0  0  0  0  0  0  0  0  0
    5.1145   11.7774   26.8944 C   0  0  0  0  0  0  0  0  0  0  0  0
    4.9907   10.8204   28.0418 C   0  0  0  0  0  0  0  0  0  0  0  0
    4.9666   12.2944   28.3115 C   0  0  0  0  0  0  0  0  0  0  0  0
    6.8537   13.3073   26.3225 N   0  0  0  0  0  0  0  0  0  0  0  0
    7.9373   13.6777   25.6290 C   0  0  0  0  0  0  0  0  0  0  0  0
    8.6954   12.8288   24.8377 C   0  0  0  0  0  0  0  0  0  0  0  0
    9.8230   13.3874   24.1883 N   0  0  0  0  0  0  0  0  0  0  0  0
   11.0589   12.6921   24.2661 N   0  0  0  0  0  0  0  0  0  0  0  0
    9.6013   14.0280   22.9879 C   0  0  0  0  0  0  0  0  0  0  0  0
    8.4149   14.4160   22.5636 N   0  0  0  0  0  0  0  0  0  0  0  0
    8.5948   15.2175   21.4580 C   0  0  0  0  0  0  0  0  0  0  0  0
    9.7883   15.3582   20.9006 N   0  0  0  0  0  0  0  0  0  0  0  0
   10.8410   14.5141   21.8672 S   0  0  0  0  0  0  0  0  0  0  0  0
  1  2  1  0
  2  3  1  0
  3  4  2  0
  3  5  1  0
  5  6  2  0
  6  7  1  0
  7  8  1  0
  8  9  1  0
  9 10  1  0
  7 11  2  0
 11 12  1  0
 12 13  2  0
 13 14  1  0
 14 15  1  0
 14 16  1  0
 16 17  2  0
 17 18  1  0
 18 19  2  0
 19 20  1  0
 13  5  1  0
 20 16  1  0
 10  8  1  0
M  END
>  <distance_score>  (134) 
1.662258

>  <smiles>  (134) 
COC(=O)c1cc(C2CC2)ncc1N(N)c1ncns1

>  <fragmenstein_error>  (134) 
nan

>  <fragmenstein_runtime>  (134) 
nan

>  <gnina_score_min>  (134) 
5.361

>  <orig_smiles>  (134) 
nan

>  <fragmenstein_mode>  (134) 
nan

>  <rmsd(smina/fragmenstein)>  (134) 
0.98

>  <inspiration_score>  (134) 
None

>  <name>  (134) 
P498235

>  <ref_pdb>  (134) 
A0514a

>  <ref_mols>  (134) 
A4331a,A0514a

>  <subsites>  (134) 
None

>  <tags>  (134) 
openbind_a71ev2a_c1_elabs_filtered,openbind_a71ev2a_c1_elab_chemspace_filtered_scored

>  <inchikey>  (134) 
UFZUHUDDNVHTHH-UHFFFAOYSA-N

>  <scratch_subdir>  (134) 
nan

>  <smina_score_min>  (134) 
-6.082

>  <energy_score>  (134) 
-80.606002

>  <Energy>  (134) 
nan

>  <fragmenstein_outcome>  (134) 
nan

>  <alias>  (134) 
None

>  <HIPPO Pose ID>  (134) 
498235

>  <exports>  (134) 
['/opt/xchem-fragalysis-2/maxwin/openbind-hippo/a71ev2a/cycle_01/bulkdock/openbind_a71ev2a_c1_elab_chemspace.sdf', '/opt/xchem-fragalysis-2/maxwin/openbind-hippo/a71ev2a/cycle_01/syndirella/elabs/openbind_a71ev2a_c1_elab_chemspace_filtered.sdf']

>  <HIPPO Compound ID>  (134) 
292598

>  <gnina_score>  (134) 
5.283

$$$$
P498238
     RDKit          3D

 20 21  0  0  0  0  0  0  0  0999 V2000
   10.5241   15.9476   18.9795 C   0  0  0  0  0  0  0  0  0  0  0  0
   10.7680   15.2542   20.1946 O   0  0  0  0  0  0  0  0  0  0  0  0
    9.6200   15.2075   21.0333 C   0  0  0  0  0  0  0  0  0  0  0  0
   10.0044   14.3260   22.2022 C   0  0  0  0  0  0  0  0  0  0  0  0
    8.8227   13.9528   23.0832 C   0  0  0  0  0  0  0  0  0  0  0  0
    9.2673   13.0338   24.1729 N   0  0  0  0  0  0  0  0  0  0  0  0
   10.3426   13.5405   24.9777 N   0  0  0  0  0  0  0  0  0  0  0  0
    8.1447   12.6251   24.9389 C   0  0  0  0  0  0  0  0  0  0  0  0
    7.4755   13.5564   25.7288 C   0  0  0  0  0  0  0  0  0  0  0  0
    6.4491   13.2833   26.5514 N   0  0  0  0  0  0  0  0  0  0  0  0
    5.9862   12.0205   26.6132 C   0  0  0  0  0  0  0  0  0  0  0  0
    4.8580   11.7359   27.5587 C   0  0  0  0  0  0  0  0  0  0  0  0
    3.5890   12.5451   27.4518 C   0  0  0  0  0  0  0  0  0  0  0  0
    4.5086   12.7639   28.6144 C   0  0  0  0  0  0  0  0  0  0  0  0
    6.5659   11.0245   25.8536 C   0  0  0  0  0  0  0  0  0  0  0  0
    7.6637   11.3137   25.0234 C   0  0  0  0  0  0  0  0  0  0  0  0
    8.2249   10.1101   24.3788 C   0  0  0  0  0  0  0  0  0  0  0  0
    7.8164    9.0038   24.7075 O   0  0  0  0  0  0  0  0  0  0  0  0
    9.1724   10.3452   23.4544 O   0  0  0  0  0  0  0  0  0  0  0  0
    9.6966    9.1376   22.8971 C   0  0  0  0  0  0  0  0  0  0  0  0
  1  2  1  0
  2  3  1  0
  3  4  1  0
  4  5  1  0
  5  6  1  0
  6  7  1  0
  6  8  1  0
  8  9  2  0
  9 10  1  0
 10 11  2  0
 11 12  1  0
 12 13  1  0
 13 14  1  0
 11 15  1  0
 15 16  2  0
 16 17  1  0
 17 18  2  0
 17 19  1  0
 19 20  1  0
 16  8  1  0
 14 12  1  0
M  END
>  <distance_score>  (135) 
1.680436

>  <smiles>  (135) 
COCCCN(N)c1cnc(C2CC2)cc1C(=O)OC

>  <fragmenstein_error>  (135) 
nan

>  <fragmenstein_runtime>  (135) 
nan

>  <gnina_score_min>  (135) 
4.684

>  <orig_smiles>  (135) 
nan

>  <fragmenstein_mode>  (135) 
nan

>  <rmsd(smina/fragmenstein)>  (135) 
0.797

>  <inspiration_score>  (135) 
None

>  <name>  (135) 
P498238

>  <ref_pdb>  (135) 
A0514a

>  <ref_mols>  (135) 
A4331a,A0514a

>  <subsites>  (135) 
None

>  <tags>  (135) 
openbind_a71ev2a_c1_elabs_filtered,openbind_a71ev2a_c1_elab_chemspace_filtered_scored

>  <inchikey>  (135) 
DJJKZOIYRAIUHG-UHFFFAOYSA-N

>  <scratch_subdir>  (135) 
nan

>  <smina_score_min>  (135) 
-5.306

>  <energy_score>  (135) 
-25.19316

>  <Energy>  (135) 
nan

>  <fragmenstein_outcome>  (135) 
nan

>  <alias>  (135) 
None

>  <HIPPO Pose ID>  (135) 
498238

>  <exports>  (135) 
['/opt/xchem-fragalysis-2/maxwin/openbind-hippo/a71ev2a/cycle_01/bulkdock/openbind_a71ev2a_c1_elab_chemspace.sdf', '/opt/xchem-fragalysis-2/maxwin/openbind-hippo/a71ev2a/cycle_01/syndirella/elabs/openbind_a71ev2a_c1_elab_chemspace_filtered.sdf']

>  <HIPPO Compound ID>  (135) 
292603

>  <gnina_score>  (135) 
4.89

$$$$
P498243
     RDKit          3D

 20 22  0  0  0  0  0  0  0  0999 V2000
    9.2758    8.4587   22.9434 C   0  0  0  0  0  0  0  0  0  0  0  0
    8.4348    9.2635   23.7682 O   0  0  0  0  0  0  0  0  0  0  0  0
    8.9420   10.4997   23.9711 C   0  0  0  0  0  0  0  0  0  0  0  0
   10.0181   10.8866   23.5501 O   0  0  0  0  0  0  0  0  0  0  0  0
    8.0114   11.3196   24.7884 C   0  0  0  0  0  0  0  0  0  0  0  0
    6.9847   10.7223   25.5285 C   0  0  0  0  0  0  0  0  0  0  0  0
    6.2042   11.5192   26.3579 C   0  0  0  0  0  0  0  0  0  0  0  0
    5.2032   10.9492   27.3233 C   0  0  0  0  0  0  0  0  0  0  0  0
    4.0063   11.7748   27.7461 C   0  0  0  0  0  0  0  0  0  0  0  0
    5.1365   11.5712   28.7057 C   0  0  0  0  0  0  0  0  0  0  0  0
    6.3853   12.8593   26.4118 N   0  0  0  0  0  0  0  0  0  0  0  0
    7.3526   13.4190   25.6752 C   0  0  0  0  0  0  0  0  0  0  0  0
    8.2197   12.7027   24.8720 C   0  0  0  0  0  0  0  0  0  0  0  0
    9.2680   13.3452   24.1909 N   0  0  0  0  0  0  0  0  0  0  0  0
   10.2388   13.9766   25.0208 N   0  0  0  0  0  0  0  0  0  0  0  0
    8.7753   14.0574   22.9976 C   0  0  0  0  0  0  0  0  0  0  0  0
    9.8628   14.1153   21.9710 C   0  0  1  0  0  0  0  0  0  0  0  0
    9.9889   15.3112   21.0557 C   0  0  0  0  0  0  0  0  0  0  0  0
   11.0456   15.0260   22.0852 C   0  0  2  0  0  0  0  0  0  0  0  0
   12.3837   14.5597   21.7017 C   0  0  0  0  0  0  0  0  0  0  0  0
  1  2  1  0
  2  3  1  0
  3  4  2  0
  3  5  1  0
  5  6  2  0
  6  7  1  0
  7  8  1  0
  8  9  1  0
  9 10  1  0
  7 11  2  0
 11 12  1  0
 12 13  2  0
 13 14  1  0
 14 15  1  0
 14 16  1  0
 17 16  1  1
 17 18  1  0
 18 19  1  0
 19 20  1  6
 13  5  1  0
 19 17  1  0
 10  8  1  0
M  END
>  <distance_score>  (136) 
1.566845

>  <smiles>  (136) 
COC(=O)c1cc(C2CC2)ncc1N(N)C[C@H]1C[C@@H]1C

>  <fragmenstein_error>  (136) 
nan

>  <fragmenstein_runtime>  (136) 
nan

>  <gnina_score_min>  (136) 
5.161

>  <orig_smiles>  (136) 
nan

>  <fragmenstein_mode>  (136) 
nan

>  <rmsd(smina/fragmenstein)>  (136) 
0.512

>  <inspiration_score>  (136) 
None

>  <name>  (136) 
P498243

>  <ref_pdb>  (136) 
A0514a

>  <ref_mols>  (136) 
A4331a,A0514a

>  <subsites>  (136) 
None

>  <tags>  (136) 
openbind_a71ev2a_c1_elabs_filtered,openbind_a71ev2a_c1_elab_chemspace_filtered_scored

>  <inchikey>  (136) 
XIGRWKFJKHDLCG-GXSJLCMTSA-N

>  <scratch_subdir>  (136) 
nan

>  <smina_score_min>  (136) 
-5.754

>  <energy_score>  (136) 
-29.17369

>  <Energy>  (136) 
nan

>  <fragmenstein_outcome>  (136) 
nan

>  <alias>  (136) 
None

>  <HIPPO Pose ID>  (136) 
498243

>  <exports>  (136) 
['/opt/xchem-fragalysis-2/maxwin/openbind-hippo/a71ev2a/cycle_01/bulkdock/openbind_a71ev2a_c1_elab_chemspace.sdf', '/opt/xchem-fragalysis-2/maxwin/openbind-hippo/a71ev2a/cycle_01/syndirella/elabs/openbind_a71ev2a_c1_elab_chemspace_filtered.sdf']

>  <HIPPO Compound ID>  (136) 
292608

>  <gnina_score>  (136) 
5.094

$$$$
P498247
     RDKit          3D

 20 21  0  0  0  0  0  0  0  0999 V2000
    9.6886    8.3384   23.3823 C   0  0  0  0  0  0  0  0  0  0  0  0
    8.7338    9.0492   24.1637 O   0  0  0  0  0  0  0  0  0  0  0  0
    8.7473   10.3553   23.8115 C   0  0  0  0  0  0  0  0  0  0  0  0
    9.4150   10.7967   22.8912 O   0  0  0  0  0  0  0  0  0  0  0  0
    7.9064   11.1744   24.7180 C   0  0  0  0  0  0  0  0  0  0  0  0
    6.9527   10.5772   25.5501 C   0  0  0  0  0  0  0  0  0  0  0  0
    6.2116   11.3797   26.4084 C   0  0  0  0  0  0  0  0  0  0  0  0
    5.2474   10.8254   27.4186 C   0  0  0  0  0  0  0  0  0  0  0  0
    4.0359   11.6382   27.8254 C   0  0  0  0  0  0  0  0  0  0  0  0
    5.1848   11.5030   28.7749 C   0  0  0  0  0  0  0  0  0  0  0  0
    6.3854   12.7192   26.4315 N   0  0  0  0  0  0  0  0  0  0  0  0
    7.2754   13.2743   25.5993 C   0  0  0  0  0  0  0  0  0  0  0  0
    8.0711   12.5669   24.7153 C   0  0  0  0  0  0  0  0  0  0  0  0
    8.9925   13.2141   23.8867 N   0  0  0  0  0  0  0  0  0  0  0  0
   10.3556   13.0233   24.2809 N   0  0  0  0  0  0  0  0  0  0  0  0
    8.5741   14.4538   23.1786 C   0  0  2  0  0  0  0  0  0  0  0  0
    7.2422   14.2991   22.4520 C   0  0  0  0  0  0  0  0  0  0  0  0
    9.6141   14.9032   22.1301 C   0  0  0  0  0  0  0  0  0  0  0  0
    9.7436   13.9821   21.1553 F   0  0  0  0  0  0  0  0  0  0  0  0
   10.8344   15.0285   22.7264 F   0  0  0  0  0  0  0  0  0  0  0  0
  1  2  1  0
  2  3  1  0
  3  4  2  0
  3  5  1  0
  5  6  2  0
  6  7  1  0
  7  8  1  0
  8  9  1  0
  9 10  1  0
  7 11  2  0
 11 12  1  0
 12 13  2  0
 13 14  1  0
 14 15  1  0
 14 16  1  0
 16 17  1  6
 16 18  1  0
 18 19  1  0
 18 20  1  0
 13  5  1  0
 10  8  1  0
M  END
>  <distance_score>  (137) 
1.385627

>  <smiles>  (137) 
COC(=O)c1cc(C2CC2)ncc1N(N)[C@H](C)C(F)F

>  <fragmenstein_error>  (137) 
nan

>  <fragmenstein_runtime>  (137) 
nan

>  <gnina_score_min>  (137) 
4.942

>  <orig_smiles>  (137) 
nan

>  <fragmenstein_mode>  (137) 
nan

>  <rmsd(smina/fragmenstein)>  (137) 
0.775

>  <inspiration_score>  (137) 
None

>  <name>  (137) 
P498247

>  <ref_pdb>  (137) 
A0514a

>  <ref_mols>  (137) 
A4331a,A0514a

>  <subsites>  (137) 
None

>  <tags>  (137) 
openbind_a71ev2a_c1_elabs_filtered,openbind_a71ev2a_c1_elab_chemspace_filtered_scored

>  <inchikey>  (137) 
PTWWFOCTYPQEMY-SSDOTTSWSA-N

>  <scratch_subdir>  (137) 
nan

>  <smina_score_min>  (137) 
-5.62

>  <energy_score>  (137) 
-27.432135

>  <Energy>  (137) 
nan

>  <fragmenstein_outcome>  (137) 
nan

>  <alias>  (137) 
None

>  <HIPPO Pose ID>  (137) 
498247

>  <exports>  (137) 
['/opt/xchem-fragalysis-2/maxwin/openbind-hippo/a71ev2a/cycle_01/bulkdock/openbind_a71ev2a_c1_elab_chemspace.sdf', '/opt/xchem-fragalysis-2/maxwin/openbind-hippo/a71ev2a/cycle_01/syndirella/elabs/openbind_a71ev2a_c1_elab_chemspace_filtered.sdf']

>  <HIPPO Compound ID>  (137) 
292611

>  <gnina_score>  (137) 
5.217

$$$$
P498251
     RDKit          3D

 20 22  0  0  0  0  0  0  0  0999 V2000
    9.2559    8.5371   22.9573 C   0  0  0  0  0  0  0  0  0  0  0  0
    8.5006    9.4882   23.7055 O   0  0  0  0  0  0  0  0  0  0  0  0
    9.1414   10.6691   23.8253 C   0  0  0  0  0  0  0  0  0  0  0  0
   10.2698   10.9122   23.4342 O   0  0  0  0  0  0  0  0  0  0  0  0
    8.3507   11.6608   24.5680 C   0  0  0  0  0  0  0  0  0  0  0  0
    7.2882   11.2730   25.3907 C   0  0  0  0  0  0  0  0  0  0  0  0
    6.6409   12.2538   26.1271 C   0  0  0  0  0  0  0  0  0  0  0  0
    5.3394   12.0137   26.8261 C   0  0  0  0  0  0  0  0  0  0  0  0
    5.2124   11.2359   28.1019 C   0  0  0  0  0  0  0  0  0  0  0  0
    5.0828   12.7293   28.1348 C   0  0  0  0  0  0  0  0  0  0  0  0
    7.1098   13.5258   26.1606 N   0  0  0  0  0  0  0  0  0  0  0  0
    8.0859   13.8902   25.3051 C   0  0  0  0  0  0  0  0  0  0  0  0
    8.7221   13.0085   24.4578 C   0  0  0  0  0  0  0  0  0  0  0  0
    9.3397   13.4866   23.2660 N   0  0  0  0  0  0  0  0  0  0  0  0
    8.4062   13.8402   22.2720 C   0  0  0  0  0  0  0  0  0  0  0  0
    7.3121   13.3236   22.0871 O   0  0  0  0  0  0  0  0  0  0  0  0
    8.9502   14.9829   21.4896 C   0  0  0  0  0  0  0  0  0  0  0  0
   10.4092   14.9198   21.8537 C   0  0  0  0  0  0  0  0  0  0  0  0
   10.4150   14.4219   23.2497 N   0  0  0  0  0  0  0  0  0  0  0  0
   11.7158   13.7808   23.4325 C   0  0  0  0  0  0  0  0  0  0  0  0
  1  2  1  0
  2  3  1  0
  3  4  2  0
  3  5  1  0
  5  6  2  0
  6  7  1  0
  7  8  1  0
  8  9  1  0
  9 10  1  0
  7 11  2  0
 11 12  1  0
 12 13  2  0
 13 14  1  0
 14 15  1  0
 15 16  2  0
 15 17  1  0
 17 18  1  0
 18 19  1  0
 19 20  1  0
 13  5  1  0
 19 14  1  0
 10  8  1  0
M  END
>  <distance_score>  (138) 
1.788884

>  <smiles>  (138) 
COC(=O)c1cc(C2CC2)ncc1N1C(=O)CCN1C

>  <fragmenstein_error>  (138) 
nan

>  <fragmenstein_runtime>  (138) 
nan

>  <gnina_score_min>  (138) 
5.124

>  <orig_smiles>  (138) 
nan

>  <fragmenstein_mode>  (138) 
nan

>  <rmsd(smina/fragmenstein)>  (138) 
0.519

>  <inspiration_score>  (138) 
None

>  <name>  (138) 
P498251

>  <ref_pdb>  (138) 
A0514a

>  <ref_mols>  (138) 
A4331a,A0514a

>  <subsites>  (138) 
None

>  <tags>  (138) 
openbind_a71ev2a_c1_elabs_filtered,openbind_a71ev2a_c1_elab_chemspace_filtered_scored

>  <inchikey>  (138) 
URTOKROWCGLLAM-UHFFFAOYSA-N

>  <scratch_subdir>  (138) 
nan

>  <smina_score_min>  (138) 
-6.028

>  <energy_score>  (138) 
-26.735629

>  <Energy>  (138) 
nan

>  <fragmenstein_outcome>  (138) 
nan

>  <alias>  (138) 
None

>  <HIPPO Pose ID>  (138) 
498251

>  <exports>  (138) 
['/opt/xchem-fragalysis-2/maxwin/openbind-hippo/a71ev2a/cycle_01/bulkdock/openbind_a71ev2a_c1_elab_chemspace.sdf', '/opt/xchem-fragalysis-2/maxwin/openbind-hippo/a71ev2a/cycle_01/syndirella/elabs/openbind_a71ev2a_c1_elab_chemspace_filtered.sdf']

>  <HIPPO Compound ID>  (138) 
292618

>  <gnina_score>  (138) 
5.141

$$$$
P498253
     RDKit          3D

 20 21  0  0  0  0  0  0  0  0999 V2000
    9.0977    8.3400   22.8463 C   0  0  0  0  0  0  0  0  0  0  0  0
    8.1801    9.1476   23.5840 O   0  0  0  0  0  0  0  0  0  0  0  0
    8.7878   10.2476   24.0728 C   0  0  0  0  0  0  0  0  0  0  0  0
    9.9784   10.4529   23.9601 O   0  0  0  0  0  0  0  0  0  0  0  0
    7.8048   11.1340   24.7452 C   0  0  0  0  0  0  0  0  0  0  0  0
    6.8887   10.4538   25.5758 C   0  0  0  0  0  0  0  0  0  0  0  0
    5.9719   11.1619   26.3352 C   0  0  0  0  0  0  0  0  0  0  0  0
    5.1875   10.5573   27.4604 C   0  0  0  0  0  0  0  0  0  0  0  0
    4.0157   11.3012   28.0666 C   0  0  0  0  0  0  0  0  0  0  0  0
    5.3112   11.2363   28.8133 C   0  0  0  0  0  0  0  0  0  0  0  0
    5.8342   12.4814   26.1669 N   0  0  0  0  0  0  0  0  0  0  0  0
    6.6765   13.1027   25.3320 C   0  0  0  0  0  0  0  0  0  0  0  0
    7.7787   12.5388   24.6744 C   0  0  0  0  0  0  0  0  0  0  0  0
    8.6815   13.4433   24.0697 N   0  0  0  0  0  0  0  0  0  0  0  0
    8.7609   14.7208   24.6815 N   0  0  0  0  0  0  0  0  0  0  0  0
    9.8803   12.9619   23.3631 C   0  0  0  0  0  0  0  0  0  0  0  0
   10.7297   13.9805   22.5865 C   0  0  0  0  0  0  0  0  0  0  0  0
   11.6656   14.6929   23.5391 C   0  0  0  0  0  0  0  0  0  0  0  0
    9.9225   14.8554   21.6327 C   0  0  0  0  0  0  0  0  0  0  0  0
   11.7066   13.2816   21.7910 O   0  0  0  0  0  0  0  0  0  0  0  0
  1  2  1  0
  2  3  1  0
  3  4  2  0
  3  5  1  0
  5  6  2  0
  6  7  1  0
  7  8  1  0
  8  9  1  0
  9 10  1  0
  7 11  2  0
 11 12  1  0
 12 13  2  0
 13 14  1  0
 14 15  1  0
 14 16  1  0
 16 17  1  0
 17 18  1  0
 17 19  1  0
 17 20  1  0
 13  5  1  0
 10  8  1  0
M  END
>  <distance_score>  (139) 
1.623524

>  <smiles>  (139) 
COC(=O)c1cc(C2CC2)ncc1N(N)CC(C)(C)O

>  <fragmenstein_error>  (139) 
nan

>  <fragmenstein_runtime>  (139) 
nan

>  <gnina_score_min>  (139) 
4.791

>  <orig_smiles>  (139) 
nan

>  <fragmenstein_mode>  (139) 
nan

>  <rmsd(smina/fragmenstein)>  (139) 
0.704

>  <inspiration_score>  (139) 
None

>  <name>  (139) 
P498253

>  <ref_pdb>  (139) 
A0514a

>  <ref_mols>  (139) 
A4331a,A0514a

>  <subsites>  (139) 
None

>  <tags>  (139) 
openbind_a71ev2a_c1_elabs_filtered,openbind_a71ev2a_c1_elab_chemspace_filtered_scored

>  <inchikey>  (139) 
AAQNWBDHRGPHDR-UHFFFAOYSA-N

>  <scratch_subdir>  (139) 
nan

>  <smina_score_min>  (139) 
-5.605

>  <energy_score>  (139) 
-27.781864

>  <Energy>  (139) 
nan

>  <fragmenstein_outcome>  (139) 
nan

>  <alias>  (139) 
None

>  <HIPPO Pose ID>  (139) 
498253

>  <exports>  (139) 
['/opt/xchem-fragalysis-2/maxwin/openbind-hippo/a71ev2a/cycle_01/bulkdock/openbind_a71ev2a_c1_elab_chemspace.sdf', '/opt/xchem-fragalysis-2/maxwin/openbind-hippo/a71ev2a/cycle_01/syndirella/elabs/openbind_a71ev2a_c1_elab_chemspace_filtered.sdf']

>  <HIPPO Compound ID>  (139) 
292620

>  <gnina_score>  (139) 
4.948

$$$$
P498255
     RDKit          3D

 20 23  0  0  0  0  0  0  0  0999 V2000
    8.8914    8.0818   22.5852 C   0  0  0  0  0  0  0  0  0  0  0  0
    8.0622    8.9136   23.3888 O   0  0  0  0  0  0  0  0  0  0  0  0
    8.8497    9.7330   24.0868 C   0  0  0  0  0  0  0  0  0  0  0  0
   10.0575    9.6114   24.1812 O   0  0  0  0  0  0  0  0  0  0  0  0
    8.0910   10.8567   24.6388 C   0  0  0  0  0  0  0  0  0  0  0  0
    7.0159   10.6160   25.5082 C   0  0  0  0  0  0  0  0  0  0  0  0
    6.3626   11.7063   26.0655 C   0  0  0  0  0  0  0  0  0  0  0  0
    5.1984   11.6405   27.0008 C   0  0  0  0  0  0  0  0  0  0  0  0
    5.1950   10.8967   28.3003 C   0  0  0  0  0  0  0  0  0  0  0  0
    5.3313   12.3891   28.3148 C   0  0  0  0  0  0  0  0  0  0  0  0
    6.7420   12.9616   25.7670 N   0  0  0  0  0  0  0  0  0  0  0  0
    7.7261   13.1528   24.8704 C   0  0  0  0  0  0  0  0  0  0  0  0
    8.4682   12.1534   24.2640 C   0  0  0  0  0  0  0  0  0  0  0  0
    9.4746   12.4210   23.2871 N   0  0  0  0  0  0  0  0  0  0  0  0
   10.7746   11.9676   23.6324 N   0  0  0  0  0  0  0  0  0  0  0  0
    9.5640   13.6015   22.5576 C   0  0  0  0  0  0  0  0  0  0  0  0
    8.5072   14.5293   21.9708 C   0  0  0  0  0  0  0  0  0  0  0  0
    9.8551   15.3287   21.8065 C   0  0  0  0  0  0  0  0  0  0  0  0
   10.5023   13.9922   21.3901 C   0  0  0  0  0  0  0  0  0  0  0  0
   10.1971   14.7809   23.2536 C   0  0  0  0  0  0  0  0  0  0  0  0
  1  2  1  0
  2  3  1  0
  3  4  2  0
  3  5  1  0
  5  6  2  0
  6  7  1  0
  7  8  1  0
  8  9  1  0
  9 10  1  0
  7 11  2  0
 11 12  1  0
 12 13  2  0
 13 14  1  0
 14 15  1  0
 14 16  1  0
 16 17  1  0
 17 18  1  0
 18 19  1  0
 18 20  1  0
 13  5  1  0
 19 16  1  0
 10  8  1  0
 20 16  1  0
M  END
>  <distance_score>  (140) 
1.399567

>  <smiles>  (140) 
COC(=O)c1cc(C2CC2)ncc1N(N)C12CC(C1)C2

>  <fragmenstein_error>  (140) 
nan

>  <fragmenstein_runtime>  (140) 
nan

>  <gnina_score_min>  (140) 
5.016

>  <orig_smiles>  (140) 
nan

>  <fragmenstein_mode>  (140) 
nan

>  <rmsd(smina/fragmenstein)>  (140) 
1.44

>  <inspiration_score>  (140) 
None

>  <name>  (140) 
P498255

>  <ref_pdb>  (140) 
A0514a

>  <ref_mols>  (140) 
A4331a,A0514a

>  <subsites>  (140) 
None

>  <tags>  (140) 
openbind_a71ev2a_c1_elabs_filtered,openbind_a71ev2a_c1_elab_chemspace_filtered_scored

>  <inchikey>  (140) 
BEYDBMVTFDNDNE-AZKDTHOKSA-N

>  <scratch_subdir>  (140) 
nan

>  <smina_score_min>  (140) 
-5.242

>  <energy_score>  (140) 
-24.557354

>  <Energy>  (140) 
nan

>  <fragmenstein_outcome>  (140) 
nan

>  <alias>  (140) 
None

>  <HIPPO Pose ID>  (140) 
498255

>  <exports>  (140) 
['/opt/xchem-fragalysis-2/maxwin/openbind-hippo/a71ev2a/cycle_01/bulkdock/openbind_a71ev2a_c1_elab_chemspace.sdf', '/opt/xchem-fragalysis-2/maxwin/openbind-hippo/a71ev2a/cycle_01/syndirella/elabs/openbind_a71ev2a_c1_elab_chemspace_filtered.sdf']

>  <HIPPO Compound ID>  (140) 
292624

>  <gnina_score>  (140) 
5.536

$$$$
P498256
     RDKit          3D

 20 22  0  0  0  0  0  0  0  0999 V2000
    9.3233    8.6769   23.0364 C   0  0  0  0  0  0  0  0  0  0  0  0
    8.4505    9.4562   23.8600 O   0  0  0  0  0  0  0  0  0  0  0  0
    8.9197   10.7031   24.1076 C   0  0  0  0  0  0  0  0  0  0  0  0
    9.9883   11.1315   23.7104 O   0  0  0  0  0  0  0  0  0  0  0  0
    7.9784   11.4630   24.9733 C   0  0  0  0  0  0  0  0  0  0  0  0
    6.9373   10.7957   25.6311 C   0  0  0  0  0  0  0  0  0  0  0  0
    6.1282   11.5080   26.5066 C   0  0  0  0  0  0  0  0  0  0  0  0
    5.0658   10.8573   27.3414 C   0  0  0  0  0  0  0  0  0  0  0  0
    4.9866   11.2034   28.8105 C   0  0  0  0  0  0  0  0  0  0  0  0
    3.9360   11.7183   27.8764 C   0  0  0  0  0  0  0  0  0  0  0  0
    6.3090   12.8322   26.7069 N   0  0  0  0  0  0  0  0  0  0  0  0
    7.2806   13.4661   26.0410 C   0  0  0  0  0  0  0  0  0  0  0  0
    8.1647   12.8387   25.1843 C   0  0  0  0  0  0  0  0  0  0  0  0
    9.1617   13.6008   24.5381 N   0  0  0  0  0  0  0  0  0  0  0  0
   10.1746   14.1299   25.3585 N   0  0  0  0  0  0  0  0  0  0  0  0
    8.6561   14.4810   23.4548 C   0  0  2  0  0  0  0  0  0  0  0  0
    8.1804   13.7791   22.2367 C   0  0  0  0  0  0  0  0  0  0  0  0
    9.4158   14.6400   22.1395 C   0  0  0  0  0  0  0  0  0  0  0  0
    9.2389   15.7991   21.2025 C   0  0  0  0  0  0  0  0  0  0  0  0
   10.8132   14.0914   22.1078 C   0  0  0  0  0  0  0  0  0  0  0  0
  1  2  1  0
  2  3  1  0
  3  4  2  0
  3  5  1  0
  5  6  2  0
  6  7  1  0
  7  8  1  0
  8  9  1  0
  9 10  1  0
  7 11  2  0
 11 12  1  0
 12 13  2  0
 13 14  1  0
 14 15  1  0
 16 14  1  1
 16 17  1  0
 17 18  1  0
 18 19  1  0
 18 20  1  0
 13  5  1  0
 18 16  1  0
 10  8  1  0
M  END
>  <distance_score>  (141) 
1.642964

>  <smiles>  (141) 
COC(=O)c1cc(C2CC2)ncc1N(N)[C@@H]1CC1(C)C

>  <fragmenstein_error>  (141) 
nan

>  <fragmenstein_runtime>  (141) 
nan

>  <gnina_score_min>  (141) 
5.043

>  <orig_smiles>  (141) 
nan

>  <fragmenstein_mode>  (141) 
nan

>  <rmsd(smina/fragmenstein)>  (141) 
0.569

>  <inspiration_score>  (141) 
None

>  <name>  (141) 
P498256

>  <ref_pdb>  (141) 
A0514a

>  <ref_mols>  (141) 
A4331a,A0514a

>  <subsites>  (141) 
None

>  <tags>  (141) 
openbind_a71ev2a_c1_elabs_filtered,openbind_a71ev2a_c1_elab_chemspace_filtered_scored

>  <inchikey>  (141) 
CGERCOVXFNUMDN-CYBMUJFWSA-N

>  <scratch_subdir>  (141) 
nan

>  <smina_score_min>  (141) 
-5.65

>  <energy_score>  (141) 
-34.245276

>  <Energy>  (141) 
nan

>  <fragmenstein_outcome>  (141) 
nan

>  <alias>  (141) 
None

>  <HIPPO Pose ID>  (141) 
498256

>  <exports>  (141) 
['/opt/xchem-fragalysis-2/maxwin/openbind-hippo/a71ev2a/cycle_01/bulkdock/openbind_a71ev2a_c1_elab_chemspace.sdf', '/opt/xchem-fragalysis-2/maxwin/openbind-hippo/a71ev2a/cycle_01/syndirella/elabs/openbind_a71ev2a_c1_elab_chemspace_filtered.sdf']

>  <HIPPO Compound ID>  (141) 
292625

>  <gnina_score>  (141) 
5.093

$$$$
P498261
     RDKit          3D

 20 21  0  0  0  0  0  0  0  0999 V2000
    9.3497    8.5776   22.9728 C   0  0  0  0  0  0  0  0  0  0  0  0
    8.4533    9.3412   23.7790 O   0  0  0  0  0  0  0  0  0  0  0  0
    8.8546   10.6205   23.9632 C   0  0  0  0  0  0  0  0  0  0  0  0
    9.8893   11.0958   23.5278 O   0  0  0  0  0  0  0  0  0  0  0  0
    7.8881   11.3451   24.8303 C   0  0  0  0  0  0  0  0  0  0  0  0
    6.9300   10.6390   25.5735 C   0  0  0  0  0  0  0  0  0  0  0  0
    6.1559   11.3232   26.5018 C   0  0  0  0  0  0  0  0  0  0  0  0
    5.1842   10.6488   27.4253 C   0  0  0  0  0  0  0  0  0  0  0  0
    3.9718   11.4107   27.9216 C   0  0  0  0  0  0  0  0  0  0  0  0
    5.1136   11.1537   28.8539 C   0  0  0  0  0  0  0  0  0  0  0  0
    6.3219   12.6466   26.7002 N   0  0  0  0  0  0  0  0  0  0  0  0
    7.2142   13.3082   25.9572 C   0  0  0  0  0  0  0  0  0  0  0  0
    8.0055   12.7331   24.9799 C   0  0  0  0  0  0  0  0  0  0  0  0
    8.8932   13.5116   24.2246 N   0  0  0  0  0  0  0  0  0  0  0  0
   10.0613   13.9126   24.9537 N   0  0  0  0  0  0  0  0  0  0  0  0
    8.2986   14.4684   23.2221 C   0  0  0  0  0  0  0  0  0  0  0  0
    7.2142   13.8416   22.3667 C   0  0  0  0  0  0  0  0  0  0  0  0
    7.5309   15.6207   23.9008 C   0  0  0  0  0  0  0  0  0  0  0  0
    9.4329   14.8018   22.1896 C   0  0  0  0  0  0  0  0  0  0  0  0
    8.9913   15.5619   21.0757 O   0  0  0  0  0  0  0  0  0  0  0  0
  1  2  1  0
  2  3  1  0
  3  4  2  0
  3  5  1  0
  5  6  2  0
  6  7  1  0
  7  8  1  0
  8  9  1  0
  9 10  1  0
  7 11  2  0
 11 12  1  0
 12 13  2  0
 13 14  1  0
 14 15  1  0
 14 16  1  0
 16 17  1  0
 16 18  1  0
 16 19  1  0
 19 20  1  0
 13  5  1  0
 10  8  1  0
M  END
>  <distance_score>  (142) 
1.56272

>  <smiles>  (142) 
COC(=O)c1cc(C2CC2)ncc1N(N)C(C)(C)CO

>  <fragmenstein_error>  (142) 
nan

>  <fragmenstein_runtime>  (142) 
nan

>  <gnina_score_min>  (142) 
4.875

>  <orig_smiles>  (142) 
nan

>  <fragmenstein_mode>  (142) 
nan

>  <rmsd(smina/fragmenstein)>  (142) 
0.419

>  <inspiration_score>  (142) 
None

>  <name>  (142) 
P498261

>  <ref_pdb>  (142) 
A0514a

>  <ref_mols>  (142) 
A4331a,A0514a

>  <subsites>  (142) 
None

>  <tags>  (142) 
openbind_a71ev2a_c1_elabs_filtered,openbind_a71ev2a_c1_elab_chemspace_filtered_scored

>  <inchikey>  (142) 
UAKJHRDQYXLPCW-UHFFFAOYSA-N

>  <scratch_subdir>  (142) 
nan

>  <smina_score_min>  (142) 
-5.049

>  <energy_score>  (142) 
-26.064189

>  <Energy>  (142) 
nan

>  <fragmenstein_outcome>  (142) 
nan

>  <alias>  (142) 
None

>  <HIPPO Pose ID>  (142) 
498261

>  <exports>  (142) 
['/opt/xchem-fragalysis-2/maxwin/openbind-hippo/a71ev2a/cycle_01/bulkdock/openbind_a71ev2a_c1_elab_chemspace.sdf', '/opt/xchem-fragalysis-2/maxwin/openbind-hippo/a71ev2a/cycle_01/syndirella/elabs/openbind_a71ev2a_c1_elab_chemspace_filtered.sdf']

>  <HIPPO Compound ID>  (142) 
292628

>  <gnina_score>  (142) 
4.865

$$$$
P498266
     RDKit          3D

 20 21  0  0  0  0  0  0  0  0999 V2000
    9.4211    8.4087   23.1443 C   0  0  0  0  0  0  0  0  0  0  0  0
    8.6437    9.2043   24.0396 O   0  0  0  0  0  0  0  0  0  0  0  0
    8.7380   10.5299   23.8086 C   0  0  0  0  0  0  0  0  0  0  0  0
    9.3958   11.0529   22.9268 O   0  0  0  0  0  0  0  0  0  0  0  0
    7.9217   11.2900   24.7800 C   0  0  0  0  0  0  0  0  0  0  0  0
    6.9090   10.6725   25.5208 C   0  0  0  0  0  0  0  0  0  0  0  0
    6.1896   11.4315   26.4362 C   0  0  0  0  0  0  0  0  0  0  0  0
    5.1202   10.8505   27.3144 C   0  0  0  0  0  0  0  0  0  0  0  0
    5.0630   11.2604   28.7683 C   0  0  0  0  0  0  0  0  0  0  0  0
    4.0230   11.7709   27.8204 C   0  0  0  0  0  0  0  0  0  0  0  0
    6.4534   12.7462   26.6192 N   0  0  0  0  0  0  0  0  0  0  0  0
    7.4042   13.3248   25.8784 C   0  0  0  0  0  0  0  0  0  0  0  0
    8.1790   12.6544   24.9464 C   0  0  0  0  0  0  0  0  0  0  0  0
    9.2145   13.3175   24.2583 N   0  0  0  0  0  0  0  0  0  0  0  0
   10.2492   13.7394   25.1771 N   0  0  0  0  0  0  0  0  0  0  0  0
    8.7363   14.3541   23.2888 C   0  0  2  0  0  0  0  0  0  0  0  0
    7.3716   14.1202   22.6415 C   0  0  0  0  0  0  0  0  0  0  0  0
    9.7267   14.5419   22.1163 C   0  0  0  0  0  0  0  0  0  0  0  0
   11.1108   14.7030   22.5368 C   0  0  0  0  0  0  0  0  0  0  0  0
   12.1760   14.7647   22.9919 N   0  0  0  0  0  0  0  0  0  0  0  0
  1  2  1  0
  2  3  1  0
  3  4  2  0
  3  5  1  0
  5  6  2  0
  6  7  1  0
  7  8  1  0
  8  9  1  0
  9 10  1  0
  7 11  2  0
 11 12  1  0
 12 13  2  0
 13 14  1  0
 14 15  1  0
 14 16  1  0
 16 17  1  6
 16 18  1  0
 18 19  1  0
 19 20  3  0
 13  5  1  0
 10  8  1  0
M  END
>  <distance_score>  (143) 
1.546858

>  <smiles>  (143) 
COC(=O)c1cc(C2CC2)ncc1N(N)[C@H](C)CC#N

>  <fragmenstein_error>  (143) 
nan

>  <fragmenstein_runtime>  (143) 
nan

>  <gnina_score_min>  (143) 
5.193

>  <orig_smiles>  (143) 
nan

>  <fragmenstein_mode>  (143) 
nan

>  <rmsd(smina/fragmenstein)>  (143) 
0.294

>  <inspiration_score>  (143) 
None

>  <name>  (143) 
P498266

>  <ref_pdb>  (143) 
A0514a

>  <ref_mols>  (143) 
A4331a,A0514a

>  <subsites>  (143) 
None

>  <tags>  (143) 
openbind_a71ev2a_c1_elabs_filtered,openbind_a71ev2a_c1_elab_chemspace_filtered_scored

>  <inchikey>  (143) 
SNDMSMHKIFTQKU-SECBINFHSA-N

>  <scratch_subdir>  (143) 
nan

>  <smina_score_min>  (143) 
-5.663

>  <energy_score>  (143) 
-39.222661

>  <Energy>  (143) 
nan

>  <fragmenstein_outcome>  (143) 
nan

>  <alias>  (143) 
None

>  <HIPPO Pose ID>  (143) 
498266

>  <exports>  (143) 
['/opt/xchem-fragalysis-2/maxwin/openbind-hippo/a71ev2a/cycle_01/bulkdock/openbind_a71ev2a_c1_elab_chemspace.sdf', '/opt/xchem-fragalysis-2/maxwin/openbind-hippo/a71ev2a/cycle_01/syndirella/elabs/openbind_a71ev2a_c1_elab_chemspace_filtered.sdf']

>  <HIPPO Compound ID>  (143) 
292633

>  <gnina_score>  (143) 
5.281

$$$$
P498275
     RDKit          3D

 21 23  0  0  0  0  0  0  0  0999 V2000
    9.5537    8.6910   22.9766 C   0  0  0  0  0  0  0  0  0  0  0  0
    8.8141    9.6165   23.7673 O   0  0  0  0  0  0  0  0  0  0  0  0
    9.1937   10.9080   23.6272 C   0  0  0  0  0  0  0  0  0  0  0  0
   10.0893   11.3119   22.9122 O   0  0  0  0  0  0  0  0  0  0  0  0
    8.4096   11.7732   24.5295 C   0  0  0  0  0  0  0  0  0  0  0  0
    7.4458   11.1972   25.3807 C   0  0  0  0  0  0  0  0  0  0  0  0
    6.7432   12.0018   26.2647 C   0  0  0  0  0  0  0  0  0  0  0  0
    5.6735   11.4577   27.1766 C   0  0  0  0  0  0  0  0  0  0  0  0
    4.3925   12.2402   27.3666 C   0  0  0  0  0  0  0  0  0  0  0  0
    5.3940   12.1835   28.4776 C   0  0  0  0  0  0  0  0  0  0  0  0
    7.0277   13.3213   26.3576 N   0  0  0  0  0  0  0  0  0  0  0  0
    7.8919   13.8676   25.4775 C   0  0  0  0  0  0  0  0  0  0  0  0
    8.6227   13.1582   24.5394 C   0  0  0  0  0  0  0  0  0  0  0  0
    9.0570   13.9160   23.4162 N   0  0  0  0  0  0  0  0  0  0  0  0
   10.4059   14.1790   23.2523 N   0  0  0  0  0  0  0  0  0  0  0  0
   10.7778   14.7394   22.1303 C   0  0  0  0  0  0  0  0  0  0  0  0
   12.2298   14.8748   21.7904 C   0  0  0  0  0  0  0  0  0  0  0  0
    9.8618   15.3245   21.1052 C   0  0  0  0  0  0  0  0  0  0  0  0
    8.4226   15.0867   21.3960 C   0  0  0  0  0  0  0  0  0  0  0  0
    8.1587   14.0035   22.3691 C   0  0  0  0  0  0  0  0  0  0  0  0
    7.1495   13.3072   22.2582 O   0  0  0  0  0  0  0  0  0  0  0  0
  1  2  1  0
  2  3  1  0
  3  4  2  0
  3  5  1  0
  5  6  2  0
  6  7  1  0
  7  8  1  0
  8  9  1  0
  9 10  1  0
  7 11  2  0
 11 12  1  0
 12 13  2  0
 13 14  1  0
 14 15  1  0
 15 16  2  0
 16 17  1  0
 16 18  1  0
 18 19  1  0
 19 20  1  0
 20 21  2  0
 13  5  1  0
 20 14  1  0
 10  8  1  0
M  END
>  <distance_score>  (144) 
1.937078

>  <smiles>  (144) 
COC(=O)c1cc(C2CC2)ncc1N1N=C(C)CCC1=O

>  <fragmenstein_error>  (144) 
nan

>  <fragmenstein_runtime>  (144) 
nan

>  <gnina_score_min>  (144) 
5.279

>  <orig_smiles>  (144) 
nan

>  <fragmenstein_mode>  (144) 
nan

>  <rmsd(smina/fragmenstein)>  (144) 
0.465

>  <inspiration_score>  (144) 
None

>  <name>  (144) 
P498275

>  <ref_pdb>  (144) 
A0514a

>  <ref_mols>  (144) 
A4331a,A0514a

>  <subsites>  (144) 
None

>  <tags>  (144) 
openbind_a71ev2a_c1_elabs_filtered,openbind_a71ev2a_c1_elab_chemspace_filtered_scored

>  <inchikey>  (144) 
NQPJKKWAVJLCEM-UHFFFAOYSA-N

>  <scratch_subdir>  (144) 
nan

>  <smina_score_min>  (144) 
-6.232

>  <energy_score>  (144) 
-22.126354

>  <Energy>  (144) 
nan

>  <fragmenstein_outcome>  (144) 
nan

>  <alias>  (144) 
None

>  <HIPPO Pose ID>  (144) 
498275

>  <exports>  (144) 
['/opt/xchem-fragalysis-2/maxwin/openbind-hippo/a71ev2a/cycle_01/bulkdock/openbind_a71ev2a_c1_elab_chemspace.sdf', '/opt/xchem-fragalysis-2/maxwin/openbind-hippo/a71ev2a/cycle_01/syndirella/elabs/openbind_a71ev2a_c1_elab_chemspace_filtered.sdf']

>  <HIPPO Compound ID>  (144) 
292639

>  <gnina_score>  (144) 
5.325

$$$$
P498286
     RDKit          3D

 21 23  0  0  0  0  0  0  0  0999 V2000
    9.6677    8.5649   23.4074 C   0  0  0  0  0  0  0  0  0  0  0  0
    8.6886    9.2514   24.1892 O   0  0  0  0  0  0  0  0  0  0  0  0
    8.7255   10.5831   23.9536 C   0  0  0  0  0  0  0  0  0  0  0  0
    9.4045   11.1183   23.0955 O   0  0  0  0  0  0  0  0  0  0  0  0
    7.8584   11.3215   24.9037 C   0  0  0  0  0  0  0  0  0  0  0  0
    6.8413   10.6642   25.6023 C   0  0  0  0  0  0  0  0  0  0  0  0
    6.0789   11.3880   26.5112 C   0  0  0  0  0  0  0  0  0  0  0  0
    5.0823   10.7477   27.4329 C   0  0  0  0  0  0  0  0  0  0  0  0
    3.8746   11.5350   27.8975 C   0  0  0  0  0  0  0  0  0  0  0  0
    5.0011   11.2836   28.8497 C   0  0  0  0  0  0  0  0  0  0  0  0
    6.2628   12.7176   26.6822 N   0  0  0  0  0  0  0  0  0  0  0  0
    7.2336   13.3325   26.0004 C   0  0  0  0  0  0  0  0  0  0  0  0
    8.0921   12.6870   25.1303 C   0  0  0  0  0  0  0  0  0  0  0  0
    9.1548   13.3923   24.5276 N   0  0  0  0  0  0  0  0  0  0  0  0
    9.9359   14.2159   25.3992 N   0  0  0  0  0  0  0  0  0  0  0  0
    8.6697   14.0008   23.2588 C   0  0  0  0  0  0  0  0  0  0  0  0
    9.7396   14.4235   22.3074 C   0  0  0  0  0  0  0  0  0  0  0  0
    9.5051   15.2723   21.1861 C   0  0  0  0  0  0  0  0  0  0  0  0
   10.6422   15.4861   20.4462 C   0  0  0  0  0  0  0  0  0  0  0  0
   12.0196   14.8082   21.1903 S   0  0  0  0  0  0  0  0  0  0  0  0
   11.0666   14.0451   22.3697 C   0  0  0  0  0  0  0  0  0  0  0  0
  1  2  1  0
  2  3  1  0
  3  4  2  0
  3  5  1  0
  5  6  2  0
  6  7  1  0
  7  8  1  0
  8  9  1  0
  9 10  1  0
  7 11  2  0
 11 12  1  0
 12 13  2  0
 13 14  1  0
 14 15  1  0
 14 16  1  0
 16 17  1  0
 17 18  1  0
 18 19  2  0
 19 20  1  0
 20 21  1  0
 13  5  1  0
 21 17  2  0
 10  8  1  0
M  END
>  <distance_score>  (145) 
1.435738

>  <smiles>  (145) 
COC(=O)c1cc(C2CC2)ncc1N(N)Cc1ccsc1

>  <fragmenstein_error>  (145) 
nan

>  <fragmenstein_runtime>  (145) 
nan

>  <gnina_score_min>  (145) 
5.326

>  <orig_smiles>  (145) 
nan

>  <fragmenstein_mode>  (145) 
nan

>  <rmsd(smina/fragmenstein)>  (145) 
0.489

>  <inspiration_score>  (145) 
None

>  <name>  (145) 
P498286

>  <ref_pdb>  (145) 
A0514a

>  <ref_mols>  (145) 
A4331a,A0514a

>  <subsites>  (145) 
None

>  <tags>  (145) 
openbind_a71ev2a_c1_elabs_filtered,openbind_a71ev2a_c1_elab_chemspace_filtered_scored

>  <inchikey>  (145) 
YERJECICWXAGMM-UHFFFAOYSA-N

>  <scratch_subdir>  (145) 
nan

>  <smina_score_min>  (145) 
-6.451

>  <energy_score>  (145) 
-41.045685

>  <Energy>  (145) 
nan

>  <fragmenstein_outcome>  (145) 
nan

>  <alias>  (145) 
None

>  <HIPPO Pose ID>  (145) 
498286

>  <exports>  (145) 
['/opt/xchem-fragalysis-2/maxwin/openbind-hippo/a71ev2a/cycle_01/bulkdock/openbind_a71ev2a_c1_elab_chemspace.sdf', '/opt/xchem-fragalysis-2/maxwin/openbind-hippo/a71ev2a/cycle_01/syndirella/elabs/openbind_a71ev2a_c1_elab_chemspace_filtered.sdf']

>  <HIPPO Compound ID>  (145) 
292658

>  <gnina_score>  (145) 
5.319

$$$$
P498293
     RDKit          3D

 21 23  0  0  0  0  0  0  0  0999 V2000
    9.5687    9.2375   23.0619 C   0  0  0  0  0  0  0  0  0  0  0  0
    9.1064   10.4825   23.6024 O   0  0  0  0  0  0  0  0  0  0  0  0
    7.9830   10.3813   24.3391 C   0  0  0  0  0  0  0  0  0  0  0  0
    7.3294    9.3707   24.5517 O   0  0  0  0  0  0  0  0  0  0  0  0
    7.6352   11.6494   24.9979 C   0  0  0  0  0  0  0  0  0  0  0  0
    6.8641   11.4943   26.1498 C   0  0  0  0  0  0  0  0  0  0  0  0
    6.5492   12.5874   26.9376 C   0  0  0  0  0  0  0  0  0  0  0  0
    5.6224   12.4388   28.1008 C   0  0  0  0  0  0  0  0  0  0  0  0
    4.1373   12.3585   27.8425 C   0  0  0  0  0  0  0  0  0  0  0  0
    4.7167   13.5918   28.4669 C   0  0  0  0  0  0  0  0  0  0  0  0
    7.0442   13.8036   26.6619 N   0  0  0  0  0  0  0  0  0  0  0  0
    7.6702   13.9526   25.4821 C   0  0  0  0  0  0  0  0  0  0  0  0
    7.9670   12.9325   24.5805 C   0  0  0  0  0  0  0  0  0  0  0  0
    8.3031   13.2773   23.2451 N   0  0  0  0  0  0  0  0  0  0  0  0
    7.2533   14.0607   22.7014 N   0  0  0  0  0  0  0  0  0  0  0  0
    9.5834   13.7978   22.8425 C   0  0  0  0  0  0  0  0  0  0  0  0
   10.7127   13.5720   23.6024 C   0  0  0  0  0  0  0  0  0  0  0  0
   11.8833   14.1115   23.1296 C   0  0  0  0  0  0  0  0  0  0  0  0
   11.9766   14.8425   22.0126 N   0  0  0  0  0  0  0  0  0  0  0  0
   10.8413   14.9811   21.3182 C   0  0  0  0  0  0  0  0  0  0  0  0
    9.6436   14.5015   21.6843 N   0  0  0  0  0  0  0  0  0  0  0  0
  1  2  1  0
  2  3  1  0
  3  4  2  0
  3  5  1  0
  5  6  2  0
  6  7  1  0
  7  8  1  0
  8  9  1  0
  9 10  1  0
  7 11  2  0
 11 12  1  0
 12 13  2  0
 13 14  1  0
 14 15  1  0
 14 16  1  0
 16 17  2  0
 17 18  1  0
 18 19  2  0
 19 20  1  0
 20 21  2  0
 13  5  1  0
 21 16  1  0
 10  8  1  0
M  END
>  <distance_score>  (146) 
1.942439

>  <smiles>  (146) 
COC(=O)c1cc(C2CC2)ncc1N(N)c1ccncn1

>  <fragmenstein_error>  (146) 
nan

>  <fragmenstein_runtime>  (146) 
nan

>  <gnina_score_min>  (146) 
5.306

>  <orig_smiles>  (146) 
nan

>  <fragmenstein_mode>  (146) 
nan

>  <rmsd(smina/fragmenstein)>  (146) 
0.509

>  <inspiration_score>  (146) 
None

>  <name>  (146) 
P498293

>  <ref_pdb>  (146) 
A0514a

>  <ref_mols>  (146) 
A4331a,A0514a

>  <subsites>  (146) 
None

>  <tags>  (146) 
openbind_a71ev2a_c1_elabs_filtered,openbind_a71ev2a_c1_elab_chemspace_filtered_scored

>  <inchikey>  (146) 
QQUGCNHVWRKUFQ-UHFFFAOYSA-N

>  <scratch_subdir>  (146) 
nan

>  <smina_score_min>  (146) 
-7.167

>  <energy_score>  (146) 
-29.47791

>  <Energy>  (146) 
nan

>  <fragmenstein_outcome>  (146) 
nan

>  <alias>  (146) 
None

>  <HIPPO Pose ID>  (146) 
498293

>  <exports>  (146) 
['/opt/xchem-fragalysis-2/maxwin/openbind-hippo/a71ev2a/cycle_01/bulkdock/openbind_a71ev2a_c1_elab_chemspace.sdf', '/opt/xchem-fragalysis-2/maxwin/openbind-hippo/a71ev2a/cycle_01/syndirella/elabs/openbind_a71ev2a_c1_elab_chemspace_filtered.sdf']

>  <HIPPO Compound ID>  (146) 
292665

>  <gnina_score>  (146) 
5.334

$$$$
P498296
     RDKit          3D

 21 23  0  0  0  0  0  0  0  0999 V2000
    9.5837    9.0503   22.9911 C   0  0  0  0  0  0  0  0  0  0  0  0
    8.9762   10.2953   23.3319 O   0  0  0  0  0  0  0  0  0  0  0  0
    8.0776   10.2093   24.3301 C   0  0  0  0  0  0  0  0  0  0  0  0
    7.7605    9.1854   24.9204 O   0  0  0  0  0  0  0  0  0  0  0  0
    7.4607   11.5138   24.6812 C   0  0  0  0  0  0  0  0  0  0  0  0
    6.4435   11.4201   25.6283 C   0  0  0  0  0  0  0  0  0  0  0  0
    5.8685   12.5647   26.1421 C   0  0  0  0  0  0  0  0  0  0  0  0
    4.9061   12.4626   27.2903 C   0  0  0  0  0  0  0  0  0  0  0  0
    3.5864   13.1805   27.2258 C   0  0  0  0  0  0  0  0  0  0  0  0
    4.6565   13.6763   28.1553 C   0  0  0  0  0  0  0  0  0  0  0  0
    6.1947   13.7786   25.6552 N   0  0  0  0  0  0  0  0  0  0  0  0
    7.1555   13.8559   24.7126 C   0  0  0  0  0  0  0  0  0  0  0  0
    7.9202   12.7837   24.2751 C   0  0  0  0  0  0  0  0  0  0  0  0
    9.2693   12.9574   23.8919 N   0  0  0  0  0  0  0  0  0  0  0  0
   10.0438   12.7750   25.0809 N   0  0  0  0  0  0  0  0  0  0  0  0
    9.7721   14.1577   23.1879 C   0  0  2  0  0  0  0  0  0  0  0  0
    9.0637   14.5468   21.9001 C   0  0  0  0  0  0  0  0  0  0  0  0
   10.0625   14.8350   20.7900 C   0  0  0  0  0  0  0  0  0  0  0  0
   11.3375   15.5472   21.1909 C   0  0  0  0  0  0  0  0  0  0  0  0
   11.8471   15.2170   22.4748 O   0  0  0  0  0  0  0  0  0  0  0  0
   11.3010   14.0098   22.9678 C   0  0  0  0  0  0  0  0  0  0  0  0
  1  2  1  0
  2  3  1  0
  3  4  2  0
  3  5  1  0
  5  6  2  0
  6  7  1  0
  7  8  1  0
  8  9  1  0
  9 10  1  0
  7 11  2  0
 11 12  1  0
 12 13  2  0
 13 14  1  0
 14 15  1  0
 16 14  1  6
 16 17  1  0
 17 18  1  0
 18 19  1  0
 19 20  1  0
 20 21  1  0
 13  5  1  0
 21 16  1  0
 10  8  1  0
M  END
>  <distance_score>  (147) 
1.847241

>  <smiles>  (147) 
COC(=O)c1cc(C2CC2)ncc1N(N)[C@@H]1CCCOC1

>  <fragmenstein_error>  (147) 
nan

>  <fragmenstein_runtime>  (147) 
nan

>  <gnina_score_min>  (147) 
5.206

>  <orig_smiles>  (147) 
nan

>  <fragmenstein_mode>  (147) 
nan

>  <rmsd(smina/fragmenstein)>  (147) 
1.076

>  <inspiration_score>  (147) 
None

>  <name>  (147) 
P498296

>  <ref_pdb>  (147) 
A0514a

>  <ref_mols>  (147) 
A4331a,A0514a

>  <subsites>  (147) 
None

>  <tags>  (147) 
openbind_a71ev2a_c1_elabs_filtered,openbind_a71ev2a_c1_elab_chemspace_filtered_scored

>  <inchikey>  (147) 
GQIWALZAWDAJRY-LLVKDONJSA-N

>  <scratch_subdir>  (147) 
nan

>  <smina_score_min>  (147) 
-6.188

>  <energy_score>  (147) 
-12.558411

>  <Energy>  (147) 
nan

>  <fragmenstein_outcome>  (147) 
nan

>  <alias>  (147) 
None

>  <HIPPO Pose ID>  (147) 
498296

>  <exports>  (147) 
['/opt/xchem-fragalysis-2/maxwin/openbind-hippo/a71ev2a/cycle_01/bulkdock/openbind_a71ev2a_c1_elab_chemspace.sdf', '/opt/xchem-fragalysis-2/maxwin/openbind-hippo/a71ev2a/cycle_01/syndirella/elabs/openbind_a71ev2a_c1_elab_chemspace_filtered.sdf']

>  <HIPPO Compound ID>  (147) 
292670

>  <gnina_score>  (147) 
5.332

$$$$
P498301
     RDKit          3D

 21 23  0  0  0  0  0  0  0  0999 V2000
    9.3148    8.5099   22.9404 C   0  0  0  0  0  0  0  0  0  0  0  0
    8.5248    9.3461   23.7851 O   0  0  0  0  0  0  0  0  0  0  0  0
    9.0118   10.6025   23.9013 C   0  0  0  0  0  0  0  0  0  0  0  0
   10.0527   10.9916   23.3974 O   0  0  0  0  0  0  0  0  0  0  0  0
    8.1258   11.4297   24.7660 C   0  0  0  0  0  0  0  0  0  0  0  0
    7.0776   10.8229   25.4777 C   0  0  0  0  0  0  0  0  0  0  0  0
    6.2815   11.5977   26.3133 C   0  0  0  0  0  0  0  0  0  0  0  0
    5.2643   11.0028   27.2473 C   0  0  0  0  0  0  0  0  0  0  0  0
    4.0672   11.8216   27.6836 C   0  0  0  0  0  0  0  0  0  0  0  0
    5.1854   11.5808   28.6481 C   0  0  0  0  0  0  0  0  0  0  0  0
    6.4577   12.9347   26.3969 N   0  0  0  0  0  0  0  0  0  0  0  0
    7.4351   13.5070   25.6798 C   0  0  0  0  0  0  0  0  0  0  0  0
    8.3434   12.8102   24.9005 C   0  0  0  0  0  0  0  0  0  0  0  0
    9.3983   13.5588   24.3195 N   0  0  0  0  0  0  0  0  0  0  0  0
   10.6897   13.1458   24.7039 N   0  0  0  0  0  0  0  0  0  0  0  0
    9.2192   13.9532   23.0136 C   0  0  0  0  0  0  0  0  0  0  0  0
    8.0776   13.9009   22.3433 N   0  0  0  0  0  0  0  0  0  0  0  0
    8.2387   14.5461   21.1496 N   0  0  0  0  0  0  0  0  0  0  0  0
    9.4749   14.9631   21.0858 C   0  0  0  0  0  0  0  0  0  0  0  0
   10.1501   14.5465   22.1906 N   0  0  0  0  0  0  0  0  0  0  0  0
   11.5583   14.7429   22.3561 C   0  0  0  0  0  0  0  0  0  0  0  0
  1  2  1  0
  2  3  1  0
  3  4  2  0
  3  5  1  0
  5  6  2  0
  6  7  1  0
  7  8  1  0
  8  9  1  0
  9 10  1  0
  7 11  2  0
 11 12  1  0
 12 13  2  0
 13 14  1  0
 14 15  1  0
 14 16  1  0
 16 17  2  0
 17 18  1  0
 18 19  2  0
 19 20  1  0
 20 21  1  0
 13  5  1  0
 20 16  1  0
 10  8  1  0
M  END
>  <distance_score>  (148) 
1.436591

>  <smiles>  (148) 
COC(=O)c1cc(C2CC2)ncc1N(N)c1nncn1C

>  <fragmenstein_error>  (148) 
nan

>  <fragmenstein_runtime>  (148) 
nan

>  <gnina_score_min>  (148) 
5.222

>  <orig_smiles>  (148) 
nan

>  <fragmenstein_mode>  (148) 
nan

>  <rmsd(smina/fragmenstein)>  (148) 
0.607

>  <inspiration_score>  (148) 
None

>  <name>  (148) 
P498301

>  <ref_pdb>  (148) 
A0514a

>  <ref_mols>  (148) 
A4331a,A0514a

>  <subsites>  (148) 
None

>  <tags>  (148) 
openbind_a71ev2a_c1_elabs_filtered,openbind_a71ev2a_c1_elab_chemspace_filtered_scored

>  <inchikey>  (148) 
JGFMSMJCEPVRBE-UHFFFAOYSA-N

>  <scratch_subdir>  (148) 
nan

>  <smina_score_min>  (148) 
-6.39

>  <energy_score>  (148) 
-25.200963

>  <Energy>  (148) 
nan

>  <fragmenstein_outcome>  (148) 
nan

>  <alias>  (148) 
None

>  <HIPPO Pose ID>  (148) 
498301

>  <exports>  (148) 
['/opt/xchem-fragalysis-2/maxwin/openbind-hippo/a71ev2a/cycle_01/bulkdock/openbind_a71ev2a_c1_elab_chemspace.sdf', '/opt/xchem-fragalysis-2/maxwin/openbind-hippo/a71ev2a/cycle_01/syndirella/elabs/openbind_a71ev2a_c1_elab_chemspace_filtered.sdf']

>  <HIPPO Compound ID>  (148) 
292674

>  <gnina_score>  (148) 
5.34

$$$$
P498302
     RDKit          3D

 21 23  0  0  0  0  0  0  0  0999 V2000
    9.2500    8.5628   22.9578 C   0  0  0  0  0  0  0  0  0  0  0  0
    8.3644    9.4548   23.6342 O   0  0  0  0  0  0  0  0  0  0  0  0
    8.9238   10.6651   23.8561 C   0  0  0  0  0  0  0  0  0  0  0  0
   10.0811   10.9570   23.6240 O   0  0  0  0  0  0  0  0  0  0  0  0
    7.9707   11.5710   24.5172 C   0  0  0  0  0  0  0  0  0  0  0  0
    7.2472   11.0240   25.5870 C   0  0  0  0  0  0  0  0  0  0  0  0
    6.4169   11.8234   26.3590 C   0  0  0  0  0  0  0  0  0  0  0  0
    5.6186   11.2787   27.5111 C   0  0  0  0  0  0  0  0  0  0  0  0
    4.2794   11.8930   27.8501 C   0  0  0  0  0  0  0  0  0  0  0  0
    5.4577   12.1466   28.7417 C   0  0  0  0  0  0  0  0  0  0  0  0
    6.3196   13.1346   26.1131 N   0  0  0  0  0  0  0  0  0  0  0  0
    6.9348   13.6077   25.0179 C   0  0  0  0  0  0  0  0  0  0  0  0
    7.7843   12.9062   24.1541 C   0  0  0  0  0  0  0  0  0  0  0  0
    8.2534   13.5468   22.9931 N   0  0  0  0  0  0  0  0  0  0  0  0
    7.3709   14.5215   22.5040 N   0  0  0  0  0  0  0  0  0  0  0  0
    9.7076   13.6220   22.6478 C   0  0  1  0  0  0  0  0  0  0  0  0
    9.9591   14.6663   21.5372 C   0  0  0  0  0  0  0  0  0  0  0  0
   11.3944   14.7615   21.0596 C   0  0  0  0  0  0  0  0  0  0  0  0
   12.3798   15.0475   22.1622 C   0  0  0  0  0  0  0  0  0  0  0  0
   12.3207   13.8367   23.5211 S   0  0  0  0  0  0  0  0  0  0  0  0
   10.5621   13.8623   23.8863 C   0  0  0  0  0  0  0  0  0  0  0  0
  1  2  1  0
  2  3  1  0
  3  4  2  0
  3  5  1  0
  5  6  2  0
  6  7  1  0
  7  8  1  0
  8  9  1  0
  9 10  1  0
  7 11  2  0
 11 12  1  0
 12 13  2  0
 13 14  1  0
 14 15  1  0
 16 14  1  1
 16 17  1  0
 17 18  1  0
 18 19  1  0
 19 20  1  0
 20 21  1  0
 13  5  1  0
 21 16  1  0
 10  8  1  0
M  END
>  <distance_score>  (149) 
1.893868

>  <smiles>  (149) 
COC(=O)c1cc(C2CC2)ncc1N(N)[C@H]1CCCSC1

>  <fragmenstein_error>  (149) 
nan

>  <fragmenstein_runtime>  (149) 
nan

>  <gnina_score_min>  (149) 
5.335

>  <orig_smiles>  (149) 
nan

>  <fragmenstein_mode>  (149) 
nan

>  <rmsd(smina/fragmenstein)>  (149) 
0.727

>  <inspiration_score>  (149) 
None

>  <name>  (149) 
P498302

>  <ref_pdb>  (149) 
A0514a

>  <ref_mols>  (149) 
A4331a,A0514a

>  <subsites>  (149) 
None

>  <tags>  (149) 
openbind_a71ev2a_c1_elabs_filtered,openbind_a71ev2a_c1_elab_chemspace_filtered_scored

>  <inchikey>  (149) 
NLVABMVXVRKYKK-NSHDSACASA-N

>  <scratch_subdir>  (149) 
nan

>  <smina_score_min>  (149) 
-5.772

>  <energy_score>  (149) 
-43.75715

>  <Energy>  (149) 
nan

>  <fragmenstein_outcome>  (149) 
nan

>  <alias>  (149) 
None

>  <HIPPO Pose ID>  (149) 
498302

>  <exports>  (149) 
['/opt/xchem-fragalysis-2/maxwin/openbind-hippo/a71ev2a/cycle_01/bulkdock/openbind_a71ev2a_c1_elab_chemspace.sdf', '/opt/xchem-fragalysis-2/maxwin/openbind-hippo/a71ev2a/cycle_01/syndirella/elabs/openbind_a71ev2a_c1_elab_chemspace_filtered.sdf']

>  <HIPPO Compound ID>  (149) 
292676

>  <gnina_score>  (149) 
5.403

$$$$
P498303
     RDKit          3D

 21 23  0  0  0  0  0  0  0  0999 V2000
    9.2166    8.3437   22.8867 C   0  0  0  0  0  0  0  0  0  0  0  0
    8.3897    9.1538   23.7168 O   0  0  0  0  0  0  0  0  0  0  0  0
    8.9850   10.3247   23.9976 C   0  0  0  0  0  0  0  0  0  0  0  0
   10.1296   10.6384   23.7040 O   0  0  0  0  0  0  0  0  0  0  0  0
    8.0849   11.2548   24.7036 C   0  0  0  0  0  0  0  0  0  0  0  0
    6.9691   10.8024   25.4045 C   0  0  0  0  0  0  0  0  0  0  0  0
    6.2147   11.7363   26.0997 C   0  0  0  0  0  0  0  0  0  0  0  0
    5.1744   11.3337   27.1100 C   0  0  0  0  0  0  0  0  0  0  0  0
    4.0207   12.2583   27.4275 C   0  0  0  0  0  0  0  0  0  0  0  0
    5.1339   12.1051   28.4166 C   0  0  0  0  0  0  0  0  0  0  0  0
    6.4655   13.0639   25.9785 N   0  0  0  0  0  0  0  0  0  0  0  0
    7.5256   13.4823   25.2674 C   0  0  0  0  0  0  0  0  0  0  0  0
    8.4376   12.6120   24.7190 C   0  0  0  0  0  0  0  0  0  0  0  0
    9.7136   13.0504   24.3368 N   0  0  0  0  0  0  0  0  0  0  0  0
   10.0132   13.7936   23.2311 C   0  0  0  0  0  0  0  0  0  0  0  0
    9.2703   14.3526   22.3339 N   0  0  0  0  0  0  0  0  0  0  0  0
   10.1671   14.9474   21.4462 N   0  0  0  0  0  0  0  0  0  0  0  0
    9.7491   15.7437   20.3416 C   0  0  0  0  0  0  0  0  0  0  0  0
   11.4998   14.8308   21.7818 C   0  0  0  0  0  0  0  0  0  0  0  0
   12.4917   15.2961   21.2545 O   0  0  0  0  0  0  0  0  0  0  0  0
   11.4878   13.9880   22.9904 C   0  0  0  0  0  0  0  0  0  0  0  0
  1  2  1  0
  2  3  1  0
  3  4  2  0
  3  5  1  0
  5  6  2  0
  6  7  1  0
  7  8  1  0
  8  9  1  0
  9 10  1  0
  7 11  2  0
 11 12  1  0
 12 13  2  0
 13 14  1  0
 14 15  1  0
 15 16  2  0
 16 17  1  0
 17 18  1  0
 17 19  1  0
 19 20  2  0
 19 21  1  0
 13  5  1  0
 21 15  1  0
 10  8  1  0
M  END
>  <distance_score>  (150) 
1.614172

>  <smiles>  (150) 
COC(=O)c1cc(C2CC2)ncc1NC1=NN(C)C(=O)C1

>  <fragmenstein_error>  (150) 
nan

>  <fragmenstein_runtime>  (150) 
nan

>  <gnina_score_min>  (150) 
5.487

>  <orig_smiles>  (150) 
nan

>  <fragmenstein_mode>  (150) 
nan

>  <rmsd(smina/fragmenstein)>  (150) 
0.671

>  <inspiration_score>  (150) 
None

>  <name>  (150) 
P498303

>  <ref_pdb>  (150) 
A0514a

>  <ref_mols>  (150) 
A4331a,A0514a

>  <subsites>  (150) 
None

>  <tags>  (150) 
openbind_a71ev2a_c1_elabs_filtered,openbind_a71ev2a_c1_elab_chemspace_filtered_scored

>  <inchikey>  (150) 
DIMDHGOVDAGTJB-UHFFFAOYSA-N

>  <scratch_subdir>  (150) 
nan

>  <smina_score_min>  (150) 
-6.769

>  <energy_score>  (150) 
-13.49978

>  <Energy>  (150) 
nan

>  <fragmenstein_outcome>  (150) 
nan

>  <alias>  (150) 
None

>  <HIPPO Pose ID>  (150) 
498303

>  <exports>  (150) 
['/opt/xchem-fragalysis-2/maxwin/openbind-hippo/a71ev2a/cycle_01/bulkdock/openbind_a71ev2a_c1_elab_chemspace.sdf', '/opt/xchem-fragalysis-2/maxwin/openbind-hippo/a71ev2a/cycle_01/syndirella/elabs/openbind_a71ev2a_c1_elab_chemspace_filtered.sdf']

>  <HIPPO Compound ID>  (150) 
292678

>  <gnina_score>  (150) 
5.455

$$$$
P498309
     RDKit          3D

 21 23  0  0  0  0  0  0  0  0999 V2000
    9.5883    8.2083   23.4102 C   0  0  0  0  0  0  0  0  0  0  0  0
    8.7119    8.9286   24.2737 O   0  0  0  0  0  0  0  0  0  0  0  0
    8.6797   10.2069   23.8584 C   0  0  0  0  0  0  0  0  0  0  0  0
    9.1894   10.5877   22.8204 O   0  0  0  0  0  0  0  0  0  0  0  0
    7.9998   11.1052   24.8071 C   0  0  0  0  0  0  0  0  0  0  0  0
    6.8813   10.6659   25.5175 C   0  0  0  0  0  0  0  0  0  0  0  0
    6.2552   11.5560   26.3807 C   0  0  0  0  0  0  0  0  0  0  0  0
    5.1195   11.1563   27.2816 C   0  0  0  0  0  0  0  0  0  0  0  0
    3.9678   12.1154   27.4991 C   0  0  0  0  0  0  0  0  0  0  0  0
    4.9569   11.8929   28.5989 C   0  0  0  0  0  0  0  0  0  0  0  0
    6.6842   12.8366   26.4986 N   0  0  0  0  0  0  0  0  0  0  0  0
    7.7589   13.2329   25.8012 C   0  0  0  0  0  0  0  0  0  0  0  0
    8.4991   12.4064   24.9807 C   0  0  0  0  0  0  0  0  0  0  0  0
    9.6938   12.8465   24.3865 N   0  0  0  0  0  0  0  0  0  0  0  0
   10.6626   13.5085   25.1688 N   0  0  0  0  0  0  0  0  0  0  0  0
    9.5469   13.1295   22.9482 C   0  0  0  0  0  0  0  0  0  0  0  0
    9.7255   14.5868   22.6269 C   0  0  1  0  0  0  0  0  0  0  0  0
   11.0991   14.9549   21.9942 C   0  0  0  0  0  0  0  0  0  0  0  0
   10.3977   14.8439   20.6268 C   0  0  2  0  0  0  0  0  0  0  0  0
   10.6298   15.7595   19.4560 C   0  0  0  0  0  0  0  0  0  0  0  0
    9.0574   15.0829   21.3353 C   0  0  0  0  0  0  0  0  0  0  0  0
  1  2  1  0
  2  3  1  0
  3  4  2  0
  3  5  1  0
  5  6  2  0
  6  7  1  0
  7  8  1  0
  8  9  1  0
  9 10  1  0
  7 11  2  0
 11 12  1  0
 12 13  2  0
 13 14  1  0
 14 15  1  0
 14 16  1  0
 17 16  1  6
 17 18  1  0
 18 19  1  0
 19 20  1  6
 19 21  1  0
 13  5  1  0
 21 17  1  0
 10  8  1  0
M  END
>  <distance_score>  (151) 
1.266603

>  <smiles>  (151) 
COC(=O)c1cc(C2CC2)ncc1N(N)C[C@H]1C[C@H](C)C1

>  <fragmenstein_error>  (151) 
nan

>  <fragmenstein_runtime>  (151) 
nan

>  <gnina_score_min>  (151) 
5.328

>  <orig_smiles>  (151) 
nan

>  <fragmenstein_mode>  (151) 
nan

>  <rmsd(smina/fragmenstein)>  (151) 
1.133

>  <inspiration_score>  (151) 
None

>  <name>  (151) 
P498309

>  <ref_pdb>  (151) 
A0514a

>  <ref_mols>  (151) 
A4331a,A0514a

>  <subsites>  (151) 
None

>  <tags>  (151) 
openbind_a71ev2a_c1_elabs_filtered,openbind_a71ev2a_c1_elab_chemspace_filtered_scored

>  <inchikey>  (151) 
ZOOXSAIAWYMXES-XYPYZODXSA-N

>  <scratch_subdir>  (151) 
nan

>  <smina_score_min>  (151) 
-5.139

>  <energy_score>  (151) 
-21.614505

>  <Energy>  (151) 
nan

>  <fragmenstein_outcome>  (151) 
nan

>  <alias>  (151) 
None

>  <HIPPO Pose ID>  (151) 
498309

>  <exports>  (151) 
['/opt/xchem-fragalysis-2/maxwin/openbind-hippo/a71ev2a/cycle_01/bulkdock/openbind_a71ev2a_c1_elab_chemspace.sdf', '/opt/xchem-fragalysis-2/maxwin/openbind-hippo/a71ev2a/cycle_01/syndirella/elabs/openbind_a71ev2a_c1_elab_chemspace_filtered.sdf']

>  <HIPPO Compound ID>  (151) 
292680

>  <gnina_score>  (151) 
5.571

$$$$
P498310
     RDKit          3D

 21 23  0  0  0  0  0  0  0  0999 V2000
    9.2379    8.8419   23.1468 C   0  0  0  0  0  0  0  0  0  0  0  0
    8.4340    9.7890   23.8619 O   0  0  0  0  0  0  0  0  0  0  0  0
    9.0083   11.0125   23.9595 C   0  0  0  0  0  0  0  0  0  0  0  0
   10.1364   11.2788   23.5831 O   0  0  0  0  0  0  0  0  0  0  0  0
    8.0771   11.9984   24.5721 C   0  0  0  0  0  0  0  0  0  0  0  0
    6.9554   11.5663   25.2845 C   0  0  0  0  0  0  0  0  0  0  0  0
    6.1290   12.5062   25.8957 C   0  0  0  0  0  0  0  0  0  0  0  0
    4.9698   12.1437   26.7675 C   0  0  0  0  0  0  0  0  0  0  0  0
    5.0557   11.1474   27.8879 C   0  0  0  0  0  0  0  0  0  0  0  0
    5.0327   12.6111   28.2077 C   0  0  0  0  0  0  0  0  0  0  0  0
    6.3381   13.8276   25.7559 N   0  0  0  0  0  0  0  0  0  0  0  0
    7.4191   14.2212   25.0745 C   0  0  0  0  0  0  0  0  0  0  0  0
    8.3570   13.3707   24.5125 C   0  0  0  0  0  0  0  0  0  0  0  0
    9.6285   13.9101   24.2467 N   0  0  0  0  0  0  0  0  0  0  0  0
   10.5785   13.5225   25.2388 N   0  0  0  0  0  0  0  0  0  0  0  0
   10.2226   14.2949   23.0212 C   0  0  0  0  0  0  0  0  0  0  0  0
    9.5024   14.6366   21.8933 C   0  0  0  0  0  0  0  0  0  0  0  0
   10.2134   15.0546   20.7779 C   0  0  0  0  0  0  0  0  0  0  0  0
   11.5914   15.0446   20.8289 C   0  0  0  0  0  0  0  0  0  0  0  0
   12.2757   14.7694   21.9485 N   0  0  0  0  0  0  0  0  0  0  0  0
   11.5828   14.4174   23.0449 N   0  0  0  0  0  0  0  0  0  0  0  0
  1  2  1  0
  2  3  1  0
  3  4  2  0
  3  5  1  0
  5  6  2  0
  6  7  1  0
  7  8  1  0
  8  9  1  0
  9 10  1  0
  7 11  2  0
 11 12  1  0
 12 13  2  0
 13 14  1  0
 14 15  1  0
 14 16  1  0
 16 17  2  0
 17 18  1  0
 18 19  2  0
 19 20  1  0
 20 21  2  0
 13  5  1  0
 21 16  1  0
 10  8  1  0
M  END
>  <distance_score>  (152) 
1.632912

>  <smiles>  (152) 
COC(=O)c1cc(C2CC2)ncc1N(N)c1cccnn1

>  <fragmenstein_error>  (152) 
nan

>  <fragmenstein_runtime>  (152) 
nan

>  <gnina_score_min>  (152) 
5.396

>  <orig_smiles>  (152) 
nan

>  <fragmenstein_mode>  (152) 
nan

>  <rmsd(smina/fragmenstein)>  (152) 
0.519

>  <inspiration_score>  (152) 
None

>  <name>  (152) 
P498310

>  <ref_pdb>  (152) 
A0514a

>  <ref_mols>  (152) 
A4331a,A0514a

>  <subsites>  (152) 
None

>  <tags>  (152) 
openbind_a71ev2a_c1_elabs_filtered,openbind_a71ev2a_c1_elab_chemspace_filtered_scored

>  <inchikey>  (152) 
NOTWZSGTSAWGLN-UHFFFAOYSA-N

>  <scratch_subdir>  (152) 
nan

>  <smina_score_min>  (152) 
-6.485

>  <energy_score>  (152) 
-49.17876

>  <Energy>  (152) 
nan

>  <fragmenstein_outcome>  (152) 
nan

>  <alias>  (152) 
None

>  <HIPPO Pose ID>  (152) 
498310

>  <exports>  (152) 
['/opt/xchem-fragalysis-2/maxwin/openbind-hippo/a71ev2a/cycle_01/bulkdock/openbind_a71ev2a_c1_elab_chemspace.sdf', '/opt/xchem-fragalysis-2/maxwin/openbind-hippo/a71ev2a/cycle_01/syndirella/elabs/openbind_a71ev2a_c1_elab_chemspace_filtered.sdf']

>  <HIPPO Compound ID>  (152) 
292682

>  <gnina_score>  (152) 
5.265

$$$$
P498314
     RDKit          3D

 21 23  0  0  0  0  0  0  0  0999 V2000
    9.7745    8.9559   22.9890 C   0  0  0  0  0  0  0  0  0  0  0  0
    8.9083   10.0233   23.3545 O   0  0  0  0  0  0  0  0  0  0  0  0
    9.4979   11.2232   23.5730 C   0  0  0  0  0  0  0  0  0  0  0  0
   10.6815   11.4827   23.5001 O   0  0  0  0  0  0  0  0  0  0  0  0
    8.4362   12.1538   23.9918 C   0  0  0  0  0  0  0  0  0  0  0  0
    7.4918   11.5889   24.8887 C   0  0  0  0  0  0  0  0  0  0  0  0
    6.5488   12.3865   25.5062 C   0  0  0  0  0  0  0  0  0  0  0  0
    5.6588   11.8462   26.5984 C   0  0  0  0  0  0  0  0  0  0  0  0
    4.4669   12.6320   27.0929 C   0  0  0  0  0  0  0  0  0  0  0  0
    5.6972   12.5455   27.9425 C   0  0  0  0  0  0  0  0  0  0  0  0
    6.4896   13.6972   25.2008 N   0  0  0  0  0  0  0  0  0  0  0  0
    7.3938   14.2134   24.3207 C   0  0  0  0  0  0  0  0  0  0  0  0
    8.4335   13.5257   23.6880 C   0  0  0  0  0  0  0  0  0  0  0  0
    9.5079   14.3131   23.2078 N   0  0  0  0  0  0  0  0  0  0  0  0
   10.4308   14.2945   24.2494 N   0  0  0  0  0  0  0  0  0  0  0  0
   11.6110   14.2199   23.7456 C   0  0  0  0  0  0  0  0  0  0  0  0
   11.7192   14.3386   22.2873 C   0  0  0  0  0  0  0  0  0  0  0  0
   10.2691   14.1492   21.8934 C   0  0  2  0  0  0  0  0  0  0  0  0
    9.9328   15.0542   20.6490 C   0  0  0  0  0  0  0  0  0  0  0  0
   11.0072   14.9394   19.5246 C   0  0  0  0  0  0  0  0  0  0  0  0
    9.7808   16.5541   20.8147 C   0  0  0  0  0  0  0  0  0  0  0  0
  1  2  1  0
  2  3  1  0
  3  4  2  0
  3  5  1  0
  5  6  2  0
  6  7  1  0
  7  8  1  0
  8  9  1  0
  9 10  1  0
  7 11  2  0
 11 12  1  0
 12 13  2  0
 13 14  1  0
 14 15  1  0
 15 16  2  0
 16 17  1  0
 17 18  1  0
 18 19  1  6
 19 20  1  0
 19 21  1  0
 13  5  1  0
 18 14  1  0
 10  8  1  0
M  END
>  <distance_score>  (153) 
1.870355

>  <smiles>  (153) 
COC(=O)c1cc(C2CC2)ncc1N1N=CC[C@@H]1C(C)C

>  <fragmenstein_error>  (153) 
nan

>  <fragmenstein_runtime>  (153) 
nan

>  <gnina_score_min>  (153) 
5.33

>  <orig_smiles>  (153) 
nan

>  <fragmenstein_mode>  (153) 
nan

>  <rmsd(smina/fragmenstein)>  (153) 
1.41

>  <inspiration_score>  (153) 
None

>  <name>  (153) 
P498314

>  <ref_pdb>  (153) 
A0514a

>  <ref_mols>  (153) 
A4331a,A0514a

>  <subsites>  (153) 
None

>  <tags>  (153) 
openbind_a71ev2a_c1_elabs_filtered,openbind_a71ev2a_c1_elab_chemspace_filtered_scored

>  <inchikey>  (153) 
PCKKGRCTVPWGQP-CQSZACIVSA-N

>  <scratch_subdir>  (153) 
nan

>  <smina_score_min>  (153) 
-6.372

>  <energy_score>  (153) 
-22.986528

>  <Energy>  (153) 
nan

>  <fragmenstein_outcome>  (153) 
nan

>  <alias>  (153) 
None

>  <HIPPO Pose ID>  (153) 
498314

>  <exports>  (153) 
['/opt/xchem-fragalysis-2/maxwin/openbind-hippo/a71ev2a/cycle_01/bulkdock/openbind_a71ev2a_c1_elab_chemspace.sdf', '/opt/xchem-fragalysis-2/maxwin/openbind-hippo/a71ev2a/cycle_01/syndirella/elabs/openbind_a71ev2a_c1_elab_chemspace_filtered.sdf']

>  <HIPPO Compound ID>  (153) 
292692

>  <gnina_score>  (153) 
5.386

$$$$
P498316
     RDKit          3D

 21 23  0  0  0  0  0  0  0  0999 V2000
    9.2098    8.3280   22.8400 C   0  0  0  0  0  0  0  0  0  0  0  0
    8.3501    9.1215   23.6508 O   0  0  0  0  0  0  0  0  0  0  0  0
    8.9102   10.3105   23.9464 C   0  0  0  0  0  0  0  0  0  0  0  0
   10.0394   10.6464   23.6327 O   0  0  0  0  0  0  0  0  0  0  0  0
    7.9667   11.1370   24.7393 C   0  0  0  0  0  0  0  0  0  0  0  0
    6.9772   10.5188   25.5176 C   0  0  0  0  0  0  0  0  0  0  0  0
    6.1823   11.2958   26.3500 C   0  0  0  0  0  0  0  0  0  0  0  0
    5.1723   10.7167   27.2970 C   0  0  0  0  0  0  0  0  0  0  0  0
    5.2131   11.1386   28.7485 C   0  0  0  0  0  0  0  0  0  0  0  0
    4.1026   11.6292   27.8740 C   0  0  0  0  0  0  0  0  0  0  0  0
    6.3397   12.6334   26.4055 N   0  0  0  0  0  0  0  0  0  0  0  0
    7.2450   13.2106   25.6076 C   0  0  0  0  0  0  0  0  0  0  0  0
    8.1013   12.5310   24.7503 C   0  0  0  0  0  0  0  0  0  0  0  0
    9.0764   13.2132   23.9896 N   0  0  0  0  0  0  0  0  0  0  0  0
   10.3877   13.0802   24.5142 N   0  0  0  0  0  0  0  0  0  0  0  0
    8.6973   14.5653   23.5771 C   0  0  0  0  0  0  0  0  0  0  0  0
    9.2029   15.0449   22.2098 C   0  0  2  0  0  0  0  0  0  0  0  0
    8.5583   14.3002   21.1087 C   0  0  0  0  0  0  0  0  0  0  0  0
   10.6572   15.2664   21.8568 C   0  0  0  0  0  0  0  0  0  0  0  0
   11.8958   15.0964   22.6964 C   0  0  0  0  0  0  0  0  0  0  0  0
   11.5951   14.1052   21.6333 C   0  0  0  0  0  0  0  0  0  0  0  0
  1  2  1  0
  2  3  1  0
  3  4  2  0
  3  5  1  0
  5  6  2  0
  6  7  1  0
  7  8  1  0
  8  9  1  0
  9 10  1  0
  7 11  2  0
 11 12  1  0
 12 13  2  0
 13 14  1  0
 14 15  1  0
 14 16  1  0
 16 17  1  0
 17 18  1  6
 17 19  1  0
 19 20  1  0
 20 21  1  0
 13  5  1  0
 21 19  1  0
 10  8  1  0
M  END
>  <distance_score>  (154) 
1.65545

>  <smiles>  (154) 
COC(=O)c1cc(C2CC2)ncc1N(N)C[C@H](C)C1CC1

>  <fragmenstein_error>  (154) 
nan

>  <fragmenstein_runtime>  (154) 
nan

>  <gnina_score_min>  (154) 
5.078

>  <orig_smiles>  (154) 
nan

>  <fragmenstein_mode>  (154) 
nan

>  <rmsd(smina/fragmenstein)>  (154) 
1.136

>  <inspiration_score>  (154) 
None

>  <name>  (154) 
P498316

>  <ref_pdb>  (154) 
A0514a

>  <ref_mols>  (154) 
A4331a,A0514a

>  <subsites>  (154) 
None

>  <tags>  (154) 
openbind_a71ev2a_c1_elabs_filtered,openbind_a71ev2a_c1_elab_chemspace_filtered_scored

>  <inchikey>  (154) 
ZPMRHELNXDJOJC-JTQLQIEISA-N

>  <scratch_subdir>  (154) 
nan

>  <smina_score_min>  (154) 
-5.857

>  <energy_score>  (154) 
-16.063915

>  <Energy>  (154) 
nan

>  <fragmenstein_outcome>  (154) 
nan

>  <alias>  (154) 
None

>  <HIPPO Pose ID>  (154) 
498316

>  <exports>  (154) 
['/opt/xchem-fragalysis-2/maxwin/openbind-hippo/a71ev2a/cycle_01/bulkdock/openbind_a71ev2a_c1_elab_chemspace.sdf', '/opt/xchem-fragalysis-2/maxwin/openbind-hippo/a71ev2a/cycle_01/syndirella/elabs/openbind_a71ev2a_c1_elab_chemspace_filtered.sdf']

>  <HIPPO Compound ID>  (154) 
292696

>  <gnina_score>  (154) 
5.326

$$$$
P498319
     RDKit          3D

 21 22  0  0  0  0  0  0  0  0999 V2000
    9.4346    8.4063   23.1975 C   0  0  0  0  0  0  0  0  0  0  0  0
    8.6745    9.1924   24.1167 O   0  0  0  0  0  0  0  0  0  0  0  0
    8.7407   10.5156   23.8669 C   0  0  0  0  0  0  0  0  0  0  0  0
    9.3666   11.0357   22.9606 O   0  0  0  0  0  0  0  0  0  0  0  0
    7.9101   11.2914   24.8164 C   0  0  0  0  0  0  0  0  0  0  0  0
    6.9055   10.6670   25.5613 C   0  0  0  0  0  0  0  0  0  0  0  0
    6.1190   11.4441   26.3979 C   0  0  0  0  0  0  0  0  0  0  0  0
    5.1523   10.8589   27.3861 C   0  0  0  0  0  0  0  0  0  0  0  0
    3.9521   11.6633   27.8383 C   0  0  0  0  0  0  0  0  0  0  0  0
    5.1117   11.4849   28.7677 C   0  0  0  0  0  0  0  0  0  0  0  0
    6.2519   12.7886   26.4231 N   0  0  0  0  0  0  0  0  0  0  0  0
    7.2060   13.3746   25.6919 C   0  0  0  0  0  0  0  0  0  0  0  0
    8.1229   12.6770   24.9245 C   0  0  0  0  0  0  0  0  0  0  0  0
    9.2201   13.2930   24.2906 N   0  0  0  0  0  0  0  0  0  0  0  0
    8.8245   14.1425   23.1707 C   0  0  0  0  0  0  0  0  0  0  0  0
   10.0438   14.3961   22.2944 C   0  0  0  0  0  0  0  0  0  0  0  0
    9.7236   15.2210   21.0689 C   0  0  0  0  0  0  0  0  0  0  0  0
   10.8775   15.2536   20.2478 O   0  0  0  0  0  0  0  0  0  0  0  0
   10.0839   13.8766   25.1811 N   0  0  0  0  0  0  0  0  0  0  0  0
   11.2095   13.3771   25.2206 O   0  0  0  0  0  0  0  0  0  0  0  0
    9.6787   14.8245   25.8617 O   0  0  0  0  0  0  0  0  0  0  0  0
  1  2  1  0
  2  3  1  0
  3  4  2  0
  3  5  1  0
  5  6  2  0
  6  7  1  0
  7  8  1  0
  8  9  1  0
  9 10  1  0
  7 11  2  0
 11 12  1  0
 12 13  2  0
 13 14  1  0
 14 15  1  0
 15 16  1  0
 16 17  1  0
 17 18  1  0
 14 19  1  0
 19 20  2  0
 19 21  1  0
 13  5  1  0
 10  8  1  0
M  CHG  2  19   1  21  -1
M  END
>  <distance_score>  (155) 
1.841822

>  <smiles>  (155) 
COC(=O)c1cc(C2CC2)ncc1N(CCCO)[N+](=O)[O-]

>  <fragmenstein_error>  (155) 
nan

>  <fragmenstein_runtime>  (155) 
nan

>  <gnina_score_min>  (155) 
4.69

>  <orig_smiles>  (155) 
nan

>  <fragmenstein_mode>  (155) 
nan

>  <rmsd(smina/fragmenstein)>  (155) 
1.018

>  <inspiration_score>  (155) 
None

>  <name>  (155) 
P498319

>  <ref_pdb>  (155) 
A0514a

>  <ref_mols>  (155) 
A4331a,A0514a

>  <subsites>  (155) 
None

>  <tags>  (155) 
openbind_a71ev2a_c1_elabs_filtered,openbind_a71ev2a_c1_elab_chemspace_filtered_scored

>  <inchikey>  (155) 
KICBXSGAWVNGKE-UHFFFAOYSA-N

>  <scratch_subdir>  (155) 
nan

>  <smina_score_min>  (155) 
-5.913

>  <energy_score>  (155) 
-30.472603

>  <Energy>  (155) 
nan

>  <fragmenstein_outcome>  (155) 
nan

>  <alias>  (155) 
None

>  <HIPPO Pose ID>  (155) 
498319

>  <exports>  (155) 
['/opt/xchem-fragalysis-2/maxwin/openbind-hippo/a71ev2a/cycle_01/bulkdock/openbind_a71ev2a_c1_elab_chemspace.sdf', '/opt/xchem-fragalysis-2/maxwin/openbind-hippo/a71ev2a/cycle_01/syndirella/elabs/openbind_a71ev2a_c1_elab_chemspace_filtered.sdf']

>  <HIPPO Compound ID>  (155) 
292698

>  <gnina_score>  (155) 
5.046

$$$$
P498323
     RDKit          3D

 21 23  0  0  0  0  0  0  0  0999 V2000
    9.4379    8.6170   22.9304 C   0  0  0  0  0  0  0  0  0  0  0  0
    8.5822    9.5293   23.6117 O   0  0  0  0  0  0  0  0  0  0  0  0
    9.1843   10.7022   23.9147 C   0  0  0  0  0  0  0  0  0  0  0  0
   10.3569   10.9631   23.7173 O   0  0  0  0  0  0  0  0  0  0  0  0
    8.1992   11.6192   24.5324 C   0  0  0  0  0  0  0  0  0  0  0  0
    7.1529   11.0304   25.2711 C   0  0  0  0  0  0  0  0  0  0  0  0
    6.2864   11.8329   25.9979 C   0  0  0  0  0  0  0  0  0  0  0  0
    5.3326   11.2641   27.0141 C   0  0  0  0  0  0  0  0  0  0  0  0
    4.1628   12.0828   27.5154 C   0  0  0  0  0  0  0  0  0  0  0  0
    5.3536   11.8832   28.3996 C   0  0  0  0  0  0  0  0  0  0  0  0
    6.3649   13.1764   25.9150 N   0  0  0  0  0  0  0  0  0  0  0  0
    7.3645   13.7220   25.1948 C   0  0  0  0  0  0  0  0  0  0  0  0
    8.3608   13.0142   24.5290 C   0  0  0  0  0  0  0  0  0  0  0  0
    9.5245   13.7485   24.2152 N   0  0  0  0  0  0  0  0  0  0  0  0
   10.4737   13.5765   25.2828 N   0  0  0  0  0  0  0  0  0  0  0  0
   10.0778   13.7061   22.8297 C   0  0  2  0  0  0  0  0  0  0  0  0
   11.5257   14.2474   22.8079 C   0  0  0  0  0  0  0  0  0  0  0  0
   11.7179   15.0335   21.5354 C   0  0  0  0  0  0  0  0  0  0  0  0
   10.4565   14.8004   20.7522 C   0  0  2  0  0  0  0  0  0  0  0  0
   10.2459   15.8575   19.7006 C   0  0  0  0  0  0  0  0  0  0  0  0
    9.3471   14.5537   21.7864 C   0  0  0  0  0  0  0  0  0  0  0  0
  1  2  1  0
  2  3  1  0
  3  4  2  0
  3  5  1  0
  5  6  2  0
  6  7  1  0
  7  8  1  0
  8  9  1  0
  9 10  1  0
  7 11  2  0
 11 12  1  0
 12 13  2  0
 13 14  1  0
 14 15  1  0
 16 14  1  1
 16 17  1  0
 17 18  1  0
 18 19  1  0
 19 20  1  1
 19 21  1  0
 13  5  1  0
 21 16  1  0
 10  8  1  0
M  END
>  <distance_score>  (156) 
1.57487

>  <smiles>  (156) 
COC(=O)c1cc(C2CC2)ncc1N(N)[C@@H]1CC[C@H](C)C1

>  <fragmenstein_error>  (156) 
nan

>  <fragmenstein_runtime>  (156) 
nan

>  <gnina_score_min>  (156) 
5.356

>  <orig_smiles>  (156) 
nan

>  <fragmenstein_mode>  (156) 
nan

>  <rmsd(smina/fragmenstein)>  (156) 
0.319

>  <inspiration_score>  (156) 
None

>  <name>  (156) 
P498323

>  <ref_pdb>  (156) 
A0514a

>  <ref_mols>  (156) 
A4331a,A0514a

>  <subsites>  (156) 
None

>  <tags>  (156) 
openbind_a71ev2a_c1_elabs_filtered,openbind_a71ev2a_c1_elab_chemspace_filtered_scored

>  <inchikey>  (156) 
AFDNICJRWUXWLI-CMPLNLGQSA-N

>  <scratch_subdir>  (156) 
nan

>  <smina_score_min>  (156) 
-6.587

>  <energy_score>  (156) 
-21.527285

>  <Energy>  (156) 
nan

>  <fragmenstein_outcome>  (156) 
nan

>  <alias>  (156) 
None

>  <HIPPO Pose ID>  (156) 
498323

>  <exports>  (156) 
['/opt/xchem-fragalysis-2/maxwin/openbind-hippo/a71ev2a/cycle_01/bulkdock/openbind_a71ev2a_c1_elab_chemspace.sdf', '/opt/xchem-fragalysis-2/maxwin/openbind-hippo/a71ev2a/cycle_01/syndirella/elabs/openbind_a71ev2a_c1_elab_chemspace_filtered.sdf']

>  <HIPPO Compound ID>  (156) 
292701

>  <gnina_score>  (156) 
5.438

$$$$
P498331
     RDKit          3D

 21 22  0  0  0  0  0  0  0  0999 V2000
    9.6898    8.5958   23.3976 C   0  0  0  0  0  0  0  0  0  0  0  0
    8.6854    9.2563   24.1690 O   0  0  0  0  0  0  0  0  0  0  0  0
    8.7319   10.5993   23.9920 C   0  0  0  0  0  0  0  0  0  0  0  0
    9.4788   11.1594   23.2088 O   0  0  0  0  0  0  0  0  0  0  0  0
    7.7674   11.2974   24.8815 C   0  0  0  0  0  0  0  0  0  0  0  0
    6.7990   10.5758   25.5888 C   0  0  0  0  0  0  0  0  0  0  0  0
    5.9478   11.2565   26.4516 C   0  0  0  0  0  0  0  0  0  0  0  0
    5.0644   10.5602   27.4436 C   0  0  0  0  0  0  0  0  0  0  0  0
    3.8773   11.2829   28.0455 C   0  0  0  0  0  0  0  0  0  0  0  0
    5.1083   11.0733   28.8709 C   0  0  0  0  0  0  0  0  0  0  0  0
    5.9592   12.6034   26.5309 N   0  0  0  0  0  0  0  0  0  0  0  0
    6.8894   13.2771   25.8508 C   0  0  0  0  0  0  0  0  0  0  0  0
    7.8627   12.6850   25.0639 C   0  0  0  0  0  0  0  0  0  0  0  0
    8.9308   13.4574   24.5681 N   0  0  0  0  0  0  0  0  0  0  0  0
    9.5071   14.3439   25.5176 N   0  0  0  0  0  0  0  0  0  0  0  0
    8.6331   13.9719   23.2093 C   0  0  0  0  0  0  0  0  0  0  0  0
    9.9451   14.2186   22.4866 C   0  0  0  0  0  0  0  0  0  0  0  0
    9.7316   14.7510   21.1908 O   0  0  0  0  0  0  0  0  0  0  0  0
   10.8684   15.4556   20.6608 C   0  0  0  0  0  0  0  0  0  0  0  0
   12.2279   14.9822   21.1819 C   0  0  0  0  0  0  0  0  0  0  0  0
   10.8340   15.3531   19.1416 C   0  0  0  0  0  0  0  0  0  0  0  0
  1  2  1  0
  2  3  1  0
  3  4  2  0
  3  5  1  0
  5  6  2  0
  6  7  1  0
  7  8  1  0
  8  9  1  0
  9 10  1  0
  7 11  2  0
 11 12  1  0
 12 13  2  0
 13 14  1  0
 14 15  1  0
 14 16  1  0
 16 17  1  0
 17 18  1  0
 18 19  1  0
 19 20  1  0
 19 21  1  0
 13  5  1  0
 10  8  1  0
M  END
>  <distance_score>  (157) 
1.414065

>  <smiles>  (157) 
COC(=O)c1cc(C2CC2)ncc1N(N)CCOC(C)C

>  <fragmenstein_error>  (157) 
nan

>  <fragmenstein_runtime>  (157) 
nan

>  <gnina_score_min>  (157) 
4.92

>  <orig_smiles>  (157) 
nan

>  <fragmenstein_mode>  (157) 
nan

>  <rmsd(smina/fragmenstein)>  (157) 
0.482

>  <inspiration_score>  (157) 
None

>  <name>  (157) 
P498331

>  <ref_pdb>  (157) 
A0514a

>  <ref_mols>  (157) 
A4331a,A0514a

>  <subsites>  (157) 
None

>  <tags>  (157) 
openbind_a71ev2a_c1_elabs_filtered,openbind_a71ev2a_c1_elab_chemspace_filtered_scored

>  <inchikey>  (157) 
WGPHOPSQLYWLFN-UHFFFAOYSA-N

>  <scratch_subdir>  (157) 
nan

>  <smina_score_min>  (157) 
-6.113

>  <energy_score>  (157) 
-31.743928

>  <Energy>  (157) 
nan

>  <fragmenstein_outcome>  (157) 
nan

>  <alias>  (157) 
None

>  <HIPPO Pose ID>  (157) 
498331

>  <exports>  (157) 
['/opt/xchem-fragalysis-2/maxwin/openbind-hippo/a71ev2a/cycle_01/bulkdock/openbind_a71ev2a_c1_elab_chemspace.sdf', '/opt/xchem-fragalysis-2/maxwin/openbind-hippo/a71ev2a/cycle_01/syndirella/elabs/openbind_a71ev2a_c1_elab_chemspace_filtered.sdf']

>  <HIPPO Compound ID>  (157) 
292707

>  <gnina_score>  (157) 
4.873

$$$$
P498332
     RDKit          3D

 21 23  0  0  0  0  0  0  0  0999 V2000
    9.7323    8.3019   23.3598 C   0  0  0  0  0  0  0  0  0  0  0  0
    8.8181    9.0799   24.1235 O   0  0  0  0  0  0  0  0  0  0  0  0
    8.8887   10.3669   23.7236 C   0  0  0  0  0  0  0  0  0  0  0  0
    9.6001   10.7667   22.8187 O   0  0  0  0  0  0  0  0  0  0  0  0
    8.0376   11.2481   24.5500 C   0  0  0  0  0  0  0  0  0  0  0  0
    7.0573   10.7150   25.3947 C   0  0  0  0  0  0  0  0  0  0  0  0
    6.2904   11.5830   26.1582 C   0  0  0  0  0  0  0  0  0  0  0  0
    5.3409   11.1035   27.2222 C   0  0  0  0  0  0  0  0  0  0  0  0
    4.1503   11.9506   27.6161 C   0  0  0  0  0  0  0  0  0  0  0  0
    5.3257   11.8588   28.5384 C   0  0  0  0  0  0  0  0  0  0  0  0
    6.4322   12.9220   26.0319 N   0  0  0  0  0  0  0  0  0  0  0  0
    7.3485   13.4169   25.1825 C   0  0  0  0  0  0  0  0  0  0  0  0
    8.2291   12.6360   24.4576 C   0  0  0  0  0  0  0  0  0  0  0  0
    9.3258   13.2079   23.7580 N   0  0  0  0  0  0  0  0  0  0  0  0
   10.5881   12.9343   24.3603 N   0  0  0  0  0  0  0  0  0  0  0  0
    9.2870   14.4680   23.0570 C   0  0  0  0  0  0  0  0  0  0  0  0
   10.6437   14.7915   22.3681 C   0  0  0  0  0  0  0  0  0  0  0  0
    9.8241   15.5286   21.0083 S   0  0  0  0  0  0  0  0  0  0  0  0
   10.4399   15.0275   19.8064 O   0  0  0  0  0  0  0  0  0  0  0  0
    9.4480   16.9131   21.1337 O   0  0  0  0  0  0  0  0  0  0  0  0
    8.5436   14.5109   21.7133 C   0  0  0  0  0  0  0  0  0  0  0  0
  1  2  1  0
  2  3  1  0
  3  4  2  0
  3  5  1  0
  5  6  2  0
  6  7  1  0
  7  8  1  0
  8  9  1  0
  9 10  1  0
  7 11  2  0
 11 12  1  0
 12 13  2  0
 13 14  1  0
 14 15  1  0
 14 16  1  0
 16 17  1  0
 17 18  1  0
 18 19  2  0
 18 20  2  0
 18 21  1  0
 13  5  1  0
 21 16  1  0
 10  8  1  0
M  END
>  <distance_score>  (158) 
1.350894

>  <smiles>  (158) 
COC(=O)c1cc(C2CC2)ncc1N(N)C1CS(=O)(=O)C1

>  <fragmenstein_error>  (158) 
nan

>  <fragmenstein_runtime>  (158) 
nan

>  <gnina_score_min>  (158) 
5.124

>  <orig_smiles>  (158) 
nan

>  <fragmenstein_mode>  (158) 
nan

>  <rmsd(smina/fragmenstein)>  (158) 
0.852

>  <inspiration_score>  (158) 
None

>  <name>  (158) 
P498332

>  <ref_pdb>  (158) 
A0514a

>  <ref_mols>  (158) 
A4331a,A0514a

>  <subsites>  (158) 
None

>  <tags>  (158) 
openbind_a71ev2a_c1_elabs_filtered,openbind_a71ev2a_c1_elab_chemspace_filtered_scored

>  <inchikey>  (158) 
STBYMXFWAWFVKV-UHFFFAOYSA-N

>  <scratch_subdir>  (158) 
nan

>  <smina_score_min>  (158) 
-5.494

>  <energy_score>  (158) 
-37.204356

>  <Energy>  (158) 
nan

>  <fragmenstein_outcome>  (158) 
nan

>  <alias>  (158) 
None

>  <HIPPO Pose ID>  (158) 
498332

>  <exports>  (158) 
['/opt/xchem-fragalysis-2/maxwin/openbind-hippo/a71ev2a/cycle_01/bulkdock/openbind_a71ev2a_c1_elab_chemspace.sdf', '/opt/xchem-fragalysis-2/maxwin/openbind-hippo/a71ev2a/cycle_01/syndirella/elabs/openbind_a71ev2a_c1_elab_chemspace_filtered.sdf']

>  <HIPPO Compound ID>  (158) 
292708

>  <gnina_score>  (158) 
5.213

$$$$
P498950
     RDKit          3D

 22 25  0  0  0  0  0  0  0  0999 V2000
    9.4017    8.6200   23.0810 C   0  0  0  0  0  0  0  0  0  0  0  0
    9.2475    9.9120   23.7029 N   0  0  0  0  0  0  0  0  0  0  0  0
    9.9542   10.9325   23.2017 N   0  0  0  0  0  0  0  0  0  0  0  0
    9.5505   11.9945   23.9139 C   0  0  0  0  0  0  0  0  0  0  0  0
   10.0671   13.3204   23.6219 C   0  0  0  0  0  0  0  0  0  0  0  0
    9.9484   14.2009   24.3751 O   0  0  0  0  0  0  0  0  0  0  0  0
   10.6393   13.2987   22.1997 N   0  0  0  0  0  0  0  0  0  0  0  0
   11.2566   14.3046   21.4550 C   0  0  0  0  0  0  0  0  0  0  0  0
   10.3081   15.2281   20.6354 C   0  0  0  0  0  0  0  0  0  0  0  0
   10.3388   15.4294   19.2828 C   0  0  0  0  0  0  0  0  0  0  0  0
    9.5783   16.5255   19.0057 O   0  0  0  0  0  0  0  0  0  0  0  0
    9.1066   16.9030   20.2249 C   0  0  0  0  0  0  0  0  0  0  0  0
    9.4586   16.1177   21.2139 N   0  0  0  0  0  0  0  0  0  0  0  0
   12.3808   14.9689   22.0939 C   0  0  0  0  0  0  0  0  0  0  0  0
   12.6757   14.0624   20.9281 C   0  0  0  0  0  0  0  0  0  0  0  0
    8.5707   11.6573   24.8703 C   0  0  0  0  0  0  0  0  0  0  0  0
    7.8015   12.3656   25.8125 C   0  0  0  0  0  0  0  0  0  0  0  0
    6.8639   11.6639   26.5615 C   0  0  0  0  0  0  0  0  0  0  0  0
    6.1317   12.3133   27.4761 F   0  0  0  0  0  0  0  0  0  0  0  0
    6.6760   10.3006   26.3896 C   0  0  0  0  0  0  0  0  0  0  0  0
    7.4345    9.5929   25.4533 C   0  0  0  0  0  0  0  0  0  0  0  0
    8.3813   10.2901   24.7023 C   0  0  0  0  0  0  0  0  0  0  0  0
  1  2  1  0
  2  3  1  0
  3  4  2  0
  4  5  1  0
  5  6  2  0
  5  7  1  0
  7  8  1  0
  8  9  1  0
  9 10  2  0
 10 11  1  0
 11 12  1  0
 12 13  2  0
  8 14  1  0
 14 15  1  0
  4 16  1  0
 16 17  2  0
 17 18  1  0
 18 19  1  0
 18 20  2  0
 20 21  1  0
 21 22  2  0
 22  2  1  0
 15  8  1  0
 22 16  1  0
 13  9  1  0
M  END
>  <distance_score>  (159) 
0.820738

>  <smiles>  (159) 
Cn1nc(C(=O)NC2(c3cocn3)CC2)c2cc(F)ccc21

>  <fragmenstein_error>  (159) 
nan

>  <fragmenstein_runtime>  (159) 
nan

>  <gnina_score_min>  (159) 
6.227

>  <orig_smiles>  (159) 
nan

>  <fragmenstein_mode>  (159) 
nan

>  <rmsd(smina/fragmenstein)>  (159) 
0.364

>  <inspiration_score>  (159) 
None

>  <name>  (159) 
P498950

>  <ref_pdb>  (159) 
A2290a

>  <ref_mols>  (159) 
A3403a,A2290a

>  <subsites>  (159) 
None

>  <tags>  (159) 
openbind_a71ev2a_c1_elabs_filtered,openbind_a71ev2a_c1_elab_chemspace_filtered_scored

>  <inchikey>  (159) 
YHXUPRASNYFVEE-UHFFFAOYSA-N

>  <scratch_subdir>  (159) 
nan

>  <smina_score_min>  (159) 
-7.076

>  <energy_score>  (159) 
-6.873966

>  <Energy>  (159) 
nan

>  <fragmenstein_outcome>  (159) 
nan

>  <alias>  (159) 
None

>  <HIPPO Pose ID>  (159) 
498950

>  <exports>  (159) 
['/opt/xchem-fragalysis-2/maxwin/openbind-hippo/a71ev2a/cycle_01/bulkdock/openbind_a71ev2a_c1_elab_chemspace.sdf', '/opt/xchem-fragalysis-2/maxwin/openbind-hippo/a71ev2a/cycle_01/syndirella/elabs/openbind_a71ev2a_c1_elab_chemspace_filtered.sdf']

>  <HIPPO Compound ID>  (159) 
299225

>  <gnina_score>  (159) 
6.148

$$$$
P498984
     RDKit          3D

 24 27  0  0  0  0  0  0  0  0999 V2000
    9.3929    8.6519   23.0985 C   0  0  0  0  0  0  0  0  0  0  0  0
    9.2686    9.9512   23.7118 N   0  0  0  0  0  0  0  0  0  0  0  0
   10.0168   10.9462   23.2205 N   0  0  0  0  0  0  0  0  0  0  0  0
    9.6389   12.0266   23.9206 C   0  0  0  0  0  0  0  0  0  0  0  0
   10.2305   13.3283   23.6348 C   0  0  0  0  0  0  0  0  0  0  0  0
   10.2199   14.1970   24.4102 O   0  0  0  0  0  0  0  0  0  0  0  0
   10.7728   13.2810   22.2021 N   0  0  0  0  0  0  0  0  0  0  0  0
   11.3199   14.2932   21.4008 C   0  0  0  0  0  0  0  0  0  0  0  0
   10.3229   15.2245   20.6597 C   0  0  0  0  0  0  0  0  0  0  0  0
   10.3034   15.4734   19.3133 C   0  0  0  0  0  0  0  0  0  0  0  0
    9.5229   16.5679   19.0994 O   0  0  0  0  0  0  0  0  0  0  0  0
    9.0716   16.8807   20.3445 C   0  0  0  0  0  0  0  0  0  0  0  0
    9.4584   16.0571   21.2895 N   0  0  0  0  0  0  0  0  0  0  0  0
   12.5760   13.9397   20.6565 C   0  0  0  0  0  0  0  0  0  0  0  0
   12.6415   14.8728   21.8100 C   0  0  0  0  0  0  0  0  0  0  0  0
    8.6184   11.7242   24.8499 C   0  0  0  0  0  0  0  0  0  0  0  0
    7.8381   12.4652   25.7582 C   0  0  0  0  0  0  0  0  0  0  0  0
    6.8453   11.7877   26.4788 C   0  0  0  0  0  0  0  0  0  0  0  0
    6.0151   12.5338   27.4227 N   0  0  0  0  0  0  0  0  0  0  0  0
    4.8837   12.0914   27.6702 O   0  0  0  0  0  0  0  0  0  0  0  0
    6.5154   13.5382   27.9492 O   0  0  0  0  0  0  0  0  0  0  0  0
    6.6402   10.4142   26.3291 C   0  0  0  0  0  0  0  0  0  0  0  0
    7.4247    9.6814   25.4350 C   0  0  0  0  0  0  0  0  0  0  0  0
    8.3982   10.3582   24.6957 C   0  0  0  0  0  0  0  0  0  0  0  0
  1  2  1  0
  2  3  1  0
  3  4  2  0
  4  5  1  0
  5  6  2  0
  5  7  1  0
  7  8  1  0
  8  9  1  0
  9 10  2  0
 10 11  1  0
 11 12  1  0
 12 13  2  0
  8 14  1  0
 14 15  1  0
  4 16  1  0
 16 17  2  0
 17 18  1  0
 18 19  1  0
 19 20  2  0
 19 21  1  0
 18 22  2  0
 22 23  1  0
 23 24  2  0
 24  2  1  0
 15  8  1  0
 24 16  1  0
 13  9  1  0
M  CHG  2  19   1  21  -1
M  END
>  <distance_score>  (160) 
0.774687

>  <smiles>  (160) 
Cn1nc(C(=O)NC2(c3cocn3)CC2)c2cc([N+](=O)[O-])ccc21

>  <fragmenstein_error>  (160) 
nan

>  <fragmenstein_runtime>  (160) 
nan

>  <gnina_score_min>  (160) 
6.369

>  <orig_smiles>  (160) 
nan

>  <fragmenstein_mode>  (160) 
nan

>  <rmsd(smina/fragmenstein)>  (160) 
0.305

>  <inspiration_score>  (160) 
None

>  <name>  (160) 
P498984

>  <ref_pdb>  (160) 
A2290a

>  <ref_mols>  (160) 
A3403a,A2290a

>  <subsites>  (160) 
None

>  <tags>  (160) 
openbind_a71ev2a_c1_elabs_filtered,openbind_a71ev2a_c1_elab_chemspace_filtered_scored

>  <inchikey>  (160) 
OELIHJBZHDXMAL-UHFFFAOYSA-N

>  <scratch_subdir>  (160) 
nan

>  <smina_score_min>  (160) 
-7.03

>  <energy_score>  (160) 
-25.320006

>  <Energy>  (160) 
nan

>  <fragmenstein_outcome>  (160) 
nan

>  <alias>  (160) 
None

>  <HIPPO Pose ID>  (160) 
498984

>  <exports>  (160) 
['/opt/xchem-fragalysis-2/maxwin/openbind-hippo/a71ev2a/cycle_01/bulkdock/openbind_a71ev2a_c1_elab_chemspace.sdf', '/opt/xchem-fragalysis-2/maxwin/openbind-hippo/a71ev2a/cycle_01/syndirella/elabs/openbind_a71ev2a_c1_elab_chemspace_filtered.sdf']

>  <HIPPO Compound ID>  (160) 
299274

>  <gnina_score>  (160) 
6.273

$$$$
P499077
     RDKit          3D

 22 24  0  0  0  0  0  0  0  0999 V2000
   12.6743   14.4448   23.8970 C   0  0  0  0  0  0  0  0  0  0  0  0
   11.8982   14.1553   22.6275 C   0  0  2  0  0  0  0  0  0  0  0  0
   11.5191   15.4506   21.9347 C   0  0  0  0  0  0  0  0  0  0  0  0
   11.1853   15.2828   20.5473 N   0  0  0  0  0  0  0  0  0  0  0  0
   11.9419   14.6855   19.5967 C   0  0  0  0  0  0  0  0  0  0  0  0
   11.4720   14.9811   18.4184 N   0  0  0  0  0  0  0  0  0  0  0  0
   10.4327   15.8262   18.7083 C   0  0  0  0  0  0  0  0  0  0  0  0
   10.1803   15.9850   20.0081 N   0  0  0  0  0  0  0  0  0  0  0  0
   10.7703   13.3499   22.9657 N   0  0  0  0  0  0  0  0  0  0  0  0
    9.6387   13.5928   23.9685 C   0  0  0  0  0  0  0  0  0  0  0  0
    9.3998   14.5228   24.6264 O   0  0  0  0  0  0  0  0  0  0  0  0
    8.8884   12.3380   24.0613 C   0  0  0  0  0  0  0  0  0  0  0  0
    9.3272   11.2541   23.3925 N   0  0  0  0  0  0  0  0  0  0  0  0
    8.5983   10.2456   23.8800 N   0  0  0  0  0  0  0  0  0  0  0  0
    8.9699    8.9015   23.5110 C   0  0  0  0  0  0  0  0  0  0  0  0
    7.6450   10.6492   24.7826 C   0  0  0  0  0  0  0  0  0  0  0  0
    6.6835    9.9501   25.5139 C   0  0  0  0  0  0  0  0  0  0  0  0
    5.9005   10.6654   26.4215 C   0  0  0  0  0  0  0  0  0  0  0  0
    6.0466   12.0386   26.5511 C   0  0  0  0  0  0  0  0  0  0  0  0
    5.2823   12.6934   27.4359 F   0  0  0  0  0  0  0  0  0  0  0  0
    6.9875   12.7429   25.8063 C   0  0  0  0  0  0  0  0  0  0  0  0
    7.8025   12.0275   24.9097 C   0  0  0  0  0  0  0  0  0  0  0  0
  2  1  1  1
  2  3  1  0
  3  4  1  0
  4  5  1  0
  5  6  2  0
  6  7  1  0
  7  8  2  0
  2  9  1  0
  9 10  1  0
 10 11  2  0
 10 12  1  0
 12 13  2  0
 13 14  1  0
 14 15  1  0
 14 16  1  0
 16 17  2  0
 17 18  1  0
 18 19  2  0
 19 20  1  0
 19 21  1  0
 21 22  2  0
  8  4  1  0
 22 12  1  0
 22 16  1  0
M  END
>  <distance_score>  (161) 
0.657831

>  <smiles>  (161) 
C[C@H](Cn1cncn1)NC(=O)c1nn(C)c2ccc(F)cc12

>  <fragmenstein_error>  (161) 
nan

>  <fragmenstein_runtime>  (161) 
nan

>  <gnina_score_min>  (161) 
6.12

>  <orig_smiles>  (161) 
nan

>  <fragmenstein_mode>  (161) 
nan

>  <rmsd(smina/fragmenstein)>  (161) 
0.681

>  <inspiration_score>  (161) 
None

>  <name>  (161) 
P499077

>  <ref_pdb>  (161) 
A3176a

>  <ref_mols>  (161) 
A3417a,A3176a

>  <subsites>  (161) 
None

>  <tags>  (161) 
openbind_a71ev2a_c1_elabs_filtered,openbind_a71ev2a_c1_elab_chemspace_filtered_scored

>  <inchikey>  (161) 
NZNSFRSFUMMPLN-SECBINFHSA-N

>  <scratch_subdir>  (161) 
nan

>  <smina_score_min>  (161) 
-7.474

>  <energy_score>  (161) 
-12.095388

>  <Energy>  (161) 
nan

>  <fragmenstein_outcome>  (161) 
nan

>  <alias>  (161) 
None

>  <HIPPO Pose ID>  (161) 
499077

>  <exports>  (161) 
['/opt/xchem-fragalysis-2/maxwin/openbind-hippo/a71ev2a/cycle_01/bulkdock/openbind_a71ev2a_c1_elab_chemspace.sdf', '/opt/xchem-fragalysis-2/maxwin/openbind-hippo/a71ev2a/cycle_01/syndirella/elabs/openbind_a71ev2a_c1_elab_chemspace_filtered.sdf']

>  <HIPPO Compound ID>  (161) 
299790

>  <gnina_score>  (161) 
5.973

$$$$
P499079
     RDKit          3D

 22 25  0  0  0  0  0  0  0  0999 V2000
    9.0771    9.1353   23.3039 C   0  0  0  0  0  0  0  0  0  0  0  0
    8.7584   10.3980   23.9309 N   0  0  0  0  0  0  0  0  0  0  0  0
    9.5314   11.4511   23.6504 N   0  0  0  0  0  0  0  0  0  0  0  0
    9.0487   12.4584   24.4035 C   0  0  0  0  0  0  0  0  0  0  0  0
    9.6724   13.7990   24.3770 C   0  0  0  0  0  0  0  0  0  0  0  0
    9.4095   14.6456   25.1520 O   0  0  0  0  0  0  0  0  0  0  0  0
   10.5558   13.8326   23.1649 N   0  0  0  0  0  0  0  0  0  0  0  0
   11.4603   14.9346   22.6226 C   0  0  0  0  0  0  0  0  0  0  0  0
   10.5114   15.4493   21.6284 C   0  0  0  0  0  0  0  0  0  0  0  0
   10.9301   15.4919   20.2469 N   0  0  0  0  0  0  0  0  0  0  0  0
   11.8516   14.7119   19.6264 C   0  0  0  0  0  0  0  0  0  0  0  0
   11.9913   15.1130   18.3903 N   0  0  0  0  0  0  0  0  0  0  0  0
   11.0932   16.1493   18.3113 C   0  0  0  0  0  0  0  0  0  0  0  0
   10.3515   16.3441   19.4005 N   0  0  0  0  0  0  0  0  0  0  0  0
    9.7573   14.2361   21.8921 C   0  0  0  0  0  0  0  0  0  0  0  0
    7.9091   12.0407   25.1339 C   0  0  0  0  0  0  0  0  0  0  0  0
    7.0001   12.6556   26.0147 C   0  0  0  0  0  0  0  0  0  0  0  0
    6.0243   11.8665   26.6160 C   0  0  0  0  0  0  0  0  0  0  0  0
    5.1817   12.4208   27.4982 F   0  0  0  0  0  0  0  0  0  0  0  0
    5.9287   10.5080   26.3536 C   0  0  0  0  0  0  0  0  0  0  0  0
    6.7816    9.8991   25.4315 C   0  0  0  0  0  0  0  0  0  0  0  0
    7.7696   10.6846   24.8373 C   0  0  0  0  0  0  0  0  0  0  0  0
  1  2  1  0
  2  3  1  0
  3  4  2  0
  4  5  1  0
  5  6  2  0
  5  7  1  0
  7  8  1  0
  8  9  1  0
  9 10  1  0
 10 11  1  0
 11 12  2  0
 12 13  1  0
 13 14  2  0
  9 15  1  0
  4 16  1  0
 16 17  2  0
 17 18  1  0
 18 19  1  0
 18 20  2  0
 20 21  1  0
 21 22  2  0
 22  2  1  0
 15  7  1  0
 22 16  1  0
 14 10  1  0
M  END
>  <distance_score>  (162) 
0.963489

>  <smiles>  (162) 
Cn1nc(C(=O)N2CC(n3cncn3)C2)c2cc(F)ccc21

>  <fragmenstein_error>  (162) 
nan

>  <fragmenstein_runtime>  (162) 
nan

>  <gnina_score_min>  (162) 
5.696

>  <orig_smiles>  (162) 
nan

>  <fragmenstein_mode>  (162) 
nan

>  <rmsd(smina/fragmenstein)>  (162) 
0.396

>  <inspiration_score>  (162) 
None

>  <name>  (162) 
P499079

>  <ref_pdb>  (162) 
A3176a

>  <ref_mols>  (162) 
A3417a,A3176a

>  <subsites>  (162) 
None

>  <tags>  (162) 
openbind_a71ev2a_c1_elabs_filtered,openbind_a71ev2a_c1_elab_chemspace_filtered_scored

>  <inchikey>  (162) 
KAUTUNFKTUEHRF-UHFFFAOYSA-N

>  <scratch_subdir>  (162) 
nan

>  <smina_score_min>  (162) 
-6.626

>  <energy_score>  (162) 
-5.299478

>  <Energy>  (162) 
nan

>  <fragmenstein_outcome>  (162) 
nan

>  <alias>  (162) 
None

>  <HIPPO Pose ID>  (162) 
499079

>  <exports>  (162) 
['/opt/xchem-fragalysis-2/maxwin/openbind-hippo/a71ev2a/cycle_01/bulkdock/openbind_a71ev2a_c1_elab_chemspace.sdf', '/opt/xchem-fragalysis-2/maxwin/openbind-hippo/a71ev2a/cycle_01/syndirella/elabs/openbind_a71ev2a_c1_elab_chemspace_filtered.sdf']

>  <HIPPO Compound ID>  (162) 
299793

>  <gnina_score>  (162) 
5.745

$$$$
P499080
     RDKit          3D

 22 24  0  0  0  0  0  0  0  0999 V2000
    9.2141    9.1111   23.1688 C   0  0  0  0  0  0  0  0  0  0  0  0
    8.8997   10.4106   23.7190 N   0  0  0  0  0  0  0  0  0  0  0  0
    9.6625   11.4608   23.3669 N   0  0  0  0  0  0  0  0  0  0  0  0
    9.1780   12.4901   24.0905 C   0  0  0  0  0  0  0  0  0  0  0  0
    9.8597   13.8022   24.0877 C   0  0  0  0  0  0  0  0  0  0  0  0
    9.5469   14.6545   24.8180 O   0  0  0  0  0  0  0  0  0  0  0  0
   11.0018   13.7381   23.0639 N   0  0  0  0  0  0  0  0  0  0  0  0
   11.9444   14.7421   22.6521 C   0  0  0  0  0  0  0  0  0  0  0  0
   12.1898   14.7793   21.1530 C   0  0  0  0  0  0  0  0  0  0  0  0
   11.1184   15.3253   20.3603 N   0  0  0  0  0  0  0  0  0  0  0  0
   10.9661   15.1891   19.0213 C   0  0  0  0  0  0  0  0  0  0  0  0
   10.0912   16.0664   18.5991 N   0  0  0  0  0  0  0  0  0  0  0  0
    9.7889   16.7784   19.7128 C   0  0  0  0  0  0  0  0  0  0  0  0
    8.8182   18.3824   19.6197 Br  0  0  0  0  0  0  0  0  0  0  0  0
   10.3277   16.2951   20.8350 N   0  0  0  0  0  0  0  0  0  0  0  0
    8.0497   12.0944   24.8587 C   0  0  0  0  0  0  0  0  0  0  0  0
    7.1630   12.7296   25.7499 C   0  0  0  0  0  0  0  0  0  0  0  0
    6.2050   11.9560   26.4016 C   0  0  0  0  0  0  0  0  0  0  0  0
    5.3786   12.5364   27.2824 F   0  0  0  0  0  0  0  0  0  0  0  0
    6.1118   10.5876   26.1907 C   0  0  0  0  0  0  0  0  0  0  0  0
    6.9617    9.9490   25.2857 C   0  0  0  0  0  0  0  0  0  0  0  0
    7.9232   10.7251   24.6310 C   0  0  0  0  0  0  0  0  0  0  0  0
  1  2  1  0
  2  3  1  0
  3  4  2  0
  4  5  1  0
  5  6  2  0
  5  7  1  0
  7  8  1  0
  8  9  1  0
  9 10  1  0
 10 11  1  0
 11 12  2  0
 12 13  1  0
 13 14  1  0
 13 15  2  0
  4 16  1  0
 16 17  2  0
 17 18  1  0
 18 19  1  0
 18 20  2  0
 20 21  1  0
 21 22  2  0
 22  2  1  0
 15 10  1  0
 22 16  1  0
M  END
>  <distance_score>  (163) 
0.634656

>  <smiles>  (163) 
Cn1nc(C(=O)NCCn2cnc(Br)n2)c2cc(F)ccc21

>  <fragmenstein_error>  (163) 
nan

>  <fragmenstein_runtime>  (163) 
nan

>  <gnina_score_min>  (163) 
6.137

>  <orig_smiles>  (163) 
nan

>  <fragmenstein_mode>  (163) 
nan

>  <rmsd(smina/fragmenstein)>  (163) 
0.342

>  <inspiration_score>  (163) 
None

>  <name>  (163) 
P499080

>  <ref_pdb>  (163) 
A3176a

>  <ref_mols>  (163) 
A3417a,A3176a

>  <subsites>  (163) 
None

>  <tags>  (163) 
openbind_a71ev2a_c1_elabs_filtered,openbind_a71ev2a_c1_elab_chemspace_filtered_scored

>  <inchikey>  (163) 
CVWBZYGDQLKTJC-UHFFFAOYSA-N

>  <scratch_subdir>  (163) 
nan

>  <smina_score_min>  (163) 
-7.255

>  <energy_score>  (163) 
-1.660298

>  <Energy>  (163) 
nan

>  <fragmenstein_outcome>  (163) 
nan

>  <alias>  (163) 
None

>  <HIPPO Pose ID>  (163) 
499080

>  <exports>  (163) 
['/opt/xchem-fragalysis-2/maxwin/openbind-hippo/a71ev2a/cycle_01/bulkdock/openbind_a71ev2a_c1_elab_chemspace.sdf', '/opt/xchem-fragalysis-2/maxwin/openbind-hippo/a71ev2a/cycle_01/syndirella/elabs/openbind_a71ev2a_c1_elab_chemspace_filtered.sdf']

>  <HIPPO Compound ID>  (163) 
299794

>  <gnina_score>  (163) 
6.23

$$$$
P499081
     RDKit          3D

 23 26  0  0  0  0  0  0  0  0999 V2000
    9.1472    9.0790   23.2042 C   0  0  0  0  0  0  0  0  0  0  0  0
    8.7529   10.3095   23.8495 N   0  0  0  0  0  0  0  0  0  0  0  0
    9.4234   11.4354   23.5492 N   0  0  0  0  0  0  0  0  0  0  0  0
    8.9037   12.3478   24.3906 C   0  0  0  0  0  0  0  0  0  0  0  0
    9.3836   13.7188   24.4406 C   0  0  0  0  0  0  0  0  0  0  0  0
    9.2053   14.3959   25.3667 O   0  0  0  0  0  0  0  0  0  0  0  0
   10.0046   14.0374   23.0919 N   0  0  0  0  0  0  0  0  0  0  0  0
   10.4505   15.2590   22.5564 C   0  0  0  0  0  0  0  0  0  0  0  0
   11.2436   15.2001   21.3008 C   0  0  0  0  0  0  0  0  0  0  0  0
   10.5902   15.9578   20.1967 N   0  0  0  0  0  0  0  0  0  0  0  0
   10.7256   15.7883   18.8601 C   0  0  0  0  0  0  0  0  0  0  0  0
   10.0461   16.7334   18.2426 N   0  0  0  0  0  0  0  0  0  0  0  0
    9.5106   17.4561   19.2512 C   0  0  0  0  0  0  0  0  0  0  0  0
    9.7932   16.9988   20.4637 N   0  0  0  0  0  0  0  0  0  0  0  0
   12.7333   15.3453   21.5685 C   0  0  0  0  0  0  0  0  0  0  0  0
   12.1973   14.0581   21.0536 C   0  0  0  0  0  0  0  0  0  0  0  0
    7.8166   11.8438   25.1284 C   0  0  0  0  0  0  0  0  0  0  0  0
    6.8921   12.3845   26.0421 C   0  0  0  0  0  0  0  0  0  0  0  0
    5.9542   11.5341   26.6077 C   0  0  0  0  0  0  0  0  0  0  0  0
    5.0844   12.0096   27.5086 F   0  0  0  0  0  0  0  0  0  0  0  0
    5.9214   10.1894   26.2797 C   0  0  0  0  0  0  0  0  0  0  0  0
    6.8050    9.6599   25.3346 C   0  0  0  0  0  0  0  0  0  0  0  0
    7.7533   10.5054   24.7712 C   0  0  0  0  0  0  0  0  0  0  0  0
  1  2  1  0
  2  3  1  0
  3  4  2  0
  4  5  1  0
  5  6  2  0
  5  7  1  0
  7  8  1  0
  8  9  1  0
  9 10  1  0
 10 11  1  0
 11 12  2  0
 12 13  1  0
 13 14  2  0
  9 15  1  0
 15 16  1  0
  4 17  1  0
 17 18  2  0
 18 19  1  0
 19 20  1  0
 19 21  2  0
 21 22  1  0
 22 23  2  0
 23  2  1  0
 16  9  1  0
 23 17  1  0
 14 10  1  0
M  END
>  <distance_score>  (164) 
1.018025

>  <smiles>  (164) 
Cn1nc(C(=O)NCC2(n3cncn3)CC2)c2cc(F)ccc21

>  <fragmenstein_error>  (164) 
nan

>  <fragmenstein_runtime>  (164) 
nan

>  <gnina_score_min>  (164) 
6.203

>  <orig_smiles>  (164) 
nan

>  <fragmenstein_mode>  (164) 
nan

>  <rmsd(smina/fragmenstein)>  (164) 
0.928

>  <inspiration_score>  (164) 
None

>  <name>  (164) 
P499081

>  <ref_pdb>  (164) 
A3176a

>  <ref_mols>  (164) 
A3417a,A3176a

>  <subsites>  (164) 
None

>  <tags>  (164) 
openbind_a71ev2a_c1_elabs_filtered,openbind_a71ev2a_c1_elab_chemspace_filtered_scored

>  <inchikey>  (164) 
QQXHNYZCKARTOU-UHFFFAOYSA-N

>  <scratch_subdir>  (164) 
nan

>  <smina_score_min>  (164) 
-7.556

>  <energy_score>  (164) 
-32.156322

>  <Energy>  (164) 
nan

>  <fragmenstein_outcome>  (164) 
nan

>  <alias>  (164) 
None

>  <HIPPO Pose ID>  (164) 
499081

>  <exports>  (164) 
['/opt/xchem-fragalysis-2/maxwin/openbind-hippo/a71ev2a/cycle_01/bulkdock/openbind_a71ev2a_c1_elab_chemspace.sdf', '/opt/xchem-fragalysis-2/maxwin/openbind-hippo/a71ev2a/cycle_01/syndirella/elabs/openbind_a71ev2a_c1_elab_chemspace_filtered.sdf']

>  <HIPPO Compound ID>  (164) 
299797

>  <gnina_score>  (164) 
6.009

$$$$
P499084
     RDKit          3D

 23 25  0  0  0  0  0  0  0  0999 V2000
   12.6314   14.7459   23.2244 C   0  0  0  0  0  0  0  0  0  0  0  0
   11.3662   14.9928   22.4163 C   0  0  2  0  0  0  0  0  0  0  0  0
   10.4453   13.9550   22.7730 N   0  0  0  0  0  0  0  0  0  0  0  0
    9.4321   13.8736   23.9205 C   0  0  0  0  0  0  0  0  0  0  0  0
    9.1268   14.6674   24.7159 O   0  0  0  0  0  0  0  0  0  0  0  0
    8.8958   12.5054   23.9802 C   0  0  0  0  0  0  0  0  0  0  0  0
    9.4378   11.5058   23.2572 N   0  0  0  0  0  0  0  0  0  0  0  0
    8.8059   10.4025   23.6919 N   0  0  0  0  0  0  0  0  0  0  0  0
    9.2220    9.1179   23.1774 C   0  0  0  0  0  0  0  0  0  0  0  0
    7.8304   10.6602   24.6221 C   0  0  0  0  0  0  0  0  0  0  0  0
    6.9362    9.8329   25.3036 C   0  0  0  0  0  0  0  0  0  0  0  0
    6.0709   10.4212   26.2285 C   0  0  0  0  0  0  0  0  0  0  0  0
    6.0893   11.7920   26.4394 C   0  0  0  0  0  0  0  0  0  0  0  0
    5.2512   12.3226   27.3401 F   0  0  0  0  0  0  0  0  0  0  0  0
    6.9733   12.6193   25.7537 C   0  0  0  0  0  0  0  0  0  0  0  0
    7.8600   12.0356   24.8277 C   0  0  0  0  0  0  0  0  0  0  0  0
   11.6381   15.2694   20.9251 C   0  0  1  0  0  0  0  0  0  0  0  0
   12.2415   14.1472   20.1185 C   0  0  0  0  0  0  0  0  0  0  0  0
   10.5363   15.8919   20.2050 N   0  0  0  0  0  0  0  0  0  0  0  0
   10.5420   16.3201   18.9079 C   0  0  0  0  0  0  0  0  0  0  0  0
    9.6753   17.2970   18.7672 N   0  0  0  0  0  0  0  0  0  0  0  0
    9.1073   17.3738   20.0000 C   0  0  0  0  0  0  0  0  0  0  0  0
    9.5230   16.4548   20.8714 N   0  0  0  0  0  0  0  0  0  0  0  0
  2  1  1  1
  2  3  1  0
  3  4  1  0
  4  5  2  0
  4  6  1  0
  6  7  2  0
  7  8  1  0
  8  9  1  0
  8 10  1  0
 10 11  2  0
 11 12  1  0
 12 13  2  0
 13 14  1  0
 13 15  1  0
 15 16  2  0
  2 17  1  0
 17 18  1  6
 17 19  1  0
 19 20  1  0
 20 21  2  0
 21 22  1  0
 22 23  2  0
 16  6  1  0
 23 19  1  0
 16 10  1  0
M  END
>  <distance_score>  (165) 
0.896814

>  <smiles>  (165) 
C[C@H](NC(=O)c1nn(C)c2ccc(F)cc12)[C@@H](C)n1cncn1

>  <fragmenstein_error>  (165) 
nan

>  <fragmenstein_runtime>  (165) 
nan

>  <gnina_score_min>  (165) 
6.252

>  <orig_smiles>  (165) 
nan

>  <fragmenstein_mode>  (165) 
nan

>  <rmsd(smina/fragmenstein)>  (165) 
0.876

>  <inspiration_score>  (165) 
None

>  <name>  (165) 
P499084

>  <ref_pdb>  (165) 
A3176a

>  <ref_mols>  (165) 
A3417a,A3176a

>  <subsites>  (165) 
None

>  <tags>  (165) 
openbind_a71ev2a_c1_elabs_filtered,openbind_a71ev2a_c1_elab_chemspace_filtered_scored

>  <inchikey>  (165) 
CNUISLGIJOAKIF-VHSXEESVSA-N

>  <scratch_subdir>  (165) 
nan

>  <smina_score_min>  (165) 
-7.415

>  <energy_score>  (165) 
-28.044021

>  <Energy>  (165) 
nan

>  <fragmenstein_outcome>  (165) 
nan

>  <alias>  (165) 
None

>  <HIPPO Pose ID>  (165) 
499084

>  <exports>  (165) 
['/opt/xchem-fragalysis-2/maxwin/openbind-hippo/a71ev2a/cycle_01/bulkdock/openbind_a71ev2a_c1_elab_chemspace.sdf', '/opt/xchem-fragalysis-2/maxwin/openbind-hippo/a71ev2a/cycle_01/syndirella/elabs/openbind_a71ev2a_c1_elab_chemspace_filtered.sdf']

>  <HIPPO Compound ID>  (165) 
299800

>  <gnina_score>  (165) 
6.142

$$$$
P499086
     RDKit          3D

 23 25  0  0  0  0  0  0  0  0999 V2000
   12.4413   14.5479   24.9609 C   0  0  0  0  0  0  0  0  0  0  0  0
   12.6853   14.4671   23.4576 C   0  0  0  0  0  0  0  0  0  0  0  0
   11.4614   14.7944   22.6074 C   0  0  1  0  0  0  0  0  0  0  0  0
   11.8021   14.8492   21.1123 C   0  0  0  0  0  0  0  0  0  0  0  0
   10.7923   15.5121   20.3141 N   0  0  0  0  0  0  0  0  0  0  0  0
   10.8243   15.7507   18.9773 C   0  0  0  0  0  0  0  0  0  0  0  0
    9.9801   16.7193   18.6943 N   0  0  0  0  0  0  0  0  0  0  0  0
    9.4235   17.0142   19.8963 C   0  0  0  0  0  0  0  0  0  0  0  0
    9.8354   16.2457   20.9007 N   0  0  0  0  0  0  0  0  0  0  0  0
   10.4690   13.8132   22.9353 N   0  0  0  0  0  0  0  0  0  0  0  0
    9.3448   13.8441   23.9728 C   0  0  0  0  0  0  0  0  0  0  0  0
    8.9916   14.7002   24.6779 O   0  0  0  0  0  0  0  0  0  0  0  0
    8.7806   12.4902   24.0342 C   0  0  0  0  0  0  0  0  0  0  0  0
    9.3374   11.4874   23.3251 N   0  0  0  0  0  0  0  0  0  0  0  0
    8.6979   10.3859   23.7457 N   0  0  0  0  0  0  0  0  0  0  0  0
    9.1107    9.1055   23.2162 C   0  0  0  0  0  0  0  0  0  0  0  0
    7.7283   10.6471   24.6821 C   0  0  0  0  0  0  0  0  0  0  0  0
    6.8409    9.8221   25.3718 C   0  0  0  0  0  0  0  0  0  0  0  0
    5.9869   10.4101   26.3072 C   0  0  0  0  0  0  0  0  0  0  0  0
    6.0025   11.7814   26.5139 C   0  0  0  0  0  0  0  0  0  0  0  0
    5.1733   12.3121   27.4229 F   0  0  0  0  0  0  0  0  0  0  0  0
    6.8741   12.6098   25.8151 C   0  0  0  0  0  0  0  0  0  0  0  0
    7.7514   12.0243   24.8829 C   0  0  0  0  0  0  0  0  0  0  0  0
  1  2  1  0
  3  2  1  1
  3  4  1  0
  4  5  1  0
  5  6  1  0
  6  7  2  0
  7  8  1  0
  8  9  2  0
  3 10  1  0
 10 11  1  0
 11 12  2  0
 11 13  1  0
 13 14  2  0
 14 15  1  0
 15 16  1  0
 15 17  1  0
 17 18  2  0
 18 19  1  0
 19 20  2  0
 20 21  1  0
 20 22  1  0
 22 23  2  0
  9  5  1  0
 23 13  1  0
 23 17  1  0
M  END
>  <distance_score>  (166) 
0.736833

>  <smiles>  (166) 
CC[C@@H](Cn1cncn1)NC(=O)c1nn(C)c2ccc(F)cc12

>  <fragmenstein_error>  (166) 
nan

>  <fragmenstein_runtime>  (166) 
nan

>  <gnina_score_min>  (166) 
6.237

>  <orig_smiles>  (166) 
nan

>  <fragmenstein_mode>  (166) 
nan

>  <rmsd(smina/fragmenstein)>  (166) 
0.609

>  <inspiration_score>  (166) 
None

>  <name>  (166) 
P499086

>  <ref_pdb>  (166) 
A3176a

>  <ref_mols>  (166) 
A3417a,A3176a

>  <subsites>  (166) 
None

>  <tags>  (166) 
openbind_a71ev2a_c1_elabs_filtered,openbind_a71ev2a_c1_elab_chemspace_filtered_scored

>  <inchikey>  (166) 
UMWRWIISYLUZJH-NSHDSACASA-N

>  <scratch_subdir>  (166) 
nan

>  <smina_score_min>  (166) 
-7.27

>  <energy_score>  (166) 
-27.110731

>  <Energy>  (166) 
nan

>  <fragmenstein_outcome>  (166) 
nan

>  <alias>  (166) 
None

>  <HIPPO Pose ID>  (166) 
499086

>  <exports>  (166) 
['/opt/xchem-fragalysis-2/maxwin/openbind-hippo/a71ev2a/cycle_01/bulkdock/openbind_a71ev2a_c1_elab_chemspace.sdf', '/opt/xchem-fragalysis-2/maxwin/openbind-hippo/a71ev2a/cycle_01/syndirella/elabs/openbind_a71ev2a_c1_elab_chemspace_filtered.sdf']

>  <HIPPO Compound ID>  (166) 
299802

>  <gnina_score>  (166) 
6.3

$$$$
P499088
     RDKit          3D

 23 25  0  0  0  0  0  0  0  0999 V2000
    8.8323   18.2227   20.0942 C   0  0  0  0  0  0  0  0  0  0  0  0
    9.6307   16.9922   20.0453 C   0  0  0  0  0  0  0  0  0  0  0  0
   10.0669   16.5147   18.8576 N   0  0  0  0  0  0  0  0  0  0  0  0
   10.9257   15.5896   19.2046 C   0  0  0  0  0  0  0  0  0  0  0  0
   11.8238   14.8920   18.2978 C   0  0  0  0  0  0  0  0  0  0  0  0
   10.9668   15.4869   20.5629 N   0  0  0  0  0  0  0  0  0  0  0  0
   12.0371   14.8933   21.3324 C   0  0  0  0  0  0  0  0  0  0  0  0
   11.8028   14.7767   22.8240 C   0  0  0  0  0  0  0  0  0  0  0  0
   10.7929   13.8110   23.1397 N   0  0  0  0  0  0  0  0  0  0  0  0
    9.7384   13.8007   24.2487 C   0  0  0  0  0  0  0  0  0  0  0  0
    9.4671   14.6103   25.0402 O   0  0  0  0  0  0  0  0  0  0  0  0
    9.0839   12.4798   24.2167 C   0  0  0  0  0  0  0  0  0  0  0  0
    9.5959   11.4808   23.4686 N   0  0  0  0  0  0  0  0  0  0  0  0
    8.8441   10.4107   23.7751 N   0  0  0  0  0  0  0  0  0  0  0  0
    9.1853    9.1354   23.1849 C   0  0  0  0  0  0  0  0  0  0  0  0
    7.8574   10.6833   24.6902 C   0  0  0  0  0  0  0  0  0  0  0  0
    6.9022    9.8769   25.3125 C   0  0  0  0  0  0  0  0  0  0  0  0
    6.0395   10.4750   26.2331 C   0  0  0  0  0  0  0  0  0  0  0  0
    6.1077   11.8379   26.4834 C   0  0  0  0  0  0  0  0  0  0  0  0
    5.2647   12.3782   27.3740 F   0  0  0  0  0  0  0  0  0  0  0  0
    7.0566   12.6441   25.8615 C   0  0  0  0  0  0  0  0  0  0  0  0
    7.9600   12.0459   24.9625 C   0  0  0  0  0  0  0  0  0  0  0  0
   10.0715   16.3170   21.1127 N   0  0  0  0  0  0  0  0  0  0  0  0
  1  2  1  0
  2  3  1  0
  3  4  2  0
  4  5  1  0
  4  6  1  0
  6  7  1  0
  7  8  1  0
  8  9  1  0
  9 10  1  0
 10 11  2  0
 10 12  1  0
 12 13  2  0
 13 14  1  0
 14 15  1  0
 14 16  1  0
 16 17  2  0
 17 18  1  0
 18 19  2  0
 19 20  1  0
 19 21  1  0
 21 22  2  0
  6 23  1  0
 23  2  2  0
 22 12  1  0
 22 16  1  0
M  END
>  <distance_score>  (167) 
0.802731

>  <smiles>  (167) 
Cc1nc(C)n(CCNC(=O)c2nn(C)c3ccc(F)cc23)n1

>  <fragmenstein_error>  (167) 
nan

>  <fragmenstein_runtime>  (167) 
nan

>  <gnina_score_min>  (167) 
6.073

>  <orig_smiles>  (167) 
nan

>  <fragmenstein_mode>  (167) 
nan

>  <rmsd(smina/fragmenstein)>  (167) 
0.27

>  <inspiration_score>  (167) 
None

>  <name>  (167) 
P499088

>  <ref_pdb>  (167) 
A3176a

>  <ref_mols>  (167) 
A3417a,A3176a

>  <subsites>  (167) 
None

>  <tags>  (167) 
openbind_a71ev2a_c1_elabs_filtered,openbind_a71ev2a_c1_elab_chemspace_filtered_scored

>  <inchikey>  (167) 
RLBKBXWOUWYHEY-UHFFFAOYSA-N

>  <scratch_subdir>  (167) 
nan

>  <smina_score_min>  (167) 
-7.206

>  <energy_score>  (167) 
-5.27545

>  <Energy>  (167) 
nan

>  <fragmenstein_outcome>  (167) 
nan

>  <alias>  (167) 
None

>  <HIPPO Pose ID>  (167) 
499088

>  <exports>  (167) 
['/opt/xchem-fragalysis-2/maxwin/openbind-hippo/a71ev2a/cycle_01/bulkdock/openbind_a71ev2a_c1_elab_chemspace.sdf', '/opt/xchem-fragalysis-2/maxwin/openbind-hippo/a71ev2a/cycle_01/syndirella/elabs/openbind_a71ev2a_c1_elab_chemspace_filtered.sdf']

>  <HIPPO Compound ID>  (167) 
299804

>  <gnina_score>  (167) 
6.091

$$$$
P499091
     RDKit          3D

 24 27  0  0  0  0  0  0  0  0999 V2000
    9.9651   17.2549   17.8139 C   0  0  0  0  0  0  0  0  0  0  0  0
   10.2320   16.1224   18.6967 C   0  0  0  0  0  0  0  0  0  0  0  0
   11.4234   15.4451   18.7460 N   0  0  0  0  0  0  0  0  0  0  0  0
   11.3802   14.8978   19.9335 C   0  0  0  0  0  0  0  0  0  0  0  0
   10.2119   15.2310   20.5347 N   0  0  0  0  0  0  0  0  0  0  0  0
    9.4051   15.8580   19.7032 N   0  0  0  0  0  0  0  0  0  0  0  0
   10.1791   15.7123   21.8817 C   0  0  0  0  0  0  0  0  0  0  0  0
   11.1786   15.0420   22.7885 C   0  0  1  0  0  0  0  0  0  0  0  0
   10.5315   13.8745   23.2840 N   0  0  0  0  0  0  0  0  0  0  0  0
    9.5935   13.6900   24.4719 C   0  0  0  0  0  0  0  0  0  0  0  0
    9.2543   14.4439   25.2886 O   0  0  0  0  0  0  0  0  0  0  0  0
    9.0421   12.3410   24.3953 C   0  0  0  0  0  0  0  0  0  0  0  0
    9.5830   11.4039   23.5945 N   0  0  0  0  0  0  0  0  0  0  0  0
    8.8378   10.3076   23.8302 N   0  0  0  0  0  0  0  0  0  0  0  0
    9.1910    9.0730   23.1669 C   0  0  0  0  0  0  0  0  0  0  0  0
    7.8272   10.5257   24.7356 C   0  0  0  0  0  0  0  0  0  0  0  0
    6.8612    9.6922   25.2914 C   0  0  0  0  0  0  0  0  0  0  0  0
    5.9701   10.2378   26.2191 C   0  0  0  0  0  0  0  0  0  0  0  0
    6.0094   11.5867   26.5307 C   0  0  0  0  0  0  0  0  0  0  0  0
    5.1324   12.0804   27.4152 F   0  0  0  0  0  0  0  0  0  0  0  0
    6.9660   12.4241   25.9726 C   0  0  0  0  0  0  0  0  0  0  0  0
    7.9067   11.8668   25.0850 C   0  0  0  0  0  0  0  0  0  0  0  0
   12.5309   14.8510   22.1472 C   0  0  0  0  0  0  0  0  0  0  0  0
   12.4776   14.3303   20.7119 C   0  0  0  0  0  0  0  0  0  0  0  0
  1  2  1  0
  2  3  1  0
  3  4  2  0
  4  5  1  0
  5  6  1  0
  5  7  1  0
  7  8  1  0
  8  9  1  6
  9 10  1  0
 10 11  2  0
 10 12  1  0
 12 13  2  0
 13 14  1  0
 14 15  1  0
 14 16  1  0
 16 17  2  0
 17 18  1  0
 18 19  2  0
 19 20  1  0
 19 21  1  0
 21 22  2  0
  8 23  1  0
 23 24  1  0
  6  2  2  0
 22 12  1  0
 24  4  1  0
 22 16  1  0
M  END
>  <distance_score>  (168) 
1.058755

>  <smiles>  (168) 
Cc1nc2n(n1)C[C@@H](NC(=O)c1nn(C)c3ccc(F)cc13)CC2

>  <fragmenstein_error>  (168) 
nan

>  <fragmenstein_runtime>  (168) 
nan

>  <gnina_score_min>  (168) 
6.405

>  <orig_smiles>  (168) 
nan

>  <fragmenstein_mode>  (168) 
nan

>  <rmsd(smina/fragmenstein)>  (168) 
1.596

>  <inspiration_score>  (168) 
None

>  <name>  (168) 
P499091

>  <ref_pdb>  (168) 
A3176a

>  <ref_mols>  (168) 
A3417a,A3176a

>  <subsites>  (168) 
None

>  <tags>  (168) 
openbind_a71ev2a_c1_elabs_filtered,openbind_a71ev2a_c1_elab_chemspace_filtered_scored

>  <inchikey>  (168) 
GXBAPFAHLDNXDK-NSHDSACASA-N

>  <scratch_subdir>  (168) 
nan

>  <smina_score_min>  (168) 
-7.264

>  <energy_score>  (168) 
-36.729536

>  <Energy>  (168) 
nan

>  <fragmenstein_outcome>  (168) 
nan

>  <alias>  (168) 
None

>  <HIPPO Pose ID>  (168) 
499091

>  <exports>  (168) 
['/opt/xchem-fragalysis-2/maxwin/openbind-hippo/a71ev2a/cycle_01/bulkdock/openbind_a71ev2a_c1_elab_chemspace.sdf', '/opt/xchem-fragalysis-2/maxwin/openbind-hippo/a71ev2a/cycle_01/syndirella/elabs/openbind_a71ev2a_c1_elab_chemspace_filtered.sdf']

>  <HIPPO Compound ID>  (168) 
299809

>  <gnina_score>  (168) 
6.08

$$$$
P499095
     RDKit          3D

 25 28  0  0  0  0  0  0  0  0999 V2000
    9.0083   17.3618   17.2774 C   0  0  0  0  0  0  0  0  0  0  0  0
   10.3902   17.2153   17.8381 C   0  0  0  0  0  0  0  0  0  0  0  0
   10.4732   16.0663   18.7448 C   0  0  0  0  0  0  0  0  0  0  0  0
   11.5861   15.2856   18.8649 N   0  0  0  0  0  0  0  0  0  0  0  0
   11.4305   14.7935   20.0658 C   0  0  0  0  0  0  0  0  0  0  0  0
   10.2449   15.1996   20.5824 N   0  0  0  0  0  0  0  0  0  0  0  0
    9.5522   15.8771   19.6878 N   0  0  0  0  0  0  0  0  0  0  0  0
   10.1327   15.6813   21.9269 C   0  0  0  0  0  0  0  0  0  0  0  0
   11.1117   15.0459   22.8903 C   0  0  1  0  0  0  0  0  0  0  0  0
   10.4623   13.8845   23.3888 N   0  0  0  0  0  0  0  0  0  0  0  0
    9.4615   13.7209   24.5245 C   0  0  0  0  0  0  0  0  0  0  0  0
    9.0594   14.4947   25.2915 O   0  0  0  0  0  0  0  0  0  0  0  0
    8.9481   12.3582   24.4608 C   0  0  0  0  0  0  0  0  0  0  0  0
    9.4970   11.4349   23.6474 N   0  0  0  0  0  0  0  0  0  0  0  0
    8.7757   10.3261   23.8883 N   0  0  0  0  0  0  0  0  0  0  0  0
    9.1535    9.1007   23.2235 C   0  0  0  0  0  0  0  0  0  0  0  0
    7.7620   10.5262   24.7928 C   0  0  0  0  0  0  0  0  0  0  0  0
    6.8021    9.6816   25.3392 C   0  0  0  0  0  0  0  0  0  0  0  0
    5.9097   10.2102   26.2757 C   0  0  0  0  0  0  0  0  0  0  0  0
    5.9365   11.5558   26.6006 C   0  0  0  0  0  0  0  0  0  0  0  0
    5.0562   12.0326   27.4907 F   0  0  0  0  0  0  0  0  0  0  0  0
    6.8820   12.4065   26.0468 C   0  0  0  0  0  0  0  0  0  0  0  0
    7.8259   11.8647   25.1537 C   0  0  0  0  0  0  0  0  0  0  0  0
   12.4910   14.8488   22.3161 C   0  0  0  0  0  0  0  0  0  0  0  0
   12.4673   14.2404   20.9239 C   0  0  0  0  0  0  0  0  0  0  0  0
  1  2  1  0
  2  3  1  0
  3  4  1  0
  4  5  2  0
  5  6  1  0
  6  7  1  0
  6  8  1  0
  8  9  1  0
  9 10  1  6
 10 11  1  0
 11 12  2  0
 11 13  1  0
 13 14  2  0
 14 15  1  0
 15 16  1  0
 15 17  1  0
 17 18  2  0
 18 19  1  0
 19 20  2  0
 20 21  1  0
 20 22  1  0
 22 23  2  0
  9 24  1  0
 24 25  1  0
  7  3  2  0
 23 13  1  0
 25  5  1  0
 23 17  1  0
M  END
>  <distance_score>  (169) 
1.028206

>  <smiles>  (169) 
CCc1nc2n(n1)C[C@@H](NC(=O)c1nn(C)c3ccc(F)cc13)CC2

>  <fragmenstein_error>  (169) 
nan

>  <fragmenstein_runtime>  (169) 
nan

>  <gnina_score_min>  (169) 
6.398

>  <orig_smiles>  (169) 
nan

>  <fragmenstein_mode>  (169) 
nan

>  <rmsd(smina/fragmenstein)>  (169) 
0.679

>  <inspiration_score>  (169) 
None

>  <name>  (169) 
P499095

>  <ref_pdb>  (169) 
A3176a

>  <ref_mols>  (169) 
A3417a,A3176a

>  <subsites>  (169) 
None

>  <tags>  (169) 
openbind_a71ev2a_c1_elabs_filtered,openbind_a71ev2a_c1_elab_chemspace_filtered_scored

>  <inchikey>  (169) 
WFIBCPWSXSASKQ-NSHDSACASA-N

>  <scratch_subdir>  (169) 
nan

>  <smina_score_min>  (169) 
-6.486

>  <energy_score>  (169) 
-7.873916

>  <Energy>  (169) 
nan

>  <fragmenstein_outcome>  (169) 
nan

>  <alias>  (169) 
None

>  <HIPPO Pose ID>  (169) 
499095

>  <exports>  (169) 
['/opt/xchem-fragalysis-2/maxwin/openbind-hippo/a71ev2a/cycle_01/bulkdock/openbind_a71ev2a_c1_elab_chemspace.sdf', '/opt/xchem-fragalysis-2/maxwin/openbind-hippo/a71ev2a/cycle_01/syndirella/elabs/openbind_a71ev2a_c1_elab_chemspace_filtered.sdf']

>  <HIPPO Compound ID>  (169) 
299814

>  <gnina_score>  (169) 
6.191

$$$$
P499098
     RDKit          3D

 25 27  0  0  0  0  0  0  0  0999 V2000
   13.6413   13.4522   25.5976 C   0  0  0  0  0  0  0  0  0  0  0  0
   12.9654   13.7522   24.3731 O   0  0  0  0  0  0  0  0  0  0  0  0
   12.1946   14.8827   24.3496 C   0  0  0  0  0  0  0  0  0  0  0  0
   12.1162   15.6895   25.2697 O   0  0  0  0  0  0  0  0  0  0  0  0
   11.3650   14.9561   23.0714 C   0  0  1  0  0  0  0  0  0  0  0  0
   12.2334   14.8031   21.8574 C   0  0  0  0  0  0  0  0  0  0  0  0
   11.5781   15.0091   20.5976 N   0  0  0  0  0  0  0  0  0  0  0  0
   12.0401   14.5223   19.4268 C   0  0  0  0  0  0  0  0  0  0  0  0
   11.3263   14.9859   18.4460 N   0  0  0  0  0  0  0  0  0  0  0  0
   10.4474   15.8239   19.0738 C   0  0  0  0  0  0  0  0  0  0  0  0
   10.5439   15.8378   20.4097 N   0  0  0  0  0  0  0  0  0  0  0  0
   10.3994   13.9235   23.2816 N   0  0  0  0  0  0  0  0  0  0  0  0
    9.1623   13.8916   24.1662 C   0  0  0  0  0  0  0  0  0  0  0  0
    8.6775   14.7245   24.8132 O   0  0  0  0  0  0  0  0  0  0  0  0
    8.6768   12.5111   24.1655 C   0  0  0  0  0  0  0  0  0  0  0  0
    9.3016   11.5558   23.4461 N   0  0  0  0  0  0  0  0  0  0  0  0
    8.6770   10.4196   23.7965 N   0  0  0  0  0  0  0  0  0  0  0  0
    9.1361    9.1723   23.2260 C   0  0  0  0  0  0  0  0  0  0  0  0
    7.6832   10.6151   24.7240 C   0  0  0  0  0  0  0  0  0  0  0  0
    6.8130    9.7411   25.3690 C   0  0  0  0  0  0  0  0  0  0  0  0
    5.9289   10.2682   26.3136 C   0  0  0  0  0  0  0  0  0  0  0  0
    5.8904   11.6305   26.5664 C   0  0  0  0  0  0  0  0  0  0  0  0
    5.0269   12.1000   27.4768 F   0  0  0  0  0  0  0  0  0  0  0  0
    6.7392   12.5092   25.9070 C   0  0  0  0  0  0  0  0  0  0  0  0
    7.6507   11.9820   24.9733 C   0  0  0  0  0  0  0  0  0  0  0  0
  1  2  1  0
  2  3  1  0
  3  4  2  0
  3  5  1  0
  5  6  1  6
  6  7  1  0
  7  8  1  0
  8  9  2  0
  9 10  1  0
 10 11  2  0
  5 12  1  0
 12 13  1  0
 13 14  2  0
 13 15  1  0
 15 16  2  0
 16 17  1  0
 17 18  1  0
 17 19  1  0
 19 20  2  0
 20 21  1  0
 21 22  2  0
 22 23  1  0
 22 24  1  0
 24 25  2  0
 11  7  1  0
 25 15  1  0
 25 19  1  0
M  END
>  <distance_score>  (170) 
0.826384

>  <smiles>  (170) 
COC(=O)[C@@H](Cn1cncn1)NC(=O)c1nn(C)c2ccc(F)cc12

>  <fragmenstein_error>  (170) 
nan

>  <fragmenstein_runtime>  (170) 
nan

>  <gnina_score_min>  (170) 
6.126

>  <orig_smiles>  (170) 
nan

>  <fragmenstein_mode>  (170) 
nan

>  <rmsd(smina/fragmenstein)>  (170) 
0.624

>  <inspiration_score>  (170) 
None

>  <name>  (170) 
P499098

>  <ref_pdb>  (170) 
A3176a

>  <ref_mols>  (170) 
A3417a,A3176a

>  <subsites>  (170) 
None

>  <tags>  (170) 
openbind_a71ev2a_c1_elabs_filtered,openbind_a71ev2a_c1_elab_chemspace_filtered_scored

>  <inchikey>  (170) 
OACSUJSZUXLRMS-LLVKDONJSA-N

>  <scratch_subdir>  (170) 
nan

>  <smina_score_min>  (170) 
-7.629

>  <energy_score>  (170) 
-9.111225

>  <Energy>  (170) 
nan

>  <fragmenstein_outcome>  (170) 
nan

>  <alias>  (170) 
None

>  <HIPPO Pose ID>  (170) 
499098

>  <exports>  (170) 
['/opt/xchem-fragalysis-2/maxwin/openbind-hippo/a71ev2a/cycle_01/bulkdock/openbind_a71ev2a_c1_elab_chemspace.sdf', '/opt/xchem-fragalysis-2/maxwin/openbind-hippo/a71ev2a/cycle_01/syndirella/elabs/openbind_a71ev2a_c1_elab_chemspace_filtered.sdf']

>  <HIPPO Compound ID>  (170) 
299817

>  <gnina_score>  (170) 
6.094

$$$$
P499099
     RDKit          3D

 25 27  0  0  0  0  0  0  0  0999 V2000
    8.9898   18.2700   20.6147 C   0  0  0  0  0  0  0  0  0  0  0  0
    8.7355   18.2071   19.2202 O   0  0  0  0  0  0  0  0  0  0  0  0
    9.4910   17.4252   18.3828 C   0  0  0  0  0  0  0  0  0  0  0  0
    9.3901   17.6733   17.1831 O   0  0  0  0  0  0  0  0  0  0  0  0
   10.3340   16.3282   18.9538 C   0  0  0  0  0  0  0  0  0  0  0  0
   11.3199   15.6958   18.2236 N   0  0  0  0  0  0  0  0  0  0  0  0
   11.8980   14.8839   19.0527 C   0  0  0  0  0  0  0  0  0  0  0  0
   11.3710   15.0615   20.2792 N   0  0  0  0  0  0  0  0  0  0  0  0
   12.1181   14.7760   21.4781 C   0  0  0  0  0  0  0  0  0  0  0  0
   11.4091   15.0308   22.7805 C   0  0  0  0  0  0  0  0  0  0  0  0
   10.5656   13.9530   23.1908 N   0  0  0  0  0  0  0  0  0  0  0  0
    9.5164   13.8796   24.2983 C   0  0  0  0  0  0  0  0  0  0  0  0
    9.2194   14.6591   25.1090 O   0  0  0  0  0  0  0  0  0  0  0  0
    8.9413   12.5250   24.2636 C   0  0  0  0  0  0  0  0  0  0  0  0
    9.4960   11.5572   23.5039 N   0  0  0  0  0  0  0  0  0  0  0  0
    8.7939   10.4515   23.8080 N   0  0  0  0  0  0  0  0  0  0  0  0
    9.1886    9.1935   23.2132 C   0  0  0  0  0  0  0  0  0  0  0  0
    7.7979   10.6763   24.7260 C   0  0  0  0  0  0  0  0  0  0  0  0
    6.8714    9.8302   25.3357 C   0  0  0  0  0  0  0  0  0  0  0  0
    5.9910   10.3842   26.2674 C   0  0  0  0  0  0  0  0  0  0  0  0
    6.0124   11.7438   26.5401 C   0  0  0  0  0  0  0  0  0  0  0  0
    5.1514   12.2412   27.4383 F   0  0  0  0  0  0  0  0  0  0  0  0
    6.9293   12.5910   25.9274 C   0  0  0  0  0  0  0  0  0  0  0  0
    7.8480   12.0367   25.0163 C   0  0  0  0  0  0  0  0  0  0  0  0
   10.3045   15.8754   20.2357 N   0  0  0  0  0  0  0  0  0  0  0  0
  1  2  1  0
  2  3  1  0
  3  4  2  0
  3  5  1  0
  5  6  1  0
  6  7  2  0
  7  8  1  0
  8  9  1  0
  9 10  1  0
 10 11  1  0
 11 12  1  0
 12 13  2  0
 12 14  1  0
 14 15  2  0
 15 16  1  0
 16 17  1  0
 16 18  1  0
 18 19  2  0
 19 20  1  0
 20 21  2  0
 21 22  1  0
 21 23  1  0
 23 24  2  0
  8 25  1  0
 25  5  2  0
 24 14  1  0
 24 18  1  0
M  END
>  <distance_score>  (171) 
0.734377

>  <smiles>  (171) 
COC(=O)c1ncn(CCNC(=O)c2nn(C)c3ccc(F)cc23)n1

>  <fragmenstein_error>  (171) 
nan

>  <fragmenstein_runtime>  (171) 
nan

>  <gnina_score_min>  (171) 
6.182

>  <orig_smiles>  (171) 
nan

>  <fragmenstein_mode>  (171) 
nan

>  <rmsd(smina/fragmenstein)>  (171) 
0.766

>  <inspiration_score>  (171) 
None

>  <name>  (171) 
P499099

>  <ref_pdb>  (171) 
A3176a

>  <ref_mols>  (171) 
A3417a,A3176a

>  <subsites>  (171) 
None

>  <tags>  (171) 
openbind_a71ev2a_c1_elabs_filtered,openbind_a71ev2a_c1_elab_chemspace_filtered_scored

>  <inchikey>  (171) 
OISMTGZGLXVQDY-UHFFFAOYSA-N

>  <scratch_subdir>  (171) 
nan

>  <smina_score_min>  (171) 
-6.792

>  <energy_score>  (171) 
-16.331815

>  <Energy>  (171) 
nan

>  <fragmenstein_outcome>  (171) 
nan

>  <alias>  (171) 
None

>  <HIPPO Pose ID>  (171) 
499099

>  <exports>  (171) 
['/opt/xchem-fragalysis-2/maxwin/openbind-hippo/a71ev2a/cycle_01/bulkdock/openbind_a71ev2a_c1_elab_chemspace.sdf', '/opt/xchem-fragalysis-2/maxwin/openbind-hippo/a71ev2a/cycle_01/syndirella/elabs/openbind_a71ev2a_c1_elab_chemspace_filtered.sdf']

>  <HIPPO Compound ID>  (171) 
299818

>  <gnina_score>  (171) 
6.049

$$$$
P499100
     RDKit          3D

 26 29  0  0  0  0  0  0  0  0999 V2000
    9.1502    8.9972   23.1389 C   0  0  0  0  0  0  0  0  0  0  0  0
    8.9132   10.3030   23.7086 N   0  0  0  0  0  0  0  0  0  0  0  0
    9.7409   11.3006   23.3691 N   0  0  0  0  0  0  0  0  0  0  0  0
    9.3425   12.3465   24.1156 C   0  0  0  0  0  0  0  0  0  0  0  0
   10.1444   13.5842   24.1519 C   0  0  0  0  0  0  0  0  0  0  0  0
    9.9628   14.4082   24.9577 O   0  0  0  0  0  0  0  0  0  0  0  0
   11.1669   13.5191   23.0055 N   0  0  0  0  0  0  0  0  0  0  0  0
   12.1166   14.4901   22.5486 C   0  0  0  0  0  0  0  0  0  0  0  0
   12.2078   14.5853   21.0228 C   0  0  0  0  0  0  0  0  0  0  0  0
   11.0180   15.0344   20.3304 N   0  0  0  0  0  0  0  0  0  0  0  0
   11.1478   15.5446   19.0394 N   0  0  0  0  0  0  0  0  0  0  0  0
   10.2587   16.4873   18.9878 C   0  0  0  0  0  0  0  0  0  0  0  0
    9.8738   17.4057   17.9058 C   0  0  0  0  0  0  0  0  0  0  0  0
    8.9691   18.3665   18.1647 C   0  0  0  0  0  0  0  0  0  0  0  0
    8.4956   18.6223   19.4869 C   0  0  0  0  0  0  0  0  0  0  0  0
    8.7737   17.7329   20.4382 C   0  0  0  0  0  0  0  0  0  0  0  0
    9.5812   16.6816   20.1418 N   0  0  0  0  0  0  0  0  0  0  0  0
    9.9802   15.7038   20.9740 C   0  0  0  0  0  0  0  0  0  0  0  0
    9.4990   15.4943   22.0714 O   0  0  0  0  0  0  0  0  0  0  0  0
    8.1719   12.0310   24.8563 C   0  0  0  0  0  0  0  0  0  0  0  0
    7.3170   12.7231   25.7352 C   0  0  0  0  0  0  0  0  0  0  0  0
    6.3061   12.0122   26.3775 C   0  0  0  0  0  0  0  0  0  0  0  0
    5.5110   12.6438   27.2522 F   0  0  0  0  0  0  0  0  0  0  0  0
    6.1326   10.6506   26.1712 C   0  0  0  0  0  0  0  0  0  0  0  0
    6.9470    9.9581   25.2729 C   0  0  0  0  0  0  0  0  0  0  0  0
    7.9561   10.6733   24.6206 C   0  0  0  0  0  0  0  0  0  0  0  0
  1  2  1  0
  2  3  1  0
  3  4  2  0
  4  5  1  0
  5  6  2  0
  5  7  1  0
  7  8  1  0
  8  9  1  0
  9 10  1  0
 10 11  1  0
 11 12  2  0
 12 13  1  0
 13 14  2  0
 14 15  1  0
 15 16  2  0
 16 17  1  0
 17 18  1  0
 18 19  2  0
  4 20  1  0
 20 21  2  0
 21 22  1  0
 22 23  1  0
 22 24  2  0
 24 25  1  0
 25 26  2  0
 26  2  1  0
 18 10  1  0
 26 20  1  0
 17 12  1  0
M  END
>  <distance_score>  (172) 
1.081492

>  <smiles>  (172) 
Cn1nc(C(=O)NCCn2nc3ccccn3c2=O)c2cc(F)ccc21

>  <fragmenstein_error>  (172) 
nan

>  <fragmenstein_runtime>  (172) 
nan

>  <gnina_score_min>  (172) 
6.337

>  <orig_smiles>  (172) 
nan

>  <fragmenstein_mode>  (172) 
nan

>  <rmsd(smina/fragmenstein)>  (172) 
0.259

>  <inspiration_score>  (172) 
None

>  <name>  (172) 
P499100

>  <ref_pdb>  (172) 
A3176a

>  <ref_mols>  (172) 
A3417a,A3176a

>  <subsites>  (172) 
None

>  <tags>  (172) 
openbind_a71ev2a_c1_elabs_filtered,openbind_a71ev2a_c1_elab_chemspace_filtered_scored

>  <inchikey>  (172) 
TXQDODDQPDFBKQ-UHFFFAOYSA-N

>  <scratch_subdir>  (172) 
nan

>  <smina_score_min>  (172) 
-7.297

>  <energy_score>  (172) 
-3.239157

>  <Energy>  (172) 
nan

>  <fragmenstein_outcome>  (172) 
nan

>  <alias>  (172) 
None

>  <HIPPO Pose ID>  (172) 
499100

>  <exports>  (172) 
['/opt/xchem-fragalysis-2/maxwin/openbind-hippo/a71ev2a/cycle_01/syndirella/elabs/openbind_a71ev2a_c1_elab_chemspace_filtered.sdf']

>  <HIPPO Compound ID>  (172) 
299823

>  <gnina_score>  (172) 
6.33

$$$$
P499102
     RDKit          3D

 26 29  0  0  0  0  0  0  0  0999 V2000
    8.5754   18.8096   19.0667 C   0  0  0  0  0  0  0  0  0  0  0  0
    9.7829   18.5428   18.3795 O   0  0  0  0  0  0  0  0  0  0  0  0
    9.8799   17.2438   17.7656 C   0  0  0  0  0  0  0  0  0  0  0  0
   10.2120   16.1395   18.6958 C   0  0  0  0  0  0  0  0  0  0  0  0
   11.4255   15.4902   18.7371 N   0  0  0  0  0  0  0  0  0  0  0  0
   11.3954   14.9172   19.9130 C   0  0  0  0  0  0  0  0  0  0  0  0
   10.2217   15.2154   20.5196 N   0  0  0  0  0  0  0  0  0  0  0  0
    9.3838   15.7876   19.6813 N   0  0  0  0  0  0  0  0  0  0  0  0
   10.1930   15.7257   21.8576 C   0  0  0  0  0  0  0  0  0  0  0  0
   11.1903   15.0568   22.7683 C   0  0  1  0  0  0  0  0  0  0  0  0
   10.5433   13.8878   23.2660 N   0  0  0  0  0  0  0  0  0  0  0  0
    9.6002   13.7052   24.4512 C   0  0  0  0  0  0  0  0  0  0  0  0
    9.2554   14.4614   25.2636 O   0  0  0  0  0  0  0  0  0  0  0  0
    9.0503   12.3539   24.3798 C   0  0  0  0  0  0  0  0  0  0  0  0
    9.5927   11.4132   23.5839 N   0  0  0  0  0  0  0  0  0  0  0  0
    8.8476   10.3170   23.8247 N   0  0  0  0  0  0  0  0  0  0  0  0
    9.2002    9.0789   23.1672 C   0  0  0  0  0  0  0  0  0  0  0  0
    7.8371   10.5373   24.7292 C   0  0  0  0  0  0  0  0  0  0  0  0
    6.8720    9.7040   25.2882 C   0  0  0  0  0  0  0  0  0  0  0  0
    5.9804   10.2517   26.2140 C   0  0  0  0  0  0  0  0  0  0  0  0
    6.0194   11.6016   26.5216 C   0  0  0  0  0  0  0  0  0  0  0  0
    5.1426   12.0978   27.4048 F   0  0  0  0  0  0  0  0  0  0  0  0
    6.9753   12.4383   25.9605 C   0  0  0  0  0  0  0  0  0  0  0  0
    7.9159   11.8800   25.0734 C   0  0  0  0  0  0  0  0  0  0  0  0
   12.5435   14.8642   22.1269 C   0  0  0  0  0  0  0  0  0  0  0  0
   12.4957   14.3513   20.6871 C   0  0  0  0  0  0  0  0  0  0  0  0
  1  2  1  0
  2  3  1  0
  3  4  1  0
  4  5  1  0
  5  6  2  0
  6  7  1  0
  7  8  1  0
  7  9  1  0
  9 10  1  0
 10 11  1  6
 11 12  1  0
 12 13  2  0
 12 14  1  0
 14 15  2  0
 15 16  1  0
 16 17  1  0
 16 18  1  0
 18 19  2  0
 19 20  1  0
 20 21  2  0
 21 22  1  0
 21 23  1  0
 23 24  2  0
 10 25  1  0
 25 26  1  0
  8  4  2  0
 24 14  1  0
 26  6  1  0
 24 18  1  0
M  END
>  <distance_score>  (173) 
0.867794

>  <smiles>  (173) 
COCc1nc2n(n1)C[C@@H](NC(=O)c1nn(C)c3ccc(F)cc13)CC2

>  <fragmenstein_error>  (173) 
nan

>  <fragmenstein_runtime>  (173) 
nan

>  <gnina_score_min>  (173) 
6.24

>  <orig_smiles>  (173) 
nan

>  <fragmenstein_mode>  (173) 
nan

>  <rmsd(smina/fragmenstein)>  (173) 
0.448

>  <inspiration_score>  (173) 
None

>  <name>  (173) 
P499102

>  <ref_pdb>  (173) 
A3176a

>  <ref_mols>  (173) 
A3417a,A3176a

>  <subsites>  (173) 
None

>  <tags>  (173) 
openbind_a71ev2a_c1_elabs_filtered,openbind_a71ev2a_c1_elab_chemspace_filtered_scored

>  <inchikey>  (173) 
HQRPGGOUHRLWEG-NSHDSACASA-N

>  <scratch_subdir>  (173) 
nan

>  <smina_score_min>  (173) 
-5.468

>  <energy_score>  (173) 
-1.538697

>  <Energy>  (173) 
nan

>  <fragmenstein_outcome>  (173) 
nan

>  <alias>  (173) 
None

>  <HIPPO Pose ID>  (173) 
499102

>  <exports>  (173) 
['/opt/xchem-fragalysis-2/maxwin/openbind-hippo/a71ev2a/cycle_01/bulkdock/openbind_a71ev2a_c1_elab_chemspace.sdf', '/opt/xchem-fragalysis-2/maxwin/openbind-hippo/a71ev2a/cycle_01/syndirella/elabs/openbind_a71ev2a_c1_elab_chemspace_filtered.sdf']

>  <HIPPO Compound ID>  (173) 
299825

>  <gnina_score>  (173) 
6.231

$$$$
P499103
     RDKit          3D

 26 29  0  0  0  0  0  0  0  0999 V2000
    9.1967    9.1664   23.1933 C   0  0  0  0  0  0  0  0  0  0  0  0
    8.8542   10.4441   23.7777 N   0  0  0  0  0  0  0  0  0  0  0  0
    9.6154   11.5120   23.4811 N   0  0  0  0  0  0  0  0  0  0  0  0
    9.1047   12.5102   24.2327 C   0  0  0  0  0  0  0  0  0  0  0  0
    9.7798   13.8229   24.2983 C   0  0  0  0  0  0  0  0  0  0  0  0
    9.4438   14.6585   25.0361 O   0  0  0  0  0  0  0  0  0  0  0  0
   10.9542   13.7784   23.3164 N   0  0  0  0  0  0  0  0  0  0  0  0
   11.9111   14.7856   22.9619 C   0  0  0  0  0  0  0  0  0  0  0  0
   12.3291   14.7218   21.5087 C   0  0  0  0  0  0  0  0  0  0  0  0
   11.3480   15.1333   20.5462 N   0  0  0  0  0  0  0  0  0  0  0  0
   11.4143   14.8783   19.2209 C   0  0  0  0  0  0  0  0  0  0  0  0
   10.5680   15.6458   18.5975 N   0  0  0  0  0  0  0  0  0  0  0  0
   10.0696   16.4471   19.5812 C   0  0  0  0  0  0  0  0  0  0  0  0
    9.3420   17.6697   19.2413 C   0  0  0  0  0  0  0  0  0  0  0  0
    9.1034   18.0201   17.9362 N   0  0  0  0  0  0  0  0  0  0  0  0
    8.4642   19.1793   17.9726 N   0  0  0  0  0  0  0  0  0  0  0  0
    8.3849   19.4736   19.2739 N   0  0  0  0  0  0  0  0  0  0  0  0
    8.9146   18.5869   20.1199 N   0  0  0  0  0  0  0  0  0  0  0  0
   10.4548   16.0862   20.8180 N   0  0  0  0  0  0  0  0  0  0  0  0
    7.9673   12.0789   24.9621 C   0  0  0  0  0  0  0  0  0  0  0  0
    7.0609   12.6759   25.8590 C   0  0  0  0  0  0  0  0  0  0  0  0
    6.1103   11.8690   26.4782 C   0  0  0  0  0  0  0  0  0  0  0  0
    5.2661   12.4091   27.3676 F   0  0  0  0  0  0  0  0  0  0  0  0
    6.0437   10.5059   26.2284 C   0  0  0  0  0  0  0  0  0  0  0  0
    6.9087    9.9082   25.3099 C   0  0  0  0  0  0  0  0  0  0  0  0
    7.8643   10.7164   24.6890 C   0  0  0  0  0  0  0  0  0  0  0  0
  1  2  1  0
  2  3  1  0
  3  4  2  0
  4  5  1  0
  5  6  2  0
  5  7  1  0
  7  8  1  0
  8  9  1  0
  9 10  1  0
 10 11  1  0
 11 12  2  0
 12 13  1  0
 13 14  1  0
 14 15  1  0
 15 16  2  0
 16 17  1  0
 17 18  1  0
 13 19  2  0
  4 20  1  0
 20 21  2  0
 21 22  1  0
 22 23  1  0
 22 24  2  0
 24 25  1  0
 25 26  2  0
 26  2  1  0
 19 10  1  0
 26 20  1  0
 18 14  2  0
M  END
>  <distance_score>  (174) 
0.732723

>  <smiles>  (174) 
Cn1nc(C(=O)NCCn2cnc(-c3nn[nH]n3)n2)c2cc(F)ccc21

>  <fragmenstein_error>  (174) 
nan

>  <fragmenstein_runtime>  (174) 
nan

>  <gnina_score_min>  (174) 
6.779

>  <orig_smiles>  (174) 
nan

>  <fragmenstein_mode>  (174) 
nan

>  <rmsd(smina/fragmenstein)>  (174) 
0.397

>  <inspiration_score>  (174) 
None

>  <name>  (174) 
P499103

>  <ref_pdb>  (174) 
A3176a

>  <ref_mols>  (174) 
A3417a,A3176a

>  <subsites>  (174) 
None

>  <tags>  (174) 
openbind_a71ev2a_c1_elabs_filtered,openbind_a71ev2a_c1_elab_chemspace_filtered_scored

>  <inchikey>  (174) 
UUHOGOIZMOFYNY-UHFFFAOYSA-N

>  <scratch_subdir>  (174) 
nan

>  <smina_score_min>  (174) 
-9.083

>  <energy_score>  (174) 
-34.098421

>  <Energy>  (174) 
nan

>  <fragmenstein_outcome>  (174) 
nan

>  <alias>  (174) 
None

>  <HIPPO Pose ID>  (174) 
499103

>  <exports>  (174) 
['/opt/xchem-fragalysis-2/maxwin/openbind-hippo/a71ev2a/cycle_01/bulkdock/openbind_a71ev2a_c1_elab_chemspace.sdf', '/opt/xchem-fragalysis-2/maxwin/openbind-hippo/a71ev2a/cycle_01/syndirella/elabs/openbind_a71ev2a_c1_elab_chemspace_filtered.sdf']

>  <HIPPO Compound ID>  (174) 
299835

>  <gnina_score>  (174) 
6.737

$$$$
P499106
     RDKit          3D

 30 33  0  0  0  0  0  0  0  0999 V2000
   13.5436   13.5183   25.7078 C   0  0  0  0  0  0  0  0  0  0  0  0
   13.0347   13.9198   24.3365 C   0  0  0  0  0  0  0  0  0  0  0  0
   11.6259   14.4767   24.2948 C   0  0  2  0  0  0  0  0  0  0  0  0
   10.6766   13.4485   24.4640 N   0  0  0  0  0  0  0  0  0  0  0  0
    9.4621   13.3700   25.3582 C   0  0  0  0  0  0  0  0  0  0  0  0
    9.0743   14.1047   26.1670 O   0  0  0  0  0  0  0  0  0  0  0  0
    8.7515   12.1794   24.9413 C   0  0  0  0  0  0  0  0  0  0  0  0
    9.2716   11.3469   24.0191 N   0  0  0  0  0  0  0  0  0  0  0  0
    8.4826   10.2700   24.0875 N   0  0  0  0  0  0  0  0  0  0  0  0
    8.8789    9.1004   23.3384 C   0  0  0  0  0  0  0  0  0  0  0  0
    7.4526   10.4354   24.9822 C   0  0  0  0  0  0  0  0  0  0  0  0
    6.4771    9.5887   25.4722 C   0  0  0  0  0  0  0  0  0  0  0  0
    5.6191   10.0630   26.4691 C   0  0  0  0  0  0  0  0  0  0  0  0
    5.6520   11.3850   26.8717 C   0  0  0  0  0  0  0  0  0  0  0  0
    4.7866   11.8132   27.7998 F   0  0  0  0  0  0  0  0  0  0  0  0
    6.6022   12.2515   26.3678 C   0  0  0  0  0  0  0  0  0  0  0  0
    7.5393   11.7340   25.4578 C   0  0  0  0  0  0  0  0  0  0  0  0
   11.2238   15.2178   22.9824 C   0  0  2  0  0  0  0  0  0  0  0  0
    9.7348   15.1480   22.5510 C   0  0  0  0  0  0  0  0  0  0  0  0
    9.3073   14.8953   21.2537 C   0  0  0  0  0  0  0  0  0  0  0  0
    7.9470   14.7198   21.0002 C   0  0  0  0  0  0  0  0  0  0  0  0
    6.9531   14.8247   21.9773 C   0  0  0  0  0  0  0  0  0  0  0  0
    5.4967   14.6621   21.6724 C   0  0  0  0  0  0  0  0  0  0  0  0
    7.3498   15.1794   23.2441 C   0  0  0  0  0  0  0  0  0  0  0  0
    8.7087   15.3364   23.5013 C   0  0  0  0  0  0  0  0  0  0  0  0
   12.0714   14.8419   21.8974 N   0  0  0  0  0  0  0  0  0  0  0  0
   12.7477   15.6803   21.1092 C   0  0  0  0  0  0  0  0  0  0  0  0
   12.8662   15.1225   19.9342 N   0  0  0  0  0  0  0  0  0  0  0  0
   12.5251   13.8547   20.1958 C   0  0  0  0  0  0  0  0  0  0  0  0
   12.1121   13.6117   21.4349 N   0  0  0  0  0  0  0  0  0  0  0  0
  1  2  1  0
  3  2  1  6
  3  4  1  0
  4  5  1  0
  5  6  2  0
  5  7  1  0
  7  8  2  0
  8  9  1  0
  9 10  1  0
  9 11  1  0
 11 12  2  0
 12 13  1  0
 13 14  2  0
 14 15  1  0
 14 16  1  0
 16 17  2  0
  3 18  1  0
 18 19  1  0
 19 20  2  0
 20 21  1  0
 21 22  2  0
 22 23  1  0
 22 24  1  0
 24 25  2  0
 18 26  1  6
 26 27  1  0
 27 28  2  0
 28 29  1  0
 29 30  2  0
 17  7  1  0
 25 19  1  0
 30 26  1  0
 17 11  1  0
M  END
>  <distance_score>  (175) 
1.629659

>  <smiles>  (175) 
CC[C@H](NC(=O)c1nn(C)c2ccc(F)cc12)[C@H](c1ccc(C)cc1)n1cncn1

>  <fragmenstein_error>  (175) 
nan

>  <fragmenstein_runtime>  (175) 
nan

>  <gnina_score_min>  (175) 
6.551

>  <orig_smiles>  (175) 
nan

>  <fragmenstein_mode>  (175) 
nan

>  <rmsd(smina/fragmenstein)>  (175) 
1.546

>  <inspiration_score>  (175) 
None

>  <name>  (175) 
P499106

>  <ref_pdb>  (175) 
A3176a

>  <ref_mols>  (175) 
A3417a,A3176a

>  <subsites>  (175) 
None

>  <tags>  (175) 
openbind_a71ev2a_c1_elabs_filtered,openbind_a71ev2a_c1_elab_chemspace_filtered_scored

>  <inchikey>  (175) 
SSZQMMXISQWGMF-RXVVDRJESA-N

>  <scratch_subdir>  (175) 
nan

>  <smina_score_min>  (175) 
-5.361

>  <energy_score>  (175) 
-5.203058

>  <Energy>  (175) 
nan

>  <fragmenstein_outcome>  (175) 
nan

>  <alias>  (175) 
None

>  <HIPPO Pose ID>  (175) 
499106

>  <exports>  (175) 
['/opt/xchem-fragalysis-2/maxwin/openbind-hippo/a71ev2a/cycle_01/syndirella/elabs/openbind_a71ev2a_c1_elab_chemspace_filtered.sdf']

>  <HIPPO Compound ID>  (175) 
299845

>  <gnina_score>  (175) 
6.563

$$$$
P499452
     RDKit          3D

 18 21  0  0  0  0  0  0  0  0999 V2000
   10.3761   15.2832   20.9745 C   0  0  0  0  0  0  0  0  0  0  0  0
    9.8252   15.2736   22.3669 C   0  0  2  0  0  0  0  0  0  0  0  0
    8.4458   14.7134   22.5821 C   0  0  0  0  0  0  0  0  0  0  0  0
    7.6578   14.9658   21.7482 O   0  0  0  0  0  0  0  0  0  0  0  0
    8.2904   13.9391   23.8748 N   0  0  0  0  0  0  0  0  0  0  0  0
    7.0672   13.3532   24.5231 C   0  0  0  0  0  0  0  0  0  0  0  0
    6.7928   13.3478   26.0225 C   0  0  0  0  0  0  0  0  0  0  0  0
    6.1732   14.4003   25.1884 C   0  0  0  0  0  0  0  0  0  0  0  0
    8.5957   12.3342   23.6493 C   0  0  1  0  0  0  0  0  0  0  0  0
   10.1214   12.2224   23.2516 C   0  0  0  0  0  0  0  0  0  0  0  0
   10.7875   11.0024   23.7359 N   0  0  0  0  0  0  0  0  0  0  0  0
   10.0181    9.8102   23.3774 C   0  0  0  0  0  0  0  0  0  0  0  0
    8.7480    9.8013   24.1948 C   0  0  0  0  0  0  0  0  0  0  0  0
    8.4187   11.2147   24.7177 C   0  0  0  0  0  0  0  0  0  0  0  0
    9.5035   11.5215   25.7195 C   0  0  0  0  0  0  0  0  0  0  0  0
   10.8637   11.1049   25.1813 C   0  0  0  0  0  0  0  0  0  0  0  0
   10.2576   16.3797   23.2930 C   0  0  0  0  0  0  0  0  0  0  0  0
   10.8337   15.0909   23.3888 O   0  0  0  0  0  0  0  0  0  0  0  0
  2  1  1  6
  2  3  1  0
  3  4  2  0
  3  5  1  0
  5  6  1  0
  6  7  1  0
  7  8  1  0
  9  5  1  1
  9 10  1  0
 11 10  1  0
 11 12  1  0
 12 13  1  0
 13 14  1  0
 14 15  1  0
 15 16  1  0
  2 17  1  0
 17 18  1  0
 18  2  1  0
  8  6  1  0
 14  9  1  0
 16 11  1  0
M  END
>  <distance_score>  (176) 
1.599427

>  <smiles>  (176) 
C[C@]1(C(=O)N(C2CC2)[C@H]2CN3CCC2CC3)CO1

>  <fragmenstein_error>  (176) 
nan

>  <fragmenstein_runtime>  (176) 
nan

>  <gnina_score_min>  (176) 
4.552

>  <orig_smiles>  (176) 
nan

>  <fragmenstein_mode>  (176) 
nan

>  <rmsd(smina/fragmenstein)>  (176) 
1.261

>  <inspiration_score>  (176) 
None

>  <name>  (176) 
P499452

>  <ref_pdb>  (176) 
A4237b

>  <ref_mols>  (176) 
A4237b,A3618a

>  <subsites>  (176) 
None

>  <tags>  (176) 
openbind_a71ev2a_c1_elabs_filtered,openbind_a71ev2a_c1_elab_chemspace_filtered_scored

>  <inchikey>  (176) 
VAFQWTVJSCBUOL-GXTWGEPZSA-N

>  <scratch_subdir>  (176) 
nan

>  <smina_score_min>  (176) 
-5.041

>  <energy_score>  (176) 
-23.539419

>  <Energy>  (176) 
nan

>  <fragmenstein_outcome>  (176) 
nan

>  <alias>  (176) 
None

>  <HIPPO Pose ID>  (176) 
499452

>  <exports>  (176) 
['/opt/xchem-fragalysis-2/maxwin/openbind-hippo/a71ev2a/cycle_01/bulkdock/openbind_a71ev2a_c1_elab_chemspace.sdf', '/opt/xchem-fragalysis-2/maxwin/openbind-hippo/a71ev2a/cycle_01/syndirella/elabs/openbind_a71ev2a_c1_elab_chemspace_filtered.sdf']

>  <HIPPO Compound ID>  (176) 
303130

>  <gnina_score>  (176) 
4.755

$$$$
P499472
     RDKit          3D

 19 20  0  0  0  0  0  0  0  0999 V2000
    9.9194   15.6989   20.0763 C   0  0  0  0  0  0  0  0  0  0  0  0
   10.3442   15.2012   21.3851 C   0  0  0  0  0  0  0  0  0  0  0  0
    9.7991   14.2703   22.1429 N   0  0  0  0  0  0  0  0  0  0  0  0
   10.8071   13.9725   23.0258 C   0  0  0  0  0  0  0  0  0  0  0  0
   10.7960   12.7461   23.8504 C   0  0  0  0  0  0  0  0  0  0  0  0
    9.9453   11.6241   23.2328 C   0  0  0  0  0  0  0  0  0  0  0  0
    8.6302   11.7588   23.7598 N   0  0  0  0  0  0  0  0  0  0  0  0
    7.8626   10.8828   24.7273 C   0  0  0  0  0  0  0  0  0  0  0  0
    8.1405    9.8635   25.1998 O   0  0  0  0  0  0  0  0  0  0  0  0
    6.5908   11.4968   25.2124 C   0  0  0  0  0  0  0  0  0  0  0  0
    5.7095   10.5763   25.8166 C   0  0  0  0  0  0  0  0  0  0  0  0
    4.6330   11.0046   26.5776 C   0  0  0  0  0  0  0  0  0  0  0  0
    4.4022   12.3639   26.7217 C   0  0  0  0  0  0  0  0  0  0  0  0
    5.2530   13.2916   26.1171 C   0  0  0  0  0  0  0  0  0  0  0  0
    6.3772   12.8886   25.3729 C   0  0  0  0  0  0  0  0  0  0  0  0
    7.2899   13.9899   24.8817 C   0  0  0  0  0  0  0  0  0  0  0  0
    7.3452   13.9641   23.4600 O   0  0  0  0  0  0  0  0  0  0  0  0
   11.8113   14.8996   22.9109 C   0  0  0  0  0  0  0  0  0  0  0  0
   11.5286   15.6927   21.8503 O   0  0  0  0  0  0  0  0  0  0  0  0
  1  2  1  0
  2  3  2  0
  3  4  1  0
  4  5  1  0
  5  6  1  0
  6  7  1  0
  7  8  1  0
  8  9  2  0
  8 10  1  0
 10 11  2  0
 11 12  1  0
 12 13  2  0
 13 14  1  0
 14 15  2  0
 15 16  1  0
 16 17  1  0
  4 18  2  0
 18 19  1  0
 19  2  1  0
 15 10  1  0
M  END
>  <distance_score>  (177) 
1.292322

>  <smiles>  (177) 
Cc1nc(CCNC(=O)c2ccccc2CO)co1

>  <fragmenstein_error>  (177) 
nan

>  <fragmenstein_runtime>  (177) 
nan

>  <gnina_score_min>  (177) 
4.333

>  <orig_smiles>  (177) 
nan

>  <fragmenstein_mode>  (177) 
nan

>  <rmsd(smina/fragmenstein)>  (177) 
0.873

>  <inspiration_score>  (177) 
None

>  <name>  (177) 
P499472

>  <ref_pdb>  (177) 
A5594a

>  <ref_mols>  (177) 
A3408a,A5594a

>  <subsites>  (177) 
None

>  <tags>  (177) 
openbind_a71ev2a_c1_elabs_filtered,openbind_a71ev2a_c1_elab_chemspace_filtered_scored

>  <inchikey>  (177) 
KJNPOPMDDYZFBT-UHFFFAOYSA-N

>  <scratch_subdir>  (177) 
nan

>  <smina_score_min>  (177) 
-5.958

>  <energy_score>  (177) 
-6.486242

>  <Energy>  (177) 
nan

>  <fragmenstein_outcome>  (177) 
nan

>  <alias>  (177) 
None

>  <HIPPO Pose ID>  (177) 
499472

>  <exports>  (177) 
['/opt/xchem-fragalysis-2/maxwin/openbind-hippo/a71ev2a/cycle_01/bulkdock/openbind_a71ev2a_c1_elab_chemspace.sdf', '/opt/xchem-fragalysis-2/maxwin/openbind-hippo/a71ev2a/cycle_01/syndirella/elabs/openbind_a71ev2a_c1_elab_chemspace_filtered.sdf']

>  <HIPPO Compound ID>  (177) 
306227

>  <gnina_score>  (177) 
4.857

$$$$
P499473
     RDKit          3D

 19 20  0  0  0  0  0  0  0  0999 V2000
    6.9388   14.2126   24.1242 C   0  0  0  0  0  0  0  0  0  0  0  0
    6.6279   13.0141   24.9686 C   0  0  0  0  0  0  0  0  0  0  0  0
    5.5048   13.0643   25.8078 C   0  0  0  0  0  0  0  0  0  0  0  0
    5.0903   11.9320   26.4995 C   0  0  0  0  0  0  0  0  0  0  0  0
    5.7788   10.7416   26.3305 C   0  0  0  0  0  0  0  0  0  0  0  0
    5.3744    9.6661   27.0107 F   0  0  0  0  0  0  0  0  0  0  0  0
    6.9056   10.6675   25.5235 C   0  0  0  0  0  0  0  0  0  0  0  0
    7.3735   11.8244   24.8928 C   0  0  0  0  0  0  0  0  0  0  0  0
    8.6824   11.7324   24.1777 C   0  0  0  0  0  0  0  0  0  0  0  0
    8.8969   10.7954   23.5205 O   0  0  0  0  0  0  0  0  0  0  0  0
    9.5829   12.9328   24.5300 N   0  0  0  0  0  0  0  0  0  0  0  0
   10.9098   13.2800   24.0681 C   0  0  2  0  0  0  0  0  0  0  0  0
   11.3838   14.5942   24.6846 C   0  0  0  0  0  0  0  0  0  0  0  0
   11.0004   13.2715   22.5439 C   0  0  0  0  0  0  0  0  0  0  0  0
   10.4448   14.4691   21.8912 C   0  0  0  0  0  0  0  0  0  0  0  0
   11.0576   15.2616   20.9526 C   0  0  0  0  0  0  0  0  0  0  0  0
   10.1956   16.2556   20.6217 O   0  0  0  0  0  0  0  0  0  0  0  0
    9.1108   16.0204   21.4051 C   0  0  0  0  0  0  0  0  0  0  0  0
    9.1941   14.9589   22.1728 N   0  0  0  0  0  0  0  0  0  0  0  0
  1  2  1  0
  2  3  2  0
  3  4  1  0
  4  5  2  0
  5  6  1  0
  5  7  1  0
  7  8  2  0
  8  9  1  0
  9 10  2  0
  9 11  1  0
 11 12  1  0
 12 13  1  6
 12 14  1  0
 14 15  1  0
 15 16  2  0
 16 17  1  0
 17 18  1  0
 18 19  2  0
  8  2  1  0
 19 15  1  0
M  END
>  <distance_score>  (178) 
1.655139

>  <smiles>  (178) 
Cc1ccc(F)cc1C(=O)N[C@H](C)Cc1cocn1

>  <fragmenstein_error>  (178) 
nan

>  <fragmenstein_runtime>  (178) 
nan

>  <gnina_score_min>  (178) 
4.879

>  <orig_smiles>  (178) 
nan

>  <fragmenstein_mode>  (178) 
nan

>  <rmsd(smina/fragmenstein)>  (178) 
0.514

>  <inspiration_score>  (178) 
None

>  <name>  (178) 
P499473

>  <ref_pdb>  (178) 
A5594a

>  <ref_mols>  (178) 
A3408a,A5594a

>  <subsites>  (178) 
None

>  <tags>  (178) 
openbind_a71ev2a_c1_elabs_filtered,openbind_a71ev2a_c1_elab_chemspace_filtered_scored

>  <inchikey>  (178) 
KOEGELMXGMQRFQ-SNVBAGLBSA-N

>  <scratch_subdir>  (178) 
nan

>  <smina_score_min>  (178) 
-6.07

>  <energy_score>  (178) 
-8.84379

>  <Energy>  (178) 
nan

>  <fragmenstein_outcome>  (178) 
nan

>  <alias>  (178) 
None

>  <HIPPO Pose ID>  (178) 
499473

>  <exports>  (178) 
['/opt/xchem-fragalysis-2/maxwin/openbind-hippo/a71ev2a/cycle_01/bulkdock/openbind_a71ev2a_c1_elab_chemspace.sdf', '/opt/xchem-fragalysis-2/maxwin/openbind-hippo/a71ev2a/cycle_01/syndirella/elabs/openbind_a71ev2a_c1_elab_chemspace_filtered.sdf']

>  <HIPPO Compound ID>  (178) 
306228

>  <gnina_score>  (178) 
5.091

$$$$
P499474
     RDKit          3D

 19 20  0  0  0  0  0  0  0  0999 V2000
    9.8901   15.6437   19.9624 C   0  0  0  0  0  0  0  0  0  0  0  0
   10.3919   15.2544   21.2781 C   0  0  0  0  0  0  0  0  0  0  0  0
    9.9073   14.3766   22.1323 N   0  0  0  0  0  0  0  0  0  0  0  0
   10.9523   14.1901   23.0011 C   0  0  0  0  0  0  0  0  0  0  0  0
   10.9993   13.0547   23.9400 C   0  0  0  0  0  0  0  0  0  0  0  0
   10.0707   11.9297   23.5077 C   0  0  0  0  0  0  0  0  0  0  0  0
    8.8674   11.9487   24.2689 N   0  0  0  0  0  0  0  0  0  0  0  0
    7.8033   10.8794   24.4631 C   0  0  0  0  0  0  0  0  0  0  0  0
    7.7671    9.7801   24.0982 O   0  0  0  0  0  0  0  0  0  0  0  0
    6.6637   11.4080   25.2733 C   0  0  0  0  0  0  0  0  0  0  0  0
    6.0314   10.4400   26.0667 C   0  0  0  0  0  0  0  0  0  0  0  0
    5.0236   10.7888   26.9479 C   0  0  0  0  0  0  0  0  0  0  0  0
    4.6539   12.1215   27.0566 C   0  0  0  0  0  0  0  0  0  0  0  0
    5.2384   13.0929   26.2313 C   0  0  0  0  0  0  0  0  0  0  0  0
    4.5569   15.0683   26.5297 I   0  0  0  0  0  0  0  0  0  0  0  0
    6.2115   12.7494   25.2740 C   0  0  0  0  0  0  0  0  0  0  0  0
    6.6679   13.7621   24.2489 C   0  0  0  0  0  0  0  0  0  0  0  0
   11.9404   15.1021   22.7394 C   0  0  0  0  0  0  0  0  0  0  0  0
   11.5930   15.7936   21.6306 O   0  0  0  0  0  0  0  0  0  0  0  0
  1  2  1  0
  2  3  2  0
  3  4  1  0
  4  5  1  0
  5  6  1  0
  6  7  1  0
  7  8  1  0
  8  9  2  0
  8 10  1  0
 10 11  2  0
 11 12  1  0
 12 13  2  0
 13 14  1  0
 14 15  1  0
 14 16  2  0
 16 17  1  0
  4 18  2  0
 18 19  1  0
 19  2  1  0
 16 10  1  0
M  END
>  <distance_score>  (179) 
1.470694

>  <smiles>  (179) 
Cc1nc(CCNC(=O)c2cccc(I)c2C)co1

>  <fragmenstein_error>  (179) 
nan

>  <fragmenstein_runtime>  (179) 
nan

>  <gnina_score_min>  (179) 
5.14

>  <orig_smiles>  (179) 
nan

>  <fragmenstein_mode>  (179) 
nan

>  <rmsd(smina/fragmenstein)>  (179) 
0.936

>  <inspiration_score>  (179) 
None

>  <name>  (179) 
P499474

>  <ref_pdb>  (179) 
A5594a

>  <ref_mols>  (179) 
A3408a,A5594a

>  <subsites>  (179) 
None

>  <tags>  (179) 
openbind_a71ev2a_c1_elabs_filtered,openbind_a71ev2a_c1_elab_chemspace_filtered_scored

>  <inchikey>  (179) 
LAOXWUGYUSSWHP-UHFFFAOYSA-N

>  <scratch_subdir>  (179) 
nan

>  <smina_score_min>  (179) 
-6.25

>  <energy_score>  (179) 
-2.826281

>  <Energy>  (179) 
nan

>  <fragmenstein_outcome>  (179) 
nan

>  <alias>  (179) 
None

>  <HIPPO Pose ID>  (179) 
499474

>  <exports>  (179) 
['/opt/xchem-fragalysis-2/maxwin/openbind-hippo/a71ev2a/cycle_01/bulkdock/openbind_a71ev2a_c1_elab_chemspace.sdf', '/opt/xchem-fragalysis-2/maxwin/openbind-hippo/a71ev2a/cycle_01/syndirella/elabs/openbind_a71ev2a_c1_elab_chemspace_filtered.sdf']

>  <HIPPO Compound ID>  (179) 
306230

>  <gnina_score>  (179) 
4.922

$$$$
P499475
     RDKit          3D

 19 20  0  0  0  0  0  0  0  0999 V2000
    6.9162   14.1403   24.3187 C   0  0  0  0  0  0  0  0  0  0  0  0
    6.6204   12.8816   25.0851 C   0  0  0  0  0  0  0  0  0  0  0  0
    5.5299   12.7929   25.9685 C   0  0  0  0  0  0  0  0  0  0  0  0
    4.3823   14.4566   26.5575 I   0  0  0  0  0  0  0  0  0  0  0  0
    5.1426   11.5618   26.5075 C   0  0  0  0  0  0  0  0  0  0  0  0
    5.8296   10.4025   26.1693 C   0  0  0  0  0  0  0  0  0  0  0  0
    6.9606   10.4803   25.3641 C   0  0  0  0  0  0  0  0  0  0  0  0
    7.3917   11.7197   24.8708 C   0  0  0  0  0  0  0  0  0  0  0  0
    8.6816   11.7248   24.1106 C   0  0  0  0  0  0  0  0  0  0  0  0
    8.8824   10.8648   23.3523 O   0  0  0  0  0  0  0  0  0  0  0  0
    9.5480   12.9386   24.4956 N   0  0  0  0  0  0  0  0  0  0  0  0
   10.8903   13.2993   24.0960 C   0  0  2  0  0  0  0  0  0  0  0  0
   11.3203   14.6182   24.7342 C   0  0  0  0  0  0  0  0  0  0  0  0
   11.0359   13.3043   22.5755 C   0  0  0  0  0  0  0  0  0  0  0  0
   10.4556   14.4834   21.9078 C   0  0  0  0  0  0  0  0  0  0  0  0
   11.0430   15.2605   20.9408 C   0  0  0  0  0  0  0  0  0  0  0  0
   10.1650   16.2384   20.6024 O   0  0  0  0  0  0  0  0  0  0  0  0
    9.0952   16.0087   21.4085 C   0  0  0  0  0  0  0  0  0  0  0  0
    9.2036   14.9672   22.1989 N   0  0  0  0  0  0  0  0  0  0  0  0
  1  2  1  0
  2  3  2  0
  3  4  1  0
  3  5  1  0
  5  6  2  0
  6  7  1  0
  7  8  2  0
  8  9  1  0
  9 10  2  0
  9 11  1  0
 11 12  1  0
 12 13  1  6
 12 14  1  0
 14 15  1  0
 15 16  2  0
 16 17  1  0
 17 18  1  0
 18 19  2  0
  8  2  1  0
 19 15  1  0
M  END
>  <distance_score>  (180) 
1.336777

>  <smiles>  (180) 
Cc1c(I)cccc1C(=O)N[C@H](C)Cc1cocn1

>  <fragmenstein_error>  (180) 
nan

>  <fragmenstein_runtime>  (180) 
nan

>  <gnina_score_min>  (180) 
5.068

>  <orig_smiles>  (180) 
nan

>  <fragmenstein_mode>  (180) 
nan

>  <rmsd(smina/fragmenstein)>  (180) 
0.449

>  <inspiration_score>  (180) 
None

>  <name>  (180) 
P499475

>  <ref_pdb>  (180) 
A5594a

>  <ref_mols>  (180) 
A3408a,A5594a

>  <subsites>  (180) 
None

>  <tags>  (180) 
openbind_a71ev2a_c1_elabs_filtered,openbind_a71ev2a_c1_elab_chemspace_filtered_scored

>  <inchikey>  (180) 
BHNGZPIBBYHXFJ-SECBINFHSA-N

>  <scratch_subdir>  (180) 
nan

>  <smina_score_min>  (180) 
-6.317

>  <energy_score>  (180) 
-5.872751

>  <Energy>  (180) 
nan

>  <fragmenstein_outcome>  (180) 
nan

>  <alias>  (180) 
None

>  <HIPPO Pose ID>  (180) 
499475

>  <exports>  (180) 
['/opt/xchem-fragalysis-2/maxwin/openbind-hippo/a71ev2a/cycle_01/bulkdock/openbind_a71ev2a_c1_elab_chemspace.sdf', '/opt/xchem-fragalysis-2/maxwin/openbind-hippo/a71ev2a/cycle_01/syndirella/elabs/openbind_a71ev2a_c1_elab_chemspace_filtered.sdf']

>  <HIPPO Compound ID>  (180) 
306231

>  <gnina_score>  (180) 
5.196

$$$$
P499481
     RDKit          3D

 19 20  0  0  0  0  0  0  0  0999 V2000
    6.9001   14.2172   23.8596 C   0  0  0  0  0  0  0  0  0  0  0  0
    6.5151   13.1698   24.8582 C   0  0  0  0  0  0  0  0  0  0  0  0
    5.3708   13.3894   25.6329 C   0  0  0  0  0  0  0  0  0  0  0  0
    4.8862   12.3962   26.4734 C   0  0  0  0  0  0  0  0  0  0  0  0
    5.5238   11.1623   26.5240 C   0  0  0  0  0  0  0  0  0  0  0  0
    4.8185    9.8724   27.7057 Br  0  0  0  0  0  0  0  0  0  0  0  0
    6.6762   10.9253   25.7745 C   0  0  0  0  0  0  0  0  0  0  0  0
    7.2159   11.9602   24.9964 C   0  0  0  0  0  0  0  0  0  0  0  0
    8.5539   11.7498   24.3552 C   0  0  0  0  0  0  0  0  0  0  0  0
    8.7754   10.7365   23.8247 O   0  0  0  0  0  0  0  0  0  0  0  0
    9.4596   12.9811   24.5797 N   0  0  0  0  0  0  0  0  0  0  0  0
   10.8032   13.2593   24.1121 C   0  0  2  0  0  0  0  0  0  0  0  0
   11.3312   14.5653   24.7055 C   0  0  0  0  0  0  0  0  0  0  0  0
   10.9057   13.2127   22.5888 C   0  0  0  0  0  0  0  0  0  0  0  0
   10.4375   14.4301   21.9029 C   0  0  0  0  0  0  0  0  0  0  0  0
   11.1172   15.1714   20.9675 C   0  0  0  0  0  0  0  0  0  0  0  0
   10.3231   16.2095   20.6023 O   0  0  0  0  0  0  0  0  0  0  0  0
    9.2097   16.0512   21.3639 C   0  0  0  0  0  0  0  0  0  0  0  0
    9.2141   14.9992   22.1488 N   0  0  0  0  0  0  0  0  0  0  0  0
  1  2  1  0
  2  3  2  0
  3  4  1  0
  4  5  2  0
  5  6  1  0
  5  7  1  0
  7  8  2  0
  8  9  1  0
  9 10  2  0
  9 11  1  0
 11 12  1  0
 12 13  1  6
 12 14  1  0
 14 15  1  0
 15 16  2  0
 16 17  1  0
 17 18  1  0
 18 19  2  0
  8  2  1  0
 19 15  1  0
M  END
>  <distance_score>  (181) 
1.507092

>  <smiles>  (181) 
Cc1ccc(Br)cc1C(=O)N[C@H](C)Cc1cocn1

>  <fragmenstein_error>  (181) 
nan

>  <fragmenstein_runtime>  (181) 
nan

>  <gnina_score_min>  (181) 
4.931

>  <orig_smiles>  (181) 
nan

>  <fragmenstein_mode>  (181) 
nan

>  <rmsd(smina/fragmenstein)>  (181) 
0.571

>  <inspiration_score>  (181) 
None

>  <name>  (181) 
P499481

>  <ref_pdb>  (181) 
A5594a

>  <ref_mols>  (181) 
A3408a,A5594a

>  <subsites>  (181) 
None

>  <tags>  (181) 
openbind_a71ev2a_c1_elabs_filtered,openbind_a71ev2a_c1_elab_chemspace_filtered_scored

>  <inchikey>  (181) 
NGSLCTNIZUDVRI-SNVBAGLBSA-N

>  <scratch_subdir>  (181) 
nan

>  <smina_score_min>  (181) 
-5.84

>  <energy_score>  (181) 
-10.323255

>  <Energy>  (181) 
nan

>  <fragmenstein_outcome>  (181) 
nan

>  <alias>  (181) 
None

>  <HIPPO Pose ID>  (181) 
499481

>  <exports>  (181) 
['/opt/xchem-fragalysis-2/maxwin/openbind-hippo/a71ev2a/cycle_01/bulkdock/openbind_a71ev2a_c1_elab_chemspace.sdf', '/opt/xchem-fragalysis-2/maxwin/openbind-hippo/a71ev2a/cycle_01/syndirella/elabs/openbind_a71ev2a_c1_elab_chemspace_filtered.sdf']

>  <HIPPO Compound ID>  (181) 
306243

>  <gnina_score>  (181) 
5.063

$$$$
P499491
     RDKit          3D

 19 20  0  0  0  0  0  0  0  0999 V2000
    9.9839   15.5752   19.9320 C   0  0  0  0  0  0  0  0  0  0  0  0
   10.3580   15.0724   21.2539 C   0  0  0  0  0  0  0  0  0  0  0  0
    9.8848   14.0360   21.9160 N   0  0  0  0  0  0  0  0  0  0  0  0
   10.7790   13.8957   22.9463 C   0  0  0  0  0  0  0  0  0  0  0  0
   10.8337   12.7030   23.8150 C   0  0  0  0  0  0  0  0  0  0  0  0
    9.8899   11.5665   23.3932 C   0  0  0  0  0  0  0  0  0  0  0  0
    8.6090   11.6832   24.0299 N   0  0  0  0  0  0  0  0  0  0  0  0
    8.0355   12.7901   24.9045 C   0  0  0  0  0  0  0  0  0  0  0  0
    8.5305   13.7565   25.3189 O   0  0  0  0  0  0  0  0  0  0  0  0
    6.6441   12.5376   25.2861 C   0  0  0  0  0  0  0  0  0  0  0  0
    6.2992   11.4027   26.0305 C   0  0  0  0  0  0  0  0  0  0  0  0
    5.0711   11.4002   26.6811 C   0  0  0  0  0  0  0  0  0  0  0  0
    4.5447    9.9013   28.0126 I   0  0  0  0  0  0  0  0  0  0  0  0
    4.1961   12.4773   26.5379 C   0  0  0  0  0  0  0  0  0  0  0  0
    4.5277   13.5580   25.7206 C   0  0  0  0  0  0  0  0  0  0  0  0
    5.7582   13.5963   25.0750 C   0  0  0  0  0  0  0  0  0  0  0  0
    6.1517   14.7698   24.2235 C   0  0  0  0  0  0  0  0  0  0  0  0
   11.6711   14.9386   22.9332 C   0  0  0  0  0  0  0  0  0  0  0  0
   11.4157   15.6999   21.8452 O   0  0  0  0  0  0  0  0  0  0  0  0
  1  2  1  0
  2  3  2  0
  3  4  1  0
  4  5  1  0
  5  6  1  0
  6  7  1  0
  7  8  1  0
  8  9  2  0
  8 10  1  0
 10 11  2  0
 11 12  1  0
 12 13  1  0
 12 14  2  0
 14 15  1  0
 15 16  2  0
 16 17  1  0
  4 18  2  0
 18 19  1  0
 19  2  1  0
 16 10  1  0
M  END
>  <distance_score>  (182) 
1.653144

>  <smiles>  (182) 
Cc1nc(CCNC(=O)c2cc(I)ccc2C)co1

>  <fragmenstein_error>  (182) 
nan

>  <fragmenstein_runtime>  (182) 
nan

>  <gnina_score_min>  (182) 
4.923

>  <orig_smiles>  (182) 
nan

>  <fragmenstein_mode>  (182) 
nan

>  <rmsd(smina/fragmenstein)>  (182) 
1.476

>  <inspiration_score>  (182) 
None

>  <name>  (182) 
P499491

>  <ref_pdb>  (182) 
A5594a

>  <ref_mols>  (182) 
A3408a,A5594a

>  <subsites>  (182) 
None

>  <tags>  (182) 
openbind_a71ev2a_c1_elabs_filtered,openbind_a71ev2a_c1_elab_chemspace_filtered_scored

>  <inchikey>  (182) 
CAVXDUREFKHARF-UHFFFAOYSA-N

>  <scratch_subdir>  (182) 
nan

>  <smina_score_min>  (182) 
-5.273

>  <energy_score>  (182) 
-10.591007

>  <Energy>  (182) 
nan

>  <fragmenstein_outcome>  (182) 
nan

>  <alias>  (182) 
None

>  <HIPPO Pose ID>  (182) 
499491

>  <exports>  (182) 
['/opt/xchem-fragalysis-2/maxwin/openbind-hippo/a71ev2a/cycle_01/syndirella/elabs/openbind_a71ev2a_c1_elab_chemspace_filtered.sdf']

>  <HIPPO Compound ID>  (182) 
306256

>  <gnina_score>  (182) 
5.047

$$$$
P499495
     RDKit          3D

 19 20  0  0  0  0  0  0  0  0999 V2000
    9.7875   15.4535   19.7631 C   0  0  0  0  0  0  0  0  0  0  0  0
   10.5578   15.2650   20.9806 C   0  0  0  0  0  0  0  0  0  0  0  0
   10.2613   14.6329   22.0977 N   0  0  0  0  0  0  0  0  0  0  0  0
   11.4272   14.7378   22.8173 C   0  0  0  0  0  0  0  0  0  0  0  0
   11.6087   14.1469   24.1513 C   0  0  0  0  0  0  0  0  0  0  0  0
   10.5416   14.6563   25.0933 C   0  0  0  0  0  0  0  0  0  0  0  0
    9.3453   13.8611   25.1491 N   0  0  0  0  0  0  0  0  0  0  0  0
    8.9277   12.6098   24.3307 C   0  0  0  0  0  0  0  0  0  0  0  0
    9.5225   11.9898   23.5422 O   0  0  0  0  0  0  0  0  0  0  0  0
    7.5648   12.1544   24.7678 C   0  0  0  0  0  0  0  0  0  0  0  0
    7.2724   10.7872   24.9391 C   0  0  0  0  0  0  0  0  0  0  0  0
    8.1373    9.7074   24.3561 C   0  0  0  0  0  0  0  0  0  0  0  0
    6.1097   10.4337   25.6461 C   0  0  0  0  0  0  0  0  0  0  0  0
    5.2476   11.4086   26.1488 C   0  0  0  0  0  0  0  0  0  0  0  0
    5.4945   12.7509   25.8905 C   0  0  0  0  0  0  0  0  0  0  0  0
    6.6314   13.1102   25.1804 C   0  0  0  0  0  0  0  0  0  0  0  0
    6.8179   14.4463   24.9468 O   0  0  0  0  0  0  0  0  0  0  0  0
   12.3243   15.5125   22.1325 C   0  0  0  0  0  0  0  0  0  0  0  0
   11.7830   15.8478   20.9496 O   0  0  0  0  0  0  0  0  0  0  0  0
  1  2  1  0
  2  3  2  0
  3  4  1  0
  4  5  1  0
  5  6  1  0
  6  7  1  0
  7  8  1  0
  8  9  2  0
  8 10  1  0
 10 11  2  0
 11 12  1  0
 11 13  1  0
 13 14  2  0
 14 15  1  0
 15 16  2  0
 16 17  1  0
  4 18  2  0
 18 19  1  0
 19  2  1  0
 16 10  1  0
M  END
>  <distance_score>  (183) 
1.740019

>  <smiles>  (183) 
Cc1nc(CCNC(=O)c2c(C)cccc2O)co1

>  <fragmenstein_error>  (183) 
nan

>  <fragmenstein_runtime>  (183) 
nan

>  <gnina_score_min>  (183) 
5.058

>  <orig_smiles>  (183) 
nan

>  <fragmenstein_mode>  (183) 
nan

>  <rmsd(smina/fragmenstein)>  (183) 
0.834

>  <inspiration_score>  (183) 
None

>  <name>  (183) 
P499495

>  <ref_pdb>  (183) 
A5594a

>  <ref_mols>  (183) 
A3408a,A5594a

>  <subsites>  (183) 
None

>  <tags>  (183) 
openbind_a71ev2a_c1_elabs_filtered,openbind_a71ev2a_c1_elab_chemspace_filtered_scored

>  <inchikey>  (183) 
CMLKPUXNYGPJQF-UHFFFAOYSA-N

>  <scratch_subdir>  (183) 
nan

>  <smina_score_min>  (183) 
-5.906

>  <energy_score>  (183) 
-9.633012

>  <Energy>  (183) 
nan

>  <fragmenstein_outcome>  (183) 
nan

>  <alias>  (183) 
None

>  <HIPPO Pose ID>  (183) 
499495

>  <exports>  (183) 
['/opt/xchem-fragalysis-2/maxwin/openbind-hippo/a71ev2a/cycle_01/bulkdock/openbind_a71ev2a_c1_elab_chemspace.sdf', '/opt/xchem-fragalysis-2/maxwin/openbind-hippo/a71ev2a/cycle_01/syndirella/elabs/openbind_a71ev2a_c1_elab_chemspace_filtered.sdf']

>  <HIPPO Compound ID>  (183) 
306265

>  <gnina_score>  (183) 
5.123

$$$$
P499496
     RDKit          3D

 19 20  0  0  0  0  0  0  0  0999 V2000
    8.2541    9.3914   24.2088 C   0  0  0  0  0  0  0  0  0  0  0  0
    7.5925   10.6083   24.7919 C   0  0  0  0  0  0  0  0  0  0  0  0
    6.4161   10.4627   25.5512 C   0  0  0  0  0  0  0  0  0  0  0  0
    5.7767   11.5739   26.0973 C   0  0  0  0  0  0  0  0  0  0  0  0
    6.2955   12.8449   25.8777 C   0  0  0  0  0  0  0  0  0  0  0  0
    7.4470   13.0041   25.1084 C   0  0  0  0  0  0  0  0  0  0  0  0
    7.8877   14.2884   24.9617 O   0  0  0  0  0  0  0  0  0  0  0  0
    8.1162   11.8995   24.5709 C   0  0  0  0  0  0  0  0  0  0  0  0
    9.3629   12.0706   23.7586 C   0  0  0  0  0  0  0  0  0  0  0  0
    9.4728   11.4267   22.7975 O   0  0  0  0  0  0  0  0  0  0  0  0
   10.2974   13.1315   24.3580 N   0  0  0  0  0  0  0  0  0  0  0  0
   11.5304   13.6971   23.8469 C   0  0  2  0  0  0  0  0  0  0  0  0
   12.6347   13.6684   24.8766 C   0  0  0  0  0  0  0  0  0  0  0  0
   11.2954   15.1319   23.3720 C   0  0  0  0  0  0  0  0  0  0  0  0
   10.2570   15.1572   22.3278 C   0  0  0  0  0  0  0  0  0  0  0  0
   10.4283   15.1054   20.9690 C   0  0  0  0  0  0  0  0  0  0  0  0
    9.1956   15.0903   20.4024 O   0  0  0  0  0  0  0  0  0  0  0  0
    8.3434   15.1143   21.4581 C   0  0  0  0  0  0  0  0  0  0  0  0
    8.9137   15.1359   22.6408 N   0  0  0  0  0  0  0  0  0  0  0  0
  1  2  1  0
  2  3  2  0
  3  4  1  0
  4  5  2  0
  5  6  1  0
  6  7  1  0
  6  8  2  0
  8  9  1  0
  9 10  2  0
  9 11  1  0
 11 12  1  0
 12 13  1  1
 12 14  1  0
 14 15  1  0
 15 16  2  0
 16 17  1  0
 17 18  1  0
 18 19  2  0
  8  2  1  0
 19 15  1  0
M  END
>  <distance_score>  (184) 
1.577287

>  <smiles>  (184) 
Cc1cccc(O)c1C(=O)N[C@H](C)Cc1cocn1

>  <fragmenstein_error>  (184) 
nan

>  <fragmenstein_runtime>  (184) 
nan

>  <gnina_score_min>  (184) 
5.234

>  <orig_smiles>  (184) 
nan

>  <fragmenstein_mode>  (184) 
nan

>  <rmsd(smina/fragmenstein)>  (184) 
0.731

>  <inspiration_score>  (184) 
None

>  <name>  (184) 
P499496

>  <ref_pdb>  (184) 
A5594a

>  <ref_mols>  (184) 
A3408a,A5594a

>  <subsites>  (184) 
None

>  <tags>  (184) 
openbind_a71ev2a_c1_elabs_filtered,openbind_a71ev2a_c1_elab_chemspace_filtered_scored

>  <inchikey>  (184) 
CSPIOHACYGLLFV-SNVBAGLBSA-N

>  <scratch_subdir>  (184) 
nan

>  <smina_score_min>  (184) 
-5.7

>  <energy_score>  (184) 
-29.993041

>  <Energy>  (184) 
nan

>  <fragmenstein_outcome>  (184) 
nan

>  <alias>  (184) 
None

>  <HIPPO Pose ID>  (184) 
499496

>  <exports>  (184) 
['/opt/xchem-fragalysis-2/maxwin/openbind-hippo/a71ev2a/cycle_01/bulkdock/openbind_a71ev2a_c1_elab_chemspace.sdf', '/opt/xchem-fragalysis-2/maxwin/openbind-hippo/a71ev2a/cycle_01/syndirella/elabs/openbind_a71ev2a_c1_elab_chemspace_filtered.sdf']

>  <HIPPO Compound ID>  (184) 
306266

>  <gnina_score>  (184) 
5.29

$$$$
P499502
     RDKit          3D

 19 20  0  0  0  0  0  0  0  0999 V2000
    6.9325   14.0460   22.9113 C   0  0  0  0  0  0  0  0  0  0  0  0
    7.0850   14.1358   24.4212 C   0  0  0  0  0  0  0  0  0  0  0  0
    6.8502   12.8088   25.0987 C   0  0  0  0  0  0  0  0  0  0  0  0
    5.7433   12.7241   25.9647 C   0  0  0  0  0  0  0  0  0  0  0  0
    5.3095   11.4994   26.4595 C   0  0  0  0  0  0  0  0  0  0  0  0
    5.9645   10.3365   26.0819 C   0  0  0  0  0  0  0  0  0  0  0  0
    7.0975   10.4014   25.2706 C   0  0  0  0  0  0  0  0  0  0  0  0
    7.5775   11.6375   24.8139 C   0  0  0  0  0  0  0  0  0  0  0  0
    8.8170   11.6066   23.9724 C   0  0  0  0  0  0  0  0  0  0  0  0
    8.8834   10.8104   23.1284 O   0  0  0  0  0  0  0  0  0  0  0  0
    9.7854   12.7344   24.3546 N   0  0  0  0  0  0  0  0  0  0  0  0
   11.0886   13.0634   23.8382 C   0  0  0  0  0  0  0  0  0  0  0  0
   11.3395   14.5619   23.7878 C   0  0  0  0  0  0  0  0  0  0  0  0
   10.5422   15.2095   22.7251 C   0  0  0  0  0  0  0  0  0  0  0  0
    9.3627   15.8525   22.9932 N   0  0  0  0  0  0  0  0  0  0  0  0
    9.0051   16.3343   21.8207 C   0  0  0  0  0  0  0  0  0  0  0  0
    9.8110   15.9999   20.7866 O   0  0  0  0  0  0  0  0  0  0  0  0
   10.8093   15.2946   21.3795 C   0  0  0  0  0  0  0  0  0  0  0  0
   11.8876   14.8389   20.5089 C   0  0  0  0  0  0  0  0  0  0  0  0
  1  2  1  0
  2  3  1  0
  3  4  2  0
  4  5  1  0
  5  6  2  0
  6  7  1  0
  7  8  2  0
  8  9  1  0
  9 10  2  0
  9 11  1  0
 11 12  1  0
 12 13  1  0
 13 14  1  0
 14 15  1  0
 15 16  2  0
 16 17  1  0
 17 18  1  0
 18 19  1  0
  8  3  1  0
 18 14  2  0
M  END
>  <distance_score>  (185) 
1.275023

>  <smiles>  (185) 
CCc1ccccc1C(=O)NCCc1ncoc1C

>  <fragmenstein_error>  (185) 
nan

>  <fragmenstein_runtime>  (185) 
nan

>  <gnina_score_min>  (185) 
5.076

>  <orig_smiles>  (185) 
nan

>  <fragmenstein_mode>  (185) 
nan

>  <rmsd(smina/fragmenstein)>  (185) 
0.548

>  <inspiration_score>  (185) 
None

>  <name>  (185) 
P499502

>  <ref_pdb>  (185) 
A5594a

>  <ref_mols>  (185) 
A3408a,A5594a

>  <subsites>  (185) 
None

>  <tags>  (185) 
openbind_a71ev2a_c1_elabs_filtered,openbind_a71ev2a_c1_elab_chemspace_filtered_scored

>  <inchikey>  (185) 
LKDWHGIYOAJSDO-UHFFFAOYSA-N

>  <scratch_subdir>  (185) 
nan

>  <smina_score_min>  (185) 
-5.994

>  <energy_score>  (185) 
-7.008375

>  <Energy>  (185) 
nan

>  <fragmenstein_outcome>  (185) 
nan

>  <alias>  (185) 
None

>  <HIPPO Pose ID>  (185) 
499502

>  <exports>  (185) 
['/opt/xchem-fragalysis-2/maxwin/openbind-hippo/a71ev2a/cycle_01/bulkdock/openbind_a71ev2a_c1_elab_chemspace.sdf', '/opt/xchem-fragalysis-2/maxwin/openbind-hippo/a71ev2a/cycle_01/syndirella/elabs/openbind_a71ev2a_c1_elab_chemspace_filtered.sdf']

>  <HIPPO Compound ID>  (185) 
306273

>  <gnina_score>  (185) 
5.081

$$$$
P499510
     RDKit          3D

 19 20  0  0  0  0  0  0  0  0999 V2000
    7.0594   14.0643   24.3813 C   0  0  0  0  0  0  0  0  0  0  0  0
    6.7548   12.7690   25.0635 C   0  0  0  0  0  0  0  0  0  0  0  0
    5.6550   12.7357   25.9371 C   0  0  0  0  0  0  0  0  0  0  0  0
    5.2169   11.5313   26.4746 C   0  0  0  0  0  0  0  0  0  0  0  0
    3.8624   11.5100   27.5347 Cl  0  0  0  0  0  0  0  0  0  0  0  0
    5.8568   10.3460   26.1382 C   0  0  0  0  0  0  0  0  0  0  0  0
    6.9872   10.3727   25.3157 C   0  0  0  0  0  0  0  0  0  0  0  0
    7.4755   11.5884   24.8163 C   0  0  0  0  0  0  0  0  0  0  0  0
    8.7364   11.5397   24.0029 C   0  0  0  0  0  0  0  0  0  0  0  0
    8.8518   10.6864   23.2209 O   0  0  0  0  0  0  0  0  0  0  0  0
    9.7076   12.6627   24.4031 N   0  0  0  0  0  0  0  0  0  0  0  0
   10.9926   13.0306   23.8565 C   0  0  0  0  0  0  0  0  0  0  0  0
   11.2190   14.5358   23.8423 C   0  0  0  0  0  0  0  0  0  0  0  0
   10.3921   15.1691   22.7960 C   0  0  0  0  0  0  0  0  0  0  0  0
    9.1421   15.6683   23.0584 N   0  0  0  0  0  0  0  0  0  0  0  0
    8.7290   16.0838   21.8804 C   0  0  0  0  0  0  0  0  0  0  0  0
    9.5940   15.8781   20.8566 O   0  0  0  0  0  0  0  0  0  0  0  0
   10.6760   15.3155   21.4593 C   0  0  0  0  0  0  0  0  0  0  0  0
   11.8247   15.0025   20.6086 C   0  0  0  0  0  0  0  0  0  0  0  0
  1  2  1  0
  2  3  2  0
  3  4  1  0
  4  5  1  0
  4  6  2  0
  6  7  1  0
  7  8  2  0
  8  9  1  0
  9 10  2  0
  9 11  1  0
 11 12  1  0
 12 13  1  0
 13 14  1  0
 14 15  1  0
 15 16  2  0
 16 17  1  0
 17 18  1  0
 18 19  1  0
  8  2  1  0
 18 14  2  0
M  END
>  <distance_score>  (186) 
1.306372

>  <smiles>  (186) 
Cc1cc(Cl)ccc1C(=O)NCCc1ncoc1C

>  <fragmenstein_error>  (186) 
nan

>  <fragmenstein_runtime>  (186) 
nan

>  <gnina_score_min>  (186) 
4.752

>  <orig_smiles>  (186) 
nan

>  <fragmenstein_mode>  (186) 
nan

>  <rmsd(smina/fragmenstein)>  (186) 
0.667

>  <inspiration_score>  (186) 
None

>  <name>  (186) 
P499510

>  <ref_pdb>  (186) 
A5594a

>  <ref_mols>  (186) 
A3408a,A5594a

>  <subsites>  (186) 
None

>  <tags>  (186) 
openbind_a71ev2a_c1_elabs_filtered,openbind_a71ev2a_c1_elab_chemspace_filtered_scored

>  <inchikey>  (186) 
TUUCJDSYRSASBP-UHFFFAOYSA-N

>  <scratch_subdir>  (186) 
nan

>  <smina_score_min>  (186) 
-6.499

>  <energy_score>  (186) 
-6.912709

>  <Energy>  (186) 
nan

>  <fragmenstein_outcome>  (186) 
nan

>  <alias>  (186) 
None

>  <HIPPO Pose ID>  (186) 
499510

>  <exports>  (186) 
['/opt/xchem-fragalysis-2/maxwin/openbind-hippo/a71ev2a/cycle_01/bulkdock/openbind_a71ev2a_c1_elab_chemspace.sdf', '/opt/xchem-fragalysis-2/maxwin/openbind-hippo/a71ev2a/cycle_01/syndirella/elabs/openbind_a71ev2a_c1_elab_chemspace_filtered.sdf']

>  <HIPPO Compound ID>  (186) 
306288

>  <gnina_score>  (186) 
5.069

$$$$
P499523
     RDKit          3D

 19 20  0  0  0  0  0  0  0  0999 V2000
    7.2380   13.9589   25.4646 C   0  0  0  0  0  0  0  0  0  0  0  0
    6.4886   12.6761   25.6918 C   0  0  0  0  0  0  0  0  0  0  0  0
    5.3073   12.7924   26.4538 C   0  0  0  0  0  0  0  0  0  0  0  0
    4.5614   11.6753   26.8116 C   0  0  0  0  0  0  0  0  0  0  0  0
    3.4479   11.8570   27.5780 O   0  0  0  0  0  0  0  0  0  0  0  0
    4.9409   10.4131   26.4024 C   0  0  0  0  0  0  0  0  0  0  0  0
    6.0715   10.2848   25.6076 C   0  0  0  0  0  0  0  0  0  0  0  0
    6.8557   11.3953   25.2279 C   0  0  0  0  0  0  0  0  0  0  0  0
    8.1339   11.0126   24.5359 C   0  0  0  0  0  0  0  0  0  0  0  0
    8.4997    9.9299   24.7363 O   0  0  0  0  0  0  0  0  0  0  0  0
    8.7892   12.1486   23.7642 N   0  0  0  0  0  0  0  0  0  0  0  0
   10.0768   12.2334   23.1510 C   0  0  0  0  0  0  0  0  0  0  0  0
   10.7597   13.5587   23.4398 C   0  0  0  0  0  0  0  0  0  0  0  0
   10.1144   14.6230   22.6455 C   0  0  0  0  0  0  0  0  0  0  0  0
    8.8116   15.0037   22.8773 N   0  0  0  0  0  0  0  0  0  0  0  0
    8.5775   15.8704   21.9164 C   0  0  0  0  0  0  0  0  0  0  0  0
    9.6046   16.0657   21.0513 O   0  0  0  0  0  0  0  0  0  0  0  0
   10.5978   15.2719   21.5360 C   0  0  0  0  0  0  0  0  0  0  0  0
   11.8532   15.2410   20.7827 C   0  0  0  0  0  0  0  0  0  0  0  0
  1  2  1  0
  2  3  2  0
  3  4  1  0
  4  5  1  0
  4  6  2  0
  6  7  1  0
  7  8  2  0
  8  9  1  0
  9 10  2  0
  9 11  1  0
 11 12  1  0
 12 13  1  0
 13 14  1  0
 14 15  1  0
 15 16  2  0
 16 17  1  0
 17 18  1  0
 18 19  1  0
  8  2  1  0
 18 14  2  0
M  END
>  <distance_score>  (187) 
1.269492

>  <smiles>  (187) 
Cc1cc(O)ccc1C(=O)NCCc1ncoc1C

>  <fragmenstein_error>  (187) 
nan

>  <fragmenstein_runtime>  (187) 
nan

>  <gnina_score_min>  (187) 
4.567

>  <orig_smiles>  (187) 
nan

>  <fragmenstein_mode>  (187) 
nan

>  <rmsd(smina/fragmenstein)>  (187) 
0.707

>  <inspiration_score>  (187) 
None

>  <name>  (187) 
P499523

>  <ref_pdb>  (187) 
A5594a

>  <ref_mols>  (187) 
A3408a,A5594a

>  <subsites>  (187) 
None

>  <tags>  (187) 
openbind_a71ev2a_c1_elabs_filtered,openbind_a71ev2a_c1_elab_chemspace_filtered_scored

>  <inchikey>  (187) 
DIMDZNCJPOBNHF-UHFFFAOYSA-N

>  <scratch_subdir>  (187) 
nan

>  <smina_score_min>  (187) 
-6.416

>  <energy_score>  (187) 
-5.27511

>  <Energy>  (187) 
nan

>  <fragmenstein_outcome>  (187) 
nan

>  <alias>  (187) 
None

>  <HIPPO Pose ID>  (187) 
499523

>  <exports>  (187) 
['/opt/xchem-fragalysis-2/maxwin/openbind-hippo/a71ev2a/cycle_01/bulkdock/openbind_a71ev2a_c1_elab_chemspace.sdf', '/opt/xchem-fragalysis-2/maxwin/openbind-hippo/a71ev2a/cycle_01/syndirella/elabs/openbind_a71ev2a_c1_elab_chemspace_filtered.sdf']

>  <HIPPO Compound ID>  (187) 
306306

>  <gnina_score>  (187) 
4.996

$$$$
P499524
     RDKit          3D

 19 20  0  0  0  0  0  0  0  0999 V2000
    6.6231   14.3552   24.4787 C   0  0  0  0  0  0  0  0  0  0  0  0
    6.6024   12.9506   25.0055 C   0  0  0  0  0  0  0  0  0  0  0  0
    5.4852   12.5185   25.7353 C   0  0  0  0  0  0  0  0  0  0  0  0
    5.3547   11.1808   26.0799 C   0  0  0  0  0  0  0  0  0  0  0  0
    4.2402   10.7838   26.7579 O   0  0  0  0  0  0  0  0  0  0  0  0
    6.3157   10.2597   25.6920 C   0  0  0  0  0  0  0  0  0  0  0  0
    7.4697   10.6854   25.0363 C   0  0  0  0  0  0  0  0  0  0  0  0
    7.6448   12.0424   24.7542 C   0  0  0  0  0  0  0  0  0  0  0  0
    8.9943   12.5000   24.2942 C   0  0  0  0  0  0  0  0  0  0  0  0
    9.5807   11.8982   23.4894 O   0  0  0  0  0  0  0  0  0  0  0  0
    9.4017   13.7482   25.1018 N   0  0  0  0  0  0  0  0  0  0  0  0
   10.5812   14.5738   25.0188 C   0  0  2  0  0  0  0  0  0  0  0  0
   10.7723   15.3170   26.3490 C   0  0  0  0  0  0  0  0  0  0  0  0
   10.3552   15.6299   23.9577 C   0  0  0  0  0  0  0  0  0  0  0  0
   10.3365   15.1833   22.5615 C   0  0  0  0  0  0  0  0  0  0  0  0
   11.3912   14.8680   21.7425 C   0  0  0  0  0  0  0  0  0  0  0  0
   10.9225   14.8156   20.4685 O   0  0  0  0  0  0  0  0  0  0  0  0
    9.6009   15.0889   20.6024 C   0  0  0  0  0  0  0  0  0  0  0  0
    9.1755   15.2548   21.8313 N   0  0  0  0  0  0  0  0  0  0  0  0
  1  2  1  0
  2  3  2  0
  3  4  1  0
  4  5  1  0
  4  6  2  0
  6  7  1  0
  7  8  2  0
  8  9  1  0
  9 10  2  0
  9 11  1  0
 11 12  1  0
 12 13  1  1
 12 14  1  0
 14 15  1  0
 15 16  2  0
 16 17  1  0
 17 18  1  0
 18 19  2  0
  8  2  1  0
 19 15  1  0
M  END
>  <distance_score>  (188) 
1.376521

>  <smiles>  (188) 
Cc1cc(O)ccc1C(=O)N[C@H](C)Cc1cocn1

>  <fragmenstein_error>  (188) 
nan

>  <fragmenstein_runtime>  (188) 
nan

>  <gnina_score_min>  (188) 
4.862

>  <orig_smiles>  (188) 
nan

>  <fragmenstein_mode>  (188) 
nan

>  <rmsd(smina/fragmenstein)>  (188) 
0.637

>  <inspiration_score>  (188) 
None

>  <name>  (188) 
P499524

>  <ref_pdb>  (188) 
A5594a

>  <ref_mols>  (188) 
A3408a,A5594a

>  <subsites>  (188) 
None

>  <tags>  (188) 
openbind_a71ev2a_c1_elabs_filtered,openbind_a71ev2a_c1_elab_chemspace_filtered_scored

>  <inchikey>  (188) 
DCUJIRWADWUGAN-SNVBAGLBSA-N

>  <scratch_subdir>  (188) 
nan

>  <smina_score_min>  (188) 
-6.218

>  <energy_score>  (188) 
-11.132324

>  <Energy>  (188) 
nan

>  <fragmenstein_outcome>  (188) 
nan

>  <alias>  (188) 
None

>  <HIPPO Pose ID>  (188) 
499524

>  <exports>  (188) 
['/opt/xchem-fragalysis-2/maxwin/openbind-hippo/a71ev2a/cycle_01/bulkdock/openbind_a71ev2a_c1_elab_chemspace.sdf', '/opt/xchem-fragalysis-2/maxwin/openbind-hippo/a71ev2a/cycle_01/syndirella/elabs/openbind_a71ev2a_c1_elab_chemspace_filtered.sdf']

>  <HIPPO Compound ID>  (188) 
306308

>  <gnina_score>  (188) 
4.881

$$$$
P499527
     RDKit          3D

 19 20  0  0  0  0  0  0  0  0999 V2000
    9.9787   15.5506   19.5209 C   0  0  0  0  0  0  0  0  0  0  0  0
   10.5158   15.4775   20.8717 C   0  0  0  0  0  0  0  0  0  0  0  0
    9.9811   14.9861   21.9680 N   0  0  0  0  0  0  0  0  0  0  0  0
   11.0410   14.9659   22.8332 C   0  0  0  0  0  0  0  0  0  0  0  0
   10.9796   14.2021   24.0789 C   0  0  0  0  0  0  0  0  0  0  0  0
   10.6480   12.7475   23.7546 C   0  0  0  0  0  0  0  0  0  0  0  0
    9.3822   12.3872   24.3234 N   0  0  0  0  0  0  0  0  0  0  0  0
    7.9838   12.4022   23.7177 C   0  0  0  0  0  0  0  0  0  0  0  0
    7.6345   12.6349   22.6365 O   0  0  0  0  0  0  0  0  0  0  0  0
    7.0152   12.1574   24.7956 C   0  0  0  0  0  0  0  0  0  0  0  0
    6.6383   10.8661   25.1478 C   0  0  0  0  0  0  0  0  0  0  0  0
    5.7006   10.7255   26.1579 C   0  0  0  0  0  0  0  0  0  0  0  0
    5.2609    9.5123   26.4899 F   0  0  0  0  0  0  0  0  0  0  0  0
    5.1953   11.8235   26.8460 C   0  0  0  0  0  0  0  0  0  0  0  0
    5.6296   13.1055   26.5217 C   0  0  0  0  0  0  0  0  0  0  0  0
    6.5453   13.2871   25.4844 C   0  0  0  0  0  0  0  0  0  0  0  0
    7.0494   14.6588   25.1399 C   0  0  0  0  0  0  0  0  0  0  0  0
   12.1287   15.5665   22.2597 C   0  0  0  0  0  0  0  0  0  0  0  0
   11.7983   15.9110   20.9980 O   0  0  0  0  0  0  0  0  0  0  0  0
  1  2  1  0
  2  3  2  0
  3  4  1  0
  4  5  1  0
  5  6  1  0
  6  7  1  0
  7  8  1  0
  8  9  2  0
  8 10  1  0
 10 11  2  0
 11 12  1  0
 12 13  1  0
 12 14  2  0
 14 15  1  0
 15 16  2  0
 16 17  1  0
  4 18  2  0
 18 19  1  0
 19  2  1  0
 16 10  1  0
M  END
>  <distance_score>  (189) 
1.883732

>  <smiles>  (189) 
Cc1nc(CCNC(=O)c2cc(F)ccc2C)co1

>  <fragmenstein_error>  (189) 
nan

>  <fragmenstein_runtime>  (189) 
nan

>  <gnina_score_min>  (189) 
4.981

>  <orig_smiles>  (189) 
nan

>  <fragmenstein_mode>  (189) 
nan

>  <rmsd(smina/fragmenstein)>  (189) 
0.558

>  <inspiration_score>  (189) 
None

>  <name>  (189) 
P499527

>  <ref_pdb>  (189) 
A5594a

>  <ref_mols>  (189) 
A3408a,A5594a

>  <subsites>  (189) 
None

>  <tags>  (189) 
openbind_a71ev2a_c1_elabs_filtered,openbind_a71ev2a_c1_elab_chemspace_filtered_scored

>  <inchikey>  (189) 
AHKWZQWPJBVFRD-UHFFFAOYSA-N

>  <scratch_subdir>  (189) 
nan

>  <smina_score_min>  (189) 
-5.89

>  <energy_score>  (189) 
-8.425401

>  <Energy>  (189) 
nan

>  <fragmenstein_outcome>  (189) 
nan

>  <alias>  (189) 
None

>  <HIPPO Pose ID>  (189) 
499527

>  <exports>  (189) 
['/opt/xchem-fragalysis-2/maxwin/openbind-hippo/a71ev2a/cycle_01/syndirella/elabs/openbind_a71ev2a_c1_elab_chemspace_filtered.sdf']

>  <HIPPO Compound ID>  (189) 
306312

>  <gnina_score>  (189) 
5.006

$$$$
P499529
     RDKit          3D

 19 20  0  0  0  0  0  0  0  0999 V2000
   12.0150   13.2930   24.1293 C   0  0  0  0  0  0  0  0  0  0  0  0
   10.8554   14.0895   24.6889 C   0  0  1  0  0  0  0  0  0  0  0  0
   10.6104   15.4108   23.9681 C   0  0  0  0  0  0  0  0  0  0  0  0
   10.5087   15.3141   22.5027 C   0  0  0  0  0  0  0  0  0  0  0  0
   11.5243   15.3334   21.5749 C   0  0  0  0  0  0  0  0  0  0  0  0
   10.9639   15.2924   20.3404 O   0  0  0  0  0  0  0  0  0  0  0  0
    9.6332   15.2701   20.5936 C   0  0  0  0  0  0  0  0  0  0  0  0
    9.2928   15.2553   21.8651 N   0  0  0  0  0  0  0  0  0  0  0  0
    9.6226   13.3551   24.8620 N   0  0  0  0  0  0  0  0  0  0  0  0
    9.0717   12.1235   24.1046 C   0  0  0  0  0  0  0  0  0  0  0  0
    9.5608   11.4654   23.2772 O   0  0  0  0  0  0  0  0  0  0  0  0
    7.6995   11.8331   24.6325 C   0  0  0  0  0  0  0  0  0  0  0  0
    7.4091   10.5710   25.1471 C   0  0  0  0  0  0  0  0  0  0  0  0
    6.2341   10.3818   25.8766 C   0  0  0  0  0  0  0  0  0  0  0  0
    5.3658   11.4453   26.1052 C   0  0  0  0  0  0  0  0  0  0  0  0
    5.6079   12.6767   25.5036 C   0  0  0  0  0  0  0  0  0  0  0  0
    6.7411   12.8581   24.7005 C   0  0  0  0  0  0  0  0  0  0  0  0
    6.8617   14.0855   23.8448 C   0  0  0  0  0  0  0  0  0  0  0  0
    7.2754   13.6847   22.5461 O   0  0  0  0  0  0  0  0  0  0  0  0
  2  1  1  6
  2  3  1  0
  3  4  1  0
  4  5  2  0
  5  6  1  0
  6  7  1  0
  7  8  2  0
  2  9  1  0
  9 10  1  0
 10 11  2  0
 10 12  1  0
 12 13  2  0
 13 14  1  0
 14 15  2  0
 15 16  1  0
 16 17  2  0
 17 18  1  0
 18 19  1  0
  8  4  1  0
 17 12  1  0
M  END
>  <distance_score>  (190) 
1.40955

>  <smiles>  (190) 
C[C@@H](Cc1cocn1)NC(=O)c1ccccc1CO

>  <fragmenstein_error>  (190) 
nan

>  <fragmenstein_runtime>  (190) 
nan

>  <gnina_score_min>  (190) 
4.689

>  <orig_smiles>  (190) 
nan

>  <fragmenstein_mode>  (190) 
nan

>  <rmsd(smina/fragmenstein)>  (190) 
0.367

>  <inspiration_score>  (190) 
None

>  <name>  (190) 
P499529

>  <ref_pdb>  (190) 
A5594a

>  <ref_mols>  (190) 
A3408a,A5594a

>  <subsites>  (190) 
None

>  <tags>  (190) 
openbind_a71ev2a_c1_elabs_filtered,openbind_a71ev2a_c1_elab_chemspace_filtered_scored

>  <inchikey>  (190) 
HOQCOCVZGRWVMJ-JTQLQIEISA-N

>  <scratch_subdir>  (190) 
nan

>  <smina_score_min>  (190) 
-5.721

>  <energy_score>  (190) 
-5.66668

>  <Energy>  (190) 
nan

>  <fragmenstein_outcome>  (190) 
nan

>  <alias>  (190) 
None

>  <HIPPO Pose ID>  (190) 
499529

>  <exports>  (190) 
['/opt/xchem-fragalysis-2/maxwin/openbind-hippo/a71ev2a/cycle_01/bulkdock/openbind_a71ev2a_c1_elab_chemspace.sdf', '/opt/xchem-fragalysis-2/maxwin/openbind-hippo/a71ev2a/cycle_01/syndirella/elabs/openbind_a71ev2a_c1_elab_chemspace_filtered.sdf']

>  <HIPPO Compound ID>  (190) 
306314

>  <gnina_score>  (190) 
4.748

$$$$
P499530
     RDKit          3D

 19 20  0  0  0  0  0  0  0  0999 V2000
   11.9085   15.0182   20.5691 C   0  0  0  0  0  0  0  0  0  0  0  0
   10.7392   15.3192   21.3924 C   0  0  0  0  0  0  0  0  0  0  0  0
    9.8747   16.2450   20.9029 O   0  0  0  0  0  0  0  0  0  0  0  0
    8.9192   16.3335   21.8586 C   0  0  0  0  0  0  0  0  0  0  0  0
    9.0804   15.5286   22.8919 N   0  0  0  0  0  0  0  0  0  0  0  0
   10.2472   14.8613   22.5911 C   0  0  0  0  0  0  0  0  0  0  0  0
   10.7853   13.7726   23.4366 C   0  0  0  0  0  0  0  0  0  0  0  0
   10.1541   12.4364   23.0620 C   0  0  0  0  0  0  0  0  0  0  0  0
    8.8638   12.2684   23.6499 N   0  0  0  0  0  0  0  0  0  0  0  0
    8.2771   11.1021   24.4329 C   0  0  0  0  0  0  0  0  0  0  0  0
    8.7176   10.0542   24.6642 O   0  0  0  0  0  0  0  0  0  0  0  0
    6.9547   11.4074   25.0907 C   0  0  0  0  0  0  0  0  0  0  0  0
    6.2414   10.2711   25.5210 C   0  0  0  0  0  0  0  0  0  0  0  0
    5.1140   10.3739   26.3286 C   0  0  0  0  0  0  0  0  0  0  0  0
    4.6718   11.6252   26.7239 C   0  0  0  0  0  0  0  0  0  0  0  0
    5.3558   12.7655   26.3094 C   0  0  0  0  0  0  0  0  0  0  0  0
    6.5123   12.6832   25.5081 C   0  0  0  0  0  0  0  0  0  0  0  0
    7.1924   13.9825   25.1880 C   0  0  0  0  0  0  0  0  0  0  0  0
    7.1097   14.1630   23.7834 O   0  0  0  0  0  0  0  0  0  0  0  0
  1  2  1  0
  2  3  1  0
  3  4  1  0
  4  5  2  0
  5  6  1  0
  6  7  1  0
  7  8  1  0
  8  9  1  0
  9 10  1  0
 10 11  2  0
 10 12  1  0
 12 13  2  0
 13 14  1  0
 14 15  2  0
 15 16  1  0
 16 17  2  0
 17 18  1  0
 18 19  1  0
  6  2  2  0
 17 12  1  0
M  END
>  <distance_score>  (191) 
1.546397

>  <smiles>  (191) 
Cc1ocnc1CCNC(=O)c1ccccc1CO

>  <fragmenstein_error>  (191) 
nan

>  <fragmenstein_runtime>  (191) 
nan

>  <gnina_score_min>  (191) 
4.43

>  <orig_smiles>  (191) 
nan

>  <fragmenstein_mode>  (191) 
nan

>  <rmsd(smina/fragmenstein)>  (191) 
0.745

>  <inspiration_score>  (191) 
None

>  <name>  (191) 
P499530

>  <ref_pdb>  (191) 
A5594a

>  <ref_mols>  (191) 
A3408a,A5594a

>  <subsites>  (191) 
None

>  <tags>  (191) 
openbind_a71ev2a_c1_elabs_filtered,openbind_a71ev2a_c1_elab_chemspace_filtered_scored

>  <inchikey>  (191) 
VGOKRLIGDWUZIA-UHFFFAOYSA-N

>  <scratch_subdir>  (191) 
nan

>  <smina_score_min>  (191) 
-6.25

>  <energy_score>  (191) 
-10.443946

>  <Energy>  (191) 
nan

>  <fragmenstein_outcome>  (191) 
nan

>  <alias>  (191) 
None

>  <HIPPO Pose ID>  (191) 
499530

>  <exports>  (191) 
['/opt/xchem-fragalysis-2/maxwin/openbind-hippo/a71ev2a/cycle_01/bulkdock/openbind_a71ev2a_c1_elab_chemspace.sdf', '/opt/xchem-fragalysis-2/maxwin/openbind-hippo/a71ev2a/cycle_01/syndirella/elabs/openbind_a71ev2a_c1_elab_chemspace_filtered.sdf']

>  <HIPPO Compound ID>  (191) 
306315

>  <gnina_score>  (191) 
4.826

$$$$
P499570
     RDKit          3D

 20 21  0  0  0  0  0  0  0  0999 V2000
    6.8691   14.4993   23.5158 C   0  0  0  0  0  0  0  0  0  0  0  0
    7.3123   14.2097   24.8467 O   0  0  0  0  0  0  0  0  0  0  0  0
    7.0681   12.8876   25.0953 C   0  0  0  0  0  0  0  0  0  0  0  0
    5.9315   12.5930   25.8482 C   0  0  0  0  0  0  0  0  0  0  0  0
    5.5901   11.2708   26.0728 C   0  0  0  0  0  0  0  0  0  0  0  0
    6.3762   10.2611   25.5222 C   0  0  0  0  0  0  0  0  0  0  0  0
    7.5506   10.5485   24.7971 C   0  0  0  0  0  0  0  0  0  0  0  0
    8.3323    9.4203   24.1861 C   0  0  0  0  0  0  0  0  0  0  0  0
    7.9299   11.8911   24.6222 C   0  0  0  0  0  0  0  0  0  0  0  0
    9.2704   12.2517   24.0236 C   0  0  0  0  0  0  0  0  0  0  0  0
    9.7026   11.5877   23.1708 O   0  0  0  0  0  0  0  0  0  0  0  0
    9.8915   13.4496   24.7689 N   0  0  0  0  0  0  0  0  0  0  0  0
   11.1353   14.1392   24.5561 C   0  0  0  0  0  0  0  0  0  0  0  0
   11.5582   14.2519   23.1155 C   0  0  0  0  0  0  0  0  0  0  0  0
   10.6405   15.0283   22.2672 C   0  0  0  0  0  0  0  0  0  0  0  0
    9.5060   15.6600   22.7067 N   0  0  0  0  0  0  0  0  0  0  0  0
    9.0671   16.2728   21.6284 C   0  0  0  0  0  0  0  0  0  0  0  0
    9.7948   16.0632   20.5029 O   0  0  0  0  0  0  0  0  0  0  0  0
   10.8214   15.2892   20.9349 C   0  0  0  0  0  0  0  0  0  0  0  0
   11.8813   14.9629   19.9877 C   0  0  0  0  0  0  0  0  0  0  0  0
  1  2  1  0
  2  3  1  0
  3  4  2  0
  4  5  1  0
  5  6  2  0
  6  7  1  0
  7  8  1  0
  7  9  2  0
  9 10  1  0
 10 11  2  0
 10 12  1  0
 12 13  1  0
 13 14  1  0
 14 15  1  0
 15 16  1  0
 16 17  2  0
 17 18  1  0
 18 19  1  0
 19 20  1  0
  9  3  1  0
 19 15  2  0
M  END
>  <distance_score>  (192) 
1.582871

>  <smiles>  (192) 
COc1cccc(C)c1C(=O)NCCc1ncoc1C

>  <fragmenstein_error>  (192) 
nan

>  <fragmenstein_runtime>  (192) 
nan

>  <gnina_score_min>  (192) 
5.289

>  <orig_smiles>  (192) 
nan

>  <fragmenstein_mode>  (192) 
nan

>  <rmsd(smina/fragmenstein)>  (192) 
0.468

>  <inspiration_score>  (192) 
None

>  <name>  (192) 
P499570

>  <ref_pdb>  (192) 
A5594a

>  <ref_mols>  (192) 
A3408a,A5594a

>  <subsites>  (192) 
None

>  <tags>  (192) 
openbind_a71ev2a_c1_elabs_filtered,openbind_a71ev2a_c1_elab_chemspace_filtered_scored

>  <inchikey>  (192) 
CUTSFMLIRTXKQW-UHFFFAOYSA-N

>  <scratch_subdir>  (192) 
nan

>  <smina_score_min>  (192) 
-6.147

>  <energy_score>  (192) 
-24.477086

>  <Energy>  (192) 
nan

>  <fragmenstein_outcome>  (192) 
nan

>  <alias>  (192) 
None

>  <HIPPO Pose ID>  (192) 
499570

>  <exports>  (192) 
['/opt/xchem-fragalysis-2/maxwin/openbind-hippo/a71ev2a/cycle_01/bulkdock/openbind_a71ev2a_c1_elab_chemspace.sdf', '/opt/xchem-fragalysis-2/maxwin/openbind-hippo/a71ev2a/cycle_01/syndirella/elabs/openbind_a71ev2a_c1_elab_chemspace_filtered.sdf']

>  <HIPPO Compound ID>  (192) 
306386

>  <gnina_score>  (192) 
5.309

$$$$
P499612
     RDKit          3D

 21 22  0  0  0  0  0  0  0  0999 V2000
    6.9490   14.3658   23.1802 C   0  0  0  0  0  0  0  0  0  0  0  0
    7.3599   14.2697   24.5519 O   0  0  0  0  0  0  0  0  0  0  0  0
    6.5227   13.4187   25.2336 C   0  0  0  0  0  0  0  0  0  0  0  0
    5.5067   14.0219   25.9711 C   0  0  0  0  0  0  0  0  0  0  0  0
    4.6215   13.2420   26.7008 C   0  0  0  0  0  0  0  0  0  0  0  0
    4.7589   11.8620   26.7001 C   0  0  0  0  0  0  0  0  0  0  0  0
    5.8010   11.2428   25.9935 C   0  0  0  0  0  0  0  0  0  0  0  0
    5.8203    9.7541   26.0415 C   0  0  0  0  0  0  0  0  0  0  0  0
    6.7127   12.0286   25.2593 C   0  0  0  0  0  0  0  0  0  0  0  0
    7.8684   11.3966   24.5305 C   0  0  0  0  0  0  0  0  0  0  0  0
    7.7517   10.3167   24.1214 O   0  0  0  0  0  0  0  0  0  0  0  0
    9.0475   12.3684   24.4434 N   0  0  0  0  0  0  0  0  0  0  0  0
   10.3549   12.1875   23.9222 C   0  0  0  0  0  0  0  0  0  0  0  0
   10.5560   12.7116   22.5497 C   0  0  0  0  0  0  0  0  0  0  0  0
   10.1953   14.0954   22.3051 C   0  0  0  0  0  0  0  0  0  0  0  0
    9.6350   14.4111   21.1116 N   0  0  0  0  0  0  0  0  0  0  0  0
   10.0202   15.6508   20.9465 C   0  0  0  0  0  0  0  0  0  0  0  0
   10.2011   16.3406   19.6696 C   0  0  0  0  0  0  0  0  0  0  0  0
   10.5105   16.2516   22.0780 O   0  0  0  0  0  0  0  0  0  0  0  0
   10.5676   15.2270   22.9812 C   0  0  0  0  0  0  0  0  0  0  0  0
   11.1225   15.4763   24.3140 C   0  0  0  0  0  0  0  0  0  0  0  0
  1  2  1  0
  2  3  1  0
  3  4  2  0
  4  5  1  0
  5  6  2  0
  6  7  1  0
  7  8  1  0
  7  9  2  0
  9 10  1  0
 10 11  2  0
 10 12  1  0
 12 13  1  0
 13 14  1  0
 14 15  1  0
 15 16  1  0
 16 17  2  0
 17 18  1  0
 17 19  1  0
 19 20  1  0
 20 21  1  0
  9  3  1  0
 20 15  2  0
M  END
>  <distance_score>  (193) 
1.996579

>  <smiles>  (193) 
COc1cccc(C)c1C(=O)NCCc1nc(C)oc1C

>  <fragmenstein_error>  (193) 
nan

>  <fragmenstein_runtime>  (193) 
nan

>  <gnina_score_min>  (193) 
4.689

>  <orig_smiles>  (193) 
nan

>  <fragmenstein_mode>  (193) 
nan

>  <rmsd(smina/fragmenstein)>  (193) 
0.803

>  <inspiration_score>  (193) 
None

>  <name>  (193) 
P499612

>  <ref_pdb>  (193) 
A5594a

>  <ref_mols>  (193) 
A3408a,A5594a

>  <subsites>  (193) 
None

>  <tags>  (193) 
openbind_a71ev2a_c1_elabs_filtered,openbind_a71ev2a_c1_elab_chemspace_filtered_scored

>  <inchikey>  (193) 
WPDXYYOJNMWFCW-UHFFFAOYSA-N

>  <scratch_subdir>  (193) 
nan

>  <smina_score_min>  (193) 
-5.592

>  <energy_score>  (193) 
-21.242873

>  <Energy>  (193) 
nan

>  <fragmenstein_outcome>  (193) 
nan

>  <alias>  (193) 
None

>  <HIPPO Pose ID>  (193) 
499612

>  <exports>  (193) 
['/opt/xchem-fragalysis-2/maxwin/openbind-hippo/a71ev2a/cycle_01/bulkdock/openbind_a71ev2a_c1_elab_chemspace.sdf', '/opt/xchem-fragalysis-2/maxwin/openbind-hippo/a71ev2a/cycle_01/syndirella/elabs/openbind_a71ev2a_c1_elab_chemspace_filtered.sdf']

>  <HIPPO Compound ID>  (193) 
306488

>  <gnina_score>  (193) 
5.027

$$$$
AUVHKVNKJKAPGI-UHFFFAOYSA-N-P308-P15-P308-601501
     RDKit          3D

 17 18  0  0  0  0  0  0  0  0999 V2000
    7.9588   14.1413   22.4259 C   0  0  0  0  0  0  0  0  0  0  0  0
    9.2679   14.0152   23.1924 C   0  0  0  0  0  0  0  0  0  0  0  0
    9.3322   12.8215   24.0707 N   0  0  0  0  0  0  0  0  0  0  0  0
   10.5797   12.5421   24.6805 N   0  0  0  0  0  0  0  0  0  0  0  0
    8.2262   12.5437   24.8838 C   0  0  0  0  0  0  0  0  0  0  0  0
    7.5849   13.5687   25.5682 C   0  0  0  0  0  0  0  0  0  0  0  0
    6.4525   13.4438   26.2766 N   0  0  0  0  0  0  0  0  0  0  0  0
    5.8730   12.2309   26.3428 C   0  0  0  0  0  0  0  0  0  0  0  0
    4.5461   12.1844   27.0225 C   0  0  0  0  0  0  0  0  0  0  0  0
    4.2948   11.3855   28.2676 C   0  0  0  0  0  0  0  0  0  0  0  0
    4.4285   12.8760   28.3637 C   0  0  0  0  0  0  0  0  0  0  0  0
    6.4732   11.1209   25.7772 C   0  0  0  0  0  0  0  0  0  0  0  0
    7.6661   11.2689   25.0516 C   0  0  0  0  0  0  0  0  0  0  0  0
    8.1876    9.9996   24.4937 C   0  0  0  0  0  0  0  0  0  0  0  0
    7.7724    8.9214   24.9010 O   0  0  0  0  0  0  0  0  0  0  0  0
    9.0577   10.1658   23.4803 O   0  0  0  0  0  0  0  0  0  0  0  0
    9.5722    8.9434   22.9605 C   0  0  0  0  0  0  0  0  0  0  0  0
  1  2  1  0
  2  3  1  0
  3  4  1  0
  3  5  1  0
  5  6  2  0
  6  7  1  0
  7  8  2  0
  8  9  1  0
  9 10  1  0
 10 11  1  0
  8 12  1  0
 12 13  2  0
 13 14  1  0
 14 15  2  0
 14 16  1  0
 16 17  1  0
 13  5  1  0
 11  9  1  0
M  END
>  <distance_score>  (194) 
1.808149

>  <smiles>  (194) 
CCN(N)c1cnc(C2CC2)cc1C(=O)OC

>  <fragmenstein_error>  (194) 


>  <fragmenstein_runtime>  (194) 
2.758443

>  <gnina_score_min>  (194) 
4.213

>  <orig_smiles>  (194) 
CCN(N)c1cnc(C2CC2)cc1C(=O)OC

>  <fragmenstein_mode>  (194) 
expansion

>  <rmsd(smina/fragmenstein)>  (194) 
1.608

>  <inspiration_score>  (194) 
None

>  <name>  (194) 
AUVHKVNKJKAPGI-UHFFFAOYSA-N-P308-P15-P308-601501

>  <ref_pdb>  (194) 
A0528a

>  <ref_mols>  (194) 
A4331a,A0514a

>  <subsites>  (194) 
None

>  <tags>  (194) 
openbind_a71ev2a_c1_elabs_filtered,fragmenstein_placed,a71ev2a_c1_elab_bulkdock_input,openbind_a71ev2a_c1_elab_chemspace_filtered_scored

>  <inchikey>  (194) 
AUVHKVNKJKAPGI-UHFFFAOYSA-N

>  <scratch_subdir>  (194) 
/opt/xchem-fragalysis-2/maxwin/BulkDock/SCRATCH/601501/AUVHKVNKJKAPGI-UHFFFAOYSA-N-P308-P15-P308-601501

>  <smina_score_min>  (194) 
-4.856

>  <energy_score>  (194) 
-27.418614

>  <Energy>  (194) 
91.276251

>  <fragmenstein_outcome>  (194) 
too moved

>  <alias>  (194) 
AUVHKVNKJKAPGI-UHFFFAOYSA-N-P308-P15-P308-601501

>  <HIPPO Pose ID>  (194) 
501625

>  <exports>  (194) 
['/opt/xchem-fragalysis-2/maxwin/openbind-hippo/a71ev2a/cycle_01/bulkdock/openbind_a71ev2a_c1_elab_chemspace.sdf', '/opt/xchem-fragalysis-2/maxwin/openbind-hippo/a71ev2a/cycle_01/syndirella/elabs/openbind_a71ev2a_c1_elab_chemspace_filtered.sdf']

>  <HIPPO Compound ID>  (194) 
292526

>  <gnina_score>  (194) 
4.798

$$$$
DVXCEQZJZBEIOB-UHFFFAOYSA-N-P308-P15-P308-601501
     RDKit          3D

 18 19  0  0  0  0  0  0  0  0999 V2000
    9.4652    8.6003   23.1066 C   0  0  0  0  0  0  0  0  0  0  0  0
    8.5737    9.4713   23.7923 O   0  0  0  0  0  0  0  0  0  0  0  0
    9.1911   10.4631   24.4719 C   0  0  0  0  0  0  0  0  0  0  0  0
   10.3919   10.6211   24.6293 O   0  0  0  0  0  0  0  0  0  0  0  0
    8.1311   11.3605   24.9772 C   0  0  0  0  0  0  0  0  0  0  0  0
    7.0342   10.7975   25.6442 C   0  0  0  0  0  0  0  0  0  0  0  0
    6.0898   11.6394   26.2135 C   0  0  0  0  0  0  0  0  0  0  0  0
    5.0180   11.1516   27.1498 C   0  0  0  0  0  0  0  0  0  0  0  0
    3.8109   12.0157   27.4520 C   0  0  0  0  0  0  0  0  0  0  0  0
    4.8873   11.8777   28.4792 C   0  0  0  0  0  0  0  0  0  0  0  0
    6.1759   12.9770   26.0551 N   0  0  0  0  0  0  0  0  0  0  0  0
    7.2100   13.4873   25.3688 C   0  0  0  0  0  0  0  0  0  0  0  0
    8.2376   12.7444   24.8090 C   0  0  0  0  0  0  0  0  0  0  0  0
    9.3242   13.3509   24.1492 N   0  0  0  0  0  0  0  0  0  0  0  0
   10.4898   13.4108   24.9757 N   0  0  0  0  0  0  0  0  0  0  0  0
    8.9770   14.5627   23.3661 C   0  0  0  0  0  0  0  0  0  0  0  0
   10.1169   14.9649   22.4432 C   0  0  0  0  0  0  0  0  0  0  0  0
   11.1573   15.4144   23.2086 F   0  0  0  0  0  0  0  0  0  0  0  0
  1  2  1  0
  2  3  1  0
  3  4  2  0
  3  5  1  0
  5  6  2  0
  6  7  1  0
  7  8  1  0
  8  9  1  0
  9 10  1  0
  7 11  2  0
 11 12  1  0
 12 13  2  0
 13 14  1  0
 14 15  1  0
 14 16  1  0
 16 17  1  0
 17 18  1  0
 13  5  1  0
 10  8  1  0
M  END
>  <distance_score>  (195) 
1.333948

>  <smiles>  (195) 
COC(=O)c1cc(C2CC2)ncc1N(N)CCF

>  <fragmenstein_error>  (195) 


>  <fragmenstein_runtime>  (195) 
2.533201

>  <gnina_score_min>  (195) 
4.555

>  <orig_smiles>  (195) 
COC(=O)c1cc(C2CC2)ncc1N(N)CCF

>  <fragmenstein_mode>  (195) 
expansion

>  <rmsd(smina/fragmenstein)>  (195) 
1.389

>  <inspiration_score>  (195) 
None

>  <name>  (195) 
DVXCEQZJZBEIOB-UHFFFAOYSA-N-P308-P15-P308-601501

>  <ref_pdb>  (195) 
A0528a

>  <ref_mols>  (195) 
A4331a,A0514a

>  <subsites>  (195) 
None

>  <tags>  (195) 
openbind_a71ev2a_c1_elabs_filtered,fragmenstein_placed,a71ev2a_c1_elab_bulkdock_input,openbind_a71ev2a_c1_elab_chemspace_filtered_scored

>  <inchikey>  (195) 
DVXCEQZJZBEIOB-UHFFFAOYSA-N

>  <scratch_subdir>  (195) 
/opt/xchem-fragalysis-2/maxwin/BulkDock/SCRATCH/601501/DVXCEQZJZBEIOB-UHFFFAOYSA-N-P308-P15-P308-601501

>  <smina_score_min>  (195) 
-5.324

>  <energy_score>  (195) 
-32.093459

>  <Energy>  (195) 
104.955052

>  <fragmenstein_outcome>  (195) 
too moved

>  <alias>  (195) 
DVXCEQZJZBEIOB-UHFFFAOYSA-N-P308-P15-P308-601501

>  <HIPPO Pose ID>  (195) 
501629

>  <exports>  (195) 
['/opt/xchem-fragalysis-2/maxwin/openbind-hippo/a71ev2a/cycle_01/bulkdock/openbind_a71ev2a_c1_elab_chemspace.sdf', '/opt/xchem-fragalysis-2/maxwin/openbind-hippo/a71ev2a/cycle_01/syndirella/elabs/openbind_a71ev2a_c1_elab_chemspace_filtered.sdf']

>  <HIPPO Compound ID>  (195) 
292528

>  <gnina_score>  (195) 
4.996

$$$$
WSWLXYHAJMPWAD-UHFFFAOYSA-N-P308-P15-P308-601501
     RDKit          3D

 18 20  0  0  0  0  0  0  0  0999 V2000
    9.6286    8.4848   23.4868 C   0  0  0  0  0  0  0  0  0  0  0  0
    8.8795    9.3485   24.3354 O   0  0  0  0  0  0  0  0  0  0  0  0
    8.8532   10.6204   23.8775 C   0  0  0  0  0  0  0  0  0  0  0  0
    9.3472   11.0111   22.8333 O   0  0  0  0  0  0  0  0  0  0  0  0
    8.1156   11.4890   24.8132 C   0  0  0  0  0  0  0  0  0  0  0  0
    7.0173   10.9407   25.4989 C   0  0  0  0  0  0  0  0  0  0  0  0
    6.2182   11.7688   26.2737 C   0  0  0  0  0  0  0  0  0  0  0  0
    5.0385   11.2677   27.0591 C   0  0  0  0  0  0  0  0  0  0  0  0
    4.8098   11.7890   28.4618 C   0  0  0  0  0  0  0  0  0  0  0  0
    3.9047   12.2330   27.3573 C   0  0  0  0  0  0  0  0  0  0  0  0
    6.4851   13.0888   26.3719 N   0  0  0  0  0  0  0  0  0  0  0  0
    7.5285   13.5908   25.6913 C   0  0  0  0  0  0  0  0  0  0  0  0
    8.4024   12.8555   24.9045 C   0  0  0  0  0  0  0  0  0  0  0  0
    9.4539   13.5575   24.2720 N   0  0  0  0  0  0  0  0  0  0  0  0
   10.6948   12.9399   24.0746 N   0  0  0  0  0  0  0  0  0  0  0  0
    9.0872   14.6825   23.3867 C   0  0  0  0  0  0  0  0  0  0  0  0
    8.0176   14.5401   22.3321 C   0  0  0  0  0  0  0  0  0  0  0  0
    9.4500   14.7098   21.9269 C   0  0  0  0  0  0  0  0  0  0  0  0
  1  2  1  0
  2  3  1  0
  3  4  2  0
  3  5  1  0
  5  6  2  0
  6  7  1  0
  7  8  1  0
  8  9  1  0
  9 10  1  0
  7 11  2  0
 11 12  1  0
 12 13  2  0
 13 14  1  0
 14 15  1  0
 14 16  1  0
 16 17  1  0
 17 18  1  0
 13  5  1  0
 18 16  1  0
 10  8  1  0
M  END
>  <distance_score>  (196) 
1.543426

>  <smiles>  (196) 
COC(=O)c1cc(C2CC2)ncc1N(N)C1CC1

>  <fragmenstein_error>  (196) 


>  <fragmenstein_runtime>  (196) 
3.099948

>  <gnina_score_min>  (196) 
4.735

>  <orig_smiles>  (196) 
COC(=O)c1cc(C2CC2)ncc1N(N)C1CC1

>  <fragmenstein_mode>  (196) 
expansion

>  <rmsd(smina/fragmenstein)>  (196) 
1.208

>  <inspiration_score>  (196) 
None

>  <name>  (196) 
WSWLXYHAJMPWAD-UHFFFAOYSA-N-P308-P15-P308-601501

>  <ref_pdb>  (196) 
A0528a

>  <ref_mols>  (196) 
A4331a,A0514a

>  <subsites>  (196) 
None

>  <tags>  (196) 
openbind_a71ev2a_c1_elabs_filtered,fragmenstein_placed,a71ev2a_c1_elab_bulkdock_input,openbind_a71ev2a_c1_elab_chemspace_filtered_scored

>  <inchikey>  (196) 
WSWLXYHAJMPWAD-UHFFFAOYSA-N

>  <scratch_subdir>  (196) 
/opt/xchem-fragalysis-2/maxwin/BulkDock/SCRATCH/601501/WSWLXYHAJMPWAD-UHFFFAOYSA-N-P308-P15-P308-601501

>  <smina_score_min>  (196) 
-5.179

>  <energy_score>  (196) 
-24.212054

>  <Energy>  (196) 
60.773434

>  <fragmenstein_outcome>  (196) 
too moved

>  <alias>  (196) 
WSWLXYHAJMPWAD-UHFFFAOYSA-N-P308-P15-P308-601501

>  <HIPPO Pose ID>  (196) 
501633

>  <exports>  (196) 
['/opt/xchem-fragalysis-2/maxwin/openbind-hippo/a71ev2a/cycle_01/bulkdock/openbind_a71ev2a_c1_elab_chemspace.sdf', '/opt/xchem-fragalysis-2/maxwin/openbind-hippo/a71ev2a/cycle_01/syndirella/elabs/openbind_a71ev2a_c1_elab_chemspace_filtered.sdf']

>  <HIPPO Compound ID>  (196) 
292530

>  <gnina_score>  (196) 
4.982

$$$$
NEDFGYNJSPLQQP-UHFFFAOYSA-N-P308-P15-P308-601501
     RDKit          3D

 18 19  0  0  0  0  0  0  0  0999 V2000
    8.9389   15.5151   21.9377 C   0  0  0  0  0  0  0  0  0  0  0  0
    9.4176   14.5420   22.4538 C   0  0  0  0  0  0  0  0  0  0  0  0
   10.0475   13.3454   23.0367 C   0  0  0  0  0  0  0  0  0  0  0  0
    9.9782   13.3314   24.5171 N   0  0  0  0  0  0  0  0  0  0  0  0
   10.6969   14.3368   25.2204 N   0  0  0  0  0  0  0  0  0  0  0  0
    8.7419   12.8931   25.0321 C   0  0  0  0  0  0  0  0  0  0  0  0
    7.8497   13.7941   25.5859 C   0  0  0  0  0  0  0  0  0  0  0  0
    6.6472   13.4753   26.0862 N   0  0  0  0  0  0  0  0  0  0  0  0
    6.2352   12.1911   26.0420 C   0  0  0  0  0  0  0  0  0  0  0  0
    4.8550   11.9798   26.5745 C   0  0  0  0  0  0  0  0  0  0  0  0
    4.5110   11.1009   27.7417 C   0  0  0  0  0  0  0  0  0  0  0  0
    4.5657   12.5830   27.9391 C   0  0  0  0  0  0  0  0  0  0  0  0
    7.0474   11.1976   25.5137 C   0  0  0  0  0  0  0  0  0  0  0  0
    8.3132   11.5552   25.0141 C   0  0  0  0  0  0  0  0  0  0  0  0
    9.2195   10.4976   24.5058 C   0  0  0  0  0  0  0  0  0  0  0  0
   10.4352   10.5134   24.5837 O   0  0  0  0  0  0  0  0  0  0  0  0
    8.4758    9.5617   23.8667 O   0  0  0  0  0  0  0  0  0  0  0  0
    9.2712    8.5977   23.1808 C   0  0  0  0  0  0  0  0  0  0  0  0
  1  2  3  0
  2  3  1  0
  3  4  1  0
  4  5  1  0
  4  6  1  0
  6  7  2  0
  7  8  1  0
  8  9  2  0
  9 10  1  0
 10 11  1  0
 11 12  1  0
  9 13  1  0
 13 14  2  0
 14 15  1  0
 15 16  2  0
 15 17  1  0
 17 18  1  0
 14  6  1  0
 12 10  1  0
M  END
>  <distance_score>  (197) 
1.63617

>  <smiles>  (197) 
C#CCN(N)c1cnc(C2CC2)cc1C(=O)OC

>  <fragmenstein_error>  (197) 


>  <fragmenstein_runtime>  (197) 
4.174842

>  <gnina_score_min>  (197) 
4.581

>  <orig_smiles>  (197) 
C#CCN(N)c1cnc(C2CC2)cc1C(=O)OC

>  <fragmenstein_mode>  (197) 
expansion

>  <rmsd(smina/fragmenstein)>  (197) 
1.457

>  <inspiration_score>  (197) 
None

>  <name>  (197) 
NEDFGYNJSPLQQP-UHFFFAOYSA-N-P308-P15-P308-601501

>  <ref_pdb>  (197) 
A0528a

>  <ref_mols>  (197) 
A4331a,A0514a

>  <subsites>  (197) 
None

>  <tags>  (197) 
openbind_a71ev2a_c1_elabs_filtered,fragmenstein_placed,a71ev2a_c1_elab_bulkdock_input,openbind_a71ev2a_c1_elab_chemspace_filtered_scored

>  <inchikey>  (197) 
NEDFGYNJSPLQQP-UHFFFAOYSA-N

>  <scratch_subdir>  (197) 
/opt/xchem-fragalysis-2/maxwin/BulkDock/SCRATCH/601501/NEDFGYNJSPLQQP-UHFFFAOYSA-N-P308-P15-P308-601501

>  <smina_score_min>  (197) 
-5.318

>  <energy_score>  (197) 
-31.131242

>  <Energy>  (197) 
104.116419

>  <fragmenstein_outcome>  (197) 
too moved

>  <alias>  (197) 
NEDFGYNJSPLQQP-UHFFFAOYSA-N-P308-P15-P308-601501

>  <HIPPO Pose ID>  (197) 
501635

>  <exports>  (197) 
['/opt/xchem-fragalysis-2/maxwin/openbind-hippo/a71ev2a/cycle_01/bulkdock/openbind_a71ev2a_c1_elab_chemspace.sdf', '/opt/xchem-fragalysis-2/maxwin/openbind-hippo/a71ev2a/cycle_01/syndirella/elabs/openbind_a71ev2a_c1_elab_chemspace_filtered.sdf']

>  <HIPPO Compound ID>  (197) 
292531

>  <gnina_score>  (197) 
5.128

$$$$
HLXQGMWZSXOTMQ-UHFFFAOYSA-N-P15-P15-P308-601501
     RDKit          3D

 18 19  0  0  0  0  0  0  0  0999 V2000
   10.6829   14.0477   21.4267 C   0  0  0  0  0  0  0  0  0  0  0  0
    9.7547   14.7622   22.3450 C   0  0  0  0  0  0  0  0  0  0  0  0
    8.6930   13.9226   23.0422 C   0  0  0  0  0  0  0  0  0  0  0  0
    9.2392   12.9959   24.0841 N   0  0  0  0  0  0  0  0  0  0  0  0
   10.3552   13.4810   24.8428 N   0  0  0  0  0  0  0  0  0  0  0  0
    8.1645   12.5586   24.9082 C   0  0  0  0  0  0  0  0  0  0  0  0
    7.5269   13.4715   25.7476 C   0  0  0  0  0  0  0  0  0  0  0  0
    6.5074   13.1906   26.5763 N   0  0  0  0  0  0  0  0  0  0  0  0
    6.0148   11.9373   26.5894 C   0  0  0  0  0  0  0  0  0  0  0  0
    4.8404   11.6560   27.4772 C   0  0  0  0  0  0  0  0  0  0  0  0
    4.6733   12.4204   28.7670 C   0  0  0  0  0  0  0  0  0  0  0  0
    3.7721   12.7200   27.6075 C   0  0  0  0  0  0  0  0  0  0  0  0
    6.5923   10.9508   25.8158 C   0  0  0  0  0  0  0  0  0  0  0  0
    7.6882   11.2476   24.9858 C   0  0  0  0  0  0  0  0  0  0  0  0
    8.2520   10.0521   24.3337 C   0  0  0  0  0  0  0  0  0  0  0  0
    7.8519    8.9438   24.6639 O   0  0  0  0  0  0  0  0  0  0  0  0
    9.1980   10.2954   23.4110 O   0  0  0  0  0  0  0  0  0  0  0  0
    9.7210    9.0904   22.8491 C   0  0  0  0  0  0  0  0  0  0  0  0
  1  2  1  0
  2  3  1  0
  3  4  1  0
  4  5  1  0
  4  6  1  0
  6  7  2  0
  7  8  1  0
  8  9  2  0
  9 10  1  0
 10 11  1  0
 11 12  1  0
  9 13  1  0
 13 14  2  0
 14 15  1  0
 15 16  2  0
 15 17  1  0
 17 18  1  0
 14  6  1  0
 12 10  1  0
M  END
>  <distance_score>  (198) 
1.61255

>  <smiles>  (198) 
CCCN(N)c1cnc(C2CC2)cc1C(=O)OC

>  <fragmenstein_error>  (198) 


>  <fragmenstein_runtime>  (198) 
4.445753

>  <gnina_score_min>  (198) 
4.234

>  <orig_smiles>  (198) 
CCCN(N)c1cnc(C2CC2)cc1C(=O)OC

>  <fragmenstein_mode>  (198) 
expansion

>  <rmsd(smina/fragmenstein)>  (198) 
1.86

>  <inspiration_score>  (198) 
None

>  <name>  (198) 
HLXQGMWZSXOTMQ-UHFFFAOYSA-N-P15-P15-P308-601501

>  <ref_pdb>  (198) 
A0528a

>  <ref_mols>  (198) 
A4331a,A0514a

>  <subsites>  (198) 
None

>  <tags>  (198) 
openbind_a71ev2a_c1_elabs_filtered,fragmenstein_placed,a71ev2a_c1_elab_bulkdock_input,openbind_a71ev2a_c1_elab_chemspace_filtered_scored

>  <inchikey>  (198) 
HLXQGMWZSXOTMQ-UHFFFAOYSA-N

>  <scratch_subdir>  (198) 
/opt/xchem-fragalysis-2/maxwin/BulkDock/SCRATCH/601501/HLXQGMWZSXOTMQ-UHFFFAOYSA-N-P15-P15-P308-601501

>  <smina_score_min>  (198) 
-5.106

>  <energy_score>  (198) 
-24.484635

>  <Energy>  (198) 
93.38846

>  <fragmenstein_outcome>  (198) 
too moved

>  <alias>  (198) 
HLXQGMWZSXOTMQ-UHFFFAOYSA-N-P15-P15-P308-601501

>  <HIPPO Pose ID>  (198) 
501636

>  <exports>  (198) 
['/opt/xchem-fragalysis-2/maxwin/openbind-hippo/a71ev2a/cycle_01/bulkdock/openbind_a71ev2a_c1_elab_chemspace.sdf', '/opt/xchem-fragalysis-2/maxwin/openbind-hippo/a71ev2a/cycle_01/syndirella/elabs/openbind_a71ev2a_c1_elab_chemspace_filtered.sdf']

>  <HIPPO Compound ID>  (198) 
292532

>  <gnina_score>  (198) 
5.017

$$$$
BQQHOOFVKCPCOJ-UHFFFAOYSA-N-P308-P15-P308-601501
     RDKit          3D

 19 20  0  0  0  0  0  0  0  0999 V2000
    9.1967    8.4093   23.7863 C   0  0  0  0  0  0  0  0  0  0  0  0
    8.4319    9.3552   24.5233 O   0  0  0  0  0  0  0  0  0  0  0  0
    8.5727   10.5941   24.0112 C   0  0  0  0  0  0  0  0  0  0  0  0
    9.1851   10.8763   22.9966 O   0  0  0  0  0  0  0  0  0  0  0  0
    7.9066   11.5749   24.8820 C   0  0  0  0  0  0  0  0  0  0  0  0
    6.7047   11.2257   25.5115 C   0  0  0  0  0  0  0  0  0  0  0  0
    6.0201   12.2022   26.2188 C   0  0  0  0  0  0  0  0  0  0  0  0
    4.6736   12.0019   26.8308 C   0  0  0  0  0  0  0  0  0  0  0  0
    4.3940   11.0299   27.9387 C   0  0  0  0  0  0  0  0  0  0  0  0
    4.4942   12.4911   28.2543 C   0  0  0  0  0  0  0  0  0  0  0  0
    6.5136   13.4523   26.3477 N   0  0  0  0  0  0  0  0  0  0  0  0
    7.6691   13.7584   25.7402 C   0  0  0  0  0  0  0  0  0  0  0  0
    8.4223   12.8704   24.9940 C   0  0  0  0  0  0  0  0  0  0  0  0
    9.6052   13.3668   24.4072 N   0  0  0  0  0  0  0  0  0  0  0  0
   10.7914   12.6140   24.6093 N   0  0  0  0  0  0  0  0  0  0  0  0
    9.3551   13.8017   23.0080 C   0  0  0  0  0  0  0  0  0  0  0  0
    9.6127   15.3009   22.8586 C   0  0  0  0  0  0  0  0  0  0  0  0
    9.3525   15.7118   21.4100 C   0  0  0  0  0  0  0  0  0  0  0  0
   11.0378   15.6732   23.2597 C   0  0  0  0  0  0  0  0  0  0  0  0
  1  2  1  0
  2  3  1  0
  3  4  2  0
  3  5  1  0
  5  6  2  0
  6  7  1  0
  7  8  1  0
  8  9  1  0
  9 10  1  0
  7 11  2  0
 11 12  1  0
 12 13  2  0
 13 14  1  0
 14 15  1  0
 14 16  1  0
 16 17  1  0
 17 18  1  0
 17 19  1  0
 13  5  1  0
 10  8  1  0
M  END
>  <distance_score>  (199) 
1.503905

>  <smiles>  (199) 
COC(=O)c1cc(C2CC2)ncc1N(N)CC(C)C

>  <fragmenstein_error>  (199) 


>  <fragmenstein_runtime>  (199) 
3.945511

>  <gnina_score_min>  (199) 
5.11

>  <orig_smiles>  (199) 
COC(=O)c1cc(C2CC2)ncc1N(N)CC(C)C

>  <fragmenstein_mode>  (199) 
expansion

>  <rmsd(smina/fragmenstein)>  (199) 
1.303

>  <inspiration_score>  (199) 
None

>  <name>  (199) 
BQQHOOFVKCPCOJ-UHFFFAOYSA-N-P308-P15-P308-601501

>  <ref_pdb>  (199) 
A0528a

>  <ref_mols>  (199) 
A4331a,A0514a

>  <subsites>  (199) 
None

>  <tags>  (199) 
openbind_a71ev2a_c1_elabs_filtered,fragmenstein_placed,a71ev2a_c1_elab_bulkdock_input,openbind_a71ev2a_c1_elab_chemspace_filtered_scored

>  <inchikey>  (199) 
BQQHOOFVKCPCOJ-UHFFFAOYSA-N

>  <scratch_subdir>  (199) 
/opt/xchem-fragalysis-2/maxwin/BulkDock/SCRATCH/601501/BQQHOOFVKCPCOJ-UHFFFAOYSA-N-P308-P15-P308-601501

>  <smina_score_min>  (199) 
-5.368

>  <energy_score>  (199) 
-37.199836

>  <Energy>  (199) 
92.36914

>  <fragmenstein_outcome>  (199) 
too moved

>  <alias>  (199) 
BQQHOOFVKCPCOJ-UHFFFAOYSA-N-P308-P15-P308-601501

>  <HIPPO Pose ID>  (199) 
501645

>  <exports>  (199) 
['/opt/xchem-fragalysis-2/maxwin/openbind-hippo/a71ev2a/cycle_01/bulkdock/openbind_a71ev2a_c1_elab_chemspace.sdf', '/opt/xchem-fragalysis-2/maxwin/openbind-hippo/a71ev2a/cycle_01/syndirella/elabs/openbind_a71ev2a_c1_elab_chemspace_filtered.sdf']

>  <HIPPO Compound ID>  (199) 
292536

>  <gnina_score>  (199) 
5.067

$$$$
AKWFWTDGBMKEHT-UHFFFAOYSA-N-P15-P15-P308-601501
     RDKit          3D

 19 20  0  0  0  0  0  0  0  0999 V2000
    9.3992    8.5148   22.9235 C   0  0  0  0  0  0  0  0  0  0  0  0
    8.5276    9.3397   23.6889 O   0  0  0  0  0  0  0  0  0  0  0  0
    9.0426   10.5617   23.9278 C   0  0  0  0  0  0  0  0  0  0  0  0
   10.1614   10.9490   23.6357 O   0  0  0  0  0  0  0  0  0  0  0  0
    8.0487   11.3956   24.6337 C   0  0  0  0  0  0  0  0  0  0  0  0
    7.0910   10.7959   25.4600 C   0  0  0  0  0  0  0  0  0  0  0  0
    6.2463   11.6066   26.2034 C   0  0  0  0  0  0  0  0  0  0  0  0
    5.2702   11.0493   27.1994 C   0  0  0  0  0  0  0  0  0  0  0  0
    5.3391   11.5289   28.6311 C   0  0  0  0  0  0  0  0  0  0  0  0
    4.1945   11.9566   27.7672 C   0  0  0  0  0  0  0  0  0  0  0  0
    6.3214   12.9547   26.1120 N   0  0  0  0  0  0  0  0  0  0  0  0
    7.1975   13.5069   25.2590 C   0  0  0  0  0  0  0  0  0  0  0  0
    8.1110   12.7889   24.5063 C   0  0  0  0  0  0  0  0  0  0  0  0
    9.0780   13.4367   23.7113 N   0  0  0  0  0  0  0  0  0  0  0  0
   10.2839   13.7507   24.4006 N   0  0  0  0  0  0  0  0  0  0  0  0
    8.5074   14.3546   22.6792 C   0  0  0  0  0  0  0  0  0  0  0  0
    9.5266   14.7608   21.6153 C   0  0  0  0  0  0  0  0  0  0  0  0
    9.2271   15.3625   20.5947 O   0  0  0  0  0  0  0  0  0  0  0  0
   10.7983   14.4067   21.8949 O   0  0  0  0  0  0  0  0  0  0  0  0
  1  2  1  0
  2  3  1  0
  3  4  2  0
  3  5  1  0
  5  6  2  0
  6  7  1  0
  7  8  1  0
  8  9  1  0
  9 10  1  0
  7 11  2  0
 11 12  1  0
 12 13  2  0
 13 14  1  0
 14 15  1  0
 14 16  1  0
 16 17  1  0
 17 18  2  0
 17 19  1  0
 13  5  1  0
 10  8  1  0
M  END
>  <distance_score>  (200) 
1.72932

>  <smiles>  (200) 
COC(=O)c1cc(C2CC2)ncc1N(N)CC(=O)O

>  <fragmenstein_error>  (200) 


>  <fragmenstein_runtime>  (200) 
3.099947

>  <gnina_score_min>  (200) 
4.619

>  <orig_smiles>  (200) 
COC(=O)c1cc(C2CC2)ncc1N(N)CC(=O)O

>  <fragmenstein_mode>  (200) 
expansion

>  <rmsd(smina/fragmenstein)>  (200) 
1.028

>  <inspiration_score>  (200) 
None

>  <name>  (200) 
AKWFWTDGBMKEHT-UHFFFAOYSA-N-P15-P15-P308-601501

>  <ref_pdb>  (200) 
A0528a

>  <ref_mols>  (200) 
A4331a,A0514a

>  <subsites>  (200) 
None

>  <tags>  (200) 
openbind_a71ev2a_c1_elabs_filtered,fragmenstein_placed,a71ev2a_c1_elab_bulkdock_input,openbind_a71ev2a_c1_elab_chemspace_filtered_scored

>  <inchikey>  (200) 
AKWFWTDGBMKEHT-UHFFFAOYSA-N

>  <scratch_subdir>  (200) 
/opt/xchem-fragalysis-2/maxwin/BulkDock/SCRATCH/601501/AKWFWTDGBMKEHT-UHFFFAOYSA-N-P15-P15-P308-601501

>  <smina_score_min>  (200) 
-5.271

>  <energy_score>  (200) 
-49.625419

>  <Energy>  (200) 
110.076533

>  <fragmenstein_outcome>  (200) 
too moved

>  <alias>  (200) 
AKWFWTDGBMKEHT-UHFFFAOYSA-N-P15-P15-P308-601501

>  <HIPPO Pose ID>  (200) 
501652

>  <exports>  (200) 
['/opt/xchem-fragalysis-2/maxwin/openbind-hippo/a71ev2a/cycle_01/bulkdock/openbind_a71ev2a_c1_elab_chemspace.sdf', '/opt/xchem-fragalysis-2/maxwin/openbind-hippo/a71ev2a/cycle_01/syndirella/elabs/openbind_a71ev2a_c1_elab_chemspace_filtered.sdf']

>  <HIPPO Compound ID>  (200) 
292540

>  <gnina_score>  (200) 
4.733

$$$$
QWFWDMZQJXLTDJ-UHFFFAOYSA-N-P308-P15-P308-601501
     RDKit          3D

 19 21  0  0  0  0  0  0  0  0999 V2000
    9.3605    8.5749   23.7375 C   0  0  0  0  0  0  0  0  0  0  0  0
    8.5841    9.4749   24.5232 O   0  0  0  0  0  0  0  0  0  0  0  0
    8.6241   10.7320   24.0288 C   0  0  0  0  0  0  0  0  0  0  0  0
    9.1513   11.0779   22.9876 O   0  0  0  0  0  0  0  0  0  0  0  0
    7.9009   11.6418   24.9333 C   0  0  0  0  0  0  0  0  0  0  0  0
    6.7151   11.2179   25.5461 C   0  0  0  0  0  0  0  0  0  0  0  0
    5.9976   12.1380   26.2968 C   0  0  0  0  0  0  0  0  0  0  0  0
    4.6579   11.8762   26.8975 C   0  0  0  0  0  0  0  0  0  0  0  0
    4.3970   10.8506   27.9594 C   0  0  0  0  0  0  0  0  0  0  0  0
    4.4691   12.2973   28.3416 C   0  0  0  0  0  0  0  0  0  0  0  0
    6.4456   13.3985   26.4850 N   0  0  0  0  0  0  0  0  0  0  0  0
    7.5845   13.7753   25.8916 C   0  0  0  0  0  0  0  0  0  0  0  0
    8.3659   12.9499   25.1037 C   0  0  0  0  0  0  0  0  0  0  0  0
    9.5290   13.4426   24.4668 N   0  0  0  0  0  0  0  0  0  0  0  0
   10.5087   14.0275   25.3188 N   0  0  0  0  0  0  0  0  0  0  0  0
    9.1201   14.2028   23.2573 C   0  0  0  0  0  0  0  0  0  0  0  0
   10.2915   14.4371   22.3619 C   0  0  0  0  0  0  0  0  0  0  0  0
   11.1394   15.6748   22.4924 C   0  0  0  0  0  0  0  0  0  0  0  0
   10.2241   15.5119   21.3078 C   0  0  0  0  0  0  0  0  0  0  0  0
  1  2  1  0
  2  3  1  0
  3  4  2  0
  3  5  1  0
  5  6  2  0
  6  7  1  0
  7  8  1  0
  8  9  1  0
  9 10  1  0
  7 11  2  0
 11 12  1  0
 12 13  2  0
 13 14  1  0
 14 15  1  0
 14 16  1  0
 16 17  1  0
 17 18  1  0
 18 19  1  0
 13  5  1  0
 19 17  1  0
 10  8  1  0
M  END
>  <distance_score>  (201) 
1.542615

>  <smiles>  (201) 
COC(=O)c1cc(C2CC2)ncc1N(N)CC1CC1

>  <fragmenstein_error>  (201) 


>  <fragmenstein_runtime>  (201) 
3.170289

>  <gnina_score_min>  (201) 
4.859

>  <orig_smiles>  (201) 
COC(=O)c1cc(C2CC2)ncc1N(N)CC1CC1

>  <fragmenstein_mode>  (201) 
expansion

>  <rmsd(smina/fragmenstein)>  (201) 
1.259

>  <inspiration_score>  (201) 
None

>  <name>  (201) 
QWFWDMZQJXLTDJ-UHFFFAOYSA-N-P308-P15-P308-601501

>  <ref_pdb>  (201) 
A0528a

>  <ref_mols>  (201) 
A4331a,A0514a

>  <subsites>  (201) 
None

>  <tags>  (201) 
openbind_a71ev2a_c1_elabs_filtered,fragmenstein_placed,a71ev2a_c1_elab_bulkdock_input,openbind_a71ev2a_c1_elab_chemspace_filtered_scored

>  <inchikey>  (201) 
QWFWDMZQJXLTDJ-UHFFFAOYSA-N

>  <scratch_subdir>  (201) 
/opt/xchem-fragalysis-2/maxwin/BulkDock/SCRATCH/601501/QWFWDMZQJXLTDJ-UHFFFAOYSA-N-P308-P15-P308-601501

>  <smina_score_min>  (201) 
-5.667

>  <energy_score>  (201) 
-31.428975

>  <Energy>  (201) 
115.751555

>  <fragmenstein_outcome>  (201) 
too moved

>  <alias>  (201) 
QWFWDMZQJXLTDJ-UHFFFAOYSA-N-P308-P15-P308-601501

>  <HIPPO Pose ID>  (201) 
501659

>  <exports>  (201) 
['/opt/xchem-fragalysis-2/maxwin/openbind-hippo/a71ev2a/cycle_01/bulkdock/openbind_a71ev2a_c1_elab_chemspace.sdf', '/opt/xchem-fragalysis-2/maxwin/openbind-hippo/a71ev2a/cycle_01/syndirella/elabs/openbind_a71ev2a_c1_elab_chemspace_filtered.sdf']

>  <HIPPO Compound ID>  (201) 
292543

>  <gnina_score>  (201) 
5.157

$$$$
HWFVHGCHNGOMPJ-UHFFFAOYSA-N-P308-P15-P308-601501
     RDKit          3D

 19 20  0  0  0  0  0  0  0  0999 V2000
    9.2509    8.5948   23.7838 C   0  0  0  0  0  0  0  0  0  0  0  0
    8.4206    9.4431   24.5721 O   0  0  0  0  0  0  0  0  0  0  0  0
    8.4280   10.7147   24.1147 C   0  0  0  0  0  0  0  0  0  0  0  0
    8.9541   11.1066   23.0869 O   0  0  0  0  0  0  0  0  0  0  0  0
    7.6813   11.5790   25.0441 C   0  0  0  0  0  0  0  0  0  0  0  0
    6.5121   11.1272   25.6619 C   0  0  0  0  0  0  0  0  0  0  0  0
    5.7956   12.0247   26.4447 C   0  0  0  0  0  0  0  0  0  0  0  0
    4.4949   11.7248   27.1049 C   0  0  0  0  0  0  0  0  0  0  0  0
    4.3080   10.6420   28.1233 C   0  0  0  0  0  0  0  0  0  0  0  0
    4.3913   12.0676   28.5775 C   0  0  0  0  0  0  0  0  0  0  0  0
    6.2163   13.2911   26.6469 N   0  0  0  0  0  0  0  0  0  0  0  0
    7.3504   13.6886   26.0641 C   0  0  0  0  0  0  0  0  0  0  0  0
    8.1295   12.8834   25.2520 C   0  0  0  0  0  0  0  0  0  0  0  0
    9.3021   13.3981   24.6523 N   0  0  0  0  0  0  0  0  0  0  0  0
   10.1742   14.0099   25.6059 N   0  0  0  0  0  0  0  0  0  0  0  0
    8.8712   14.2239   23.4843 C   0  0  0  0  0  0  0  0  0  0  0  0
   10.0006   14.4401   22.4879 C   0  0  0  0  0  0  0  0  0  0  0  0
   11.2785   15.5507   23.1624 S   0  0  0  0  0  0  0  0  0  0  0  0
   12.1799   15.8259   21.6344 C   0  0  0  0  0  0  0  0  0  0  0  0
  1  2  1  0
  2  3  1  0
  3  4  2  0
  3  5  1  0
  5  6  2  0
  6  7  1  0
  7  8  1  0
  8  9  1  0
  9 10  1  0
  7 11  2  0
 11 12  1  0
 12 13  2  0
 13 14  1  0
 14 15  1  0
 14 16  1  0
 16 17  1  0
 17 18  1  0
 18 19  1  0
 13  5  1  0
 10  8  1  0
M  END
>  <distance_score>  (202) 
1.656219

>  <smiles>  (202) 
COC(=O)c1cc(C2CC2)ncc1N(N)CCSC

>  <fragmenstein_error>  (202) 


>  <fragmenstein_runtime>  (202) 
3.738983

>  <gnina_score_min>  (202) 
4.851

>  <orig_smiles>  (202) 
COC(=O)c1cc(C2CC2)ncc1N(N)CCSC

>  <fragmenstein_mode>  (202) 
expansion

>  <rmsd(smina/fragmenstein)>  (202) 
1.461

>  <inspiration_score>  (202) 
None

>  <name>  (202) 
HWFVHGCHNGOMPJ-UHFFFAOYSA-N-P308-P15-P308-601501

>  <ref_pdb>  (202) 
A0528a

>  <ref_mols>  (202) 
A4331a,A0514a

>  <subsites>  (202) 
None

>  <tags>  (202) 
openbind_a71ev2a_c1_elabs_filtered,fragmenstein_placed,a71ev2a_c1_elab_bulkdock_input,openbind_a71ev2a_c1_elab_chemspace_filtered_scored

>  <inchikey>  (202) 
HWFVHGCHNGOMPJ-UHFFFAOYSA-N

>  <scratch_subdir>  (202) 
/opt/xchem-fragalysis-2/maxwin/BulkDock/SCRATCH/601501/HWFVHGCHNGOMPJ-UHFFFAOYSA-N-P308-P15-P308-601501

>  <smina_score_min>  (202) 
-5.32

>  <energy_score>  (202) 
-39.744031

>  <Energy>  (202) 
108.954924

>  <fragmenstein_outcome>  (202) 
too moved

>  <alias>  (202) 
HWFVHGCHNGOMPJ-UHFFFAOYSA-N-P308-P15-P308-601501

>  <HIPPO Pose ID>  (202) 
501663

>  <exports>  (202) 
['/opt/xchem-fragalysis-2/maxwin/openbind-hippo/a71ev2a/cycle_01/bulkdock/openbind_a71ev2a_c1_elab_chemspace.sdf', '/opt/xchem-fragalysis-2/maxwin/openbind-hippo/a71ev2a/cycle_01/syndirella/elabs/openbind_a71ev2a_c1_elab_chemspace_filtered.sdf']

>  <HIPPO Compound ID>  (202) 
292545

>  <gnina_score>  (202) 
5.041

$$$$
UMWMDYAGLKQPEN-UHFFFAOYSA-N-P308-P15-P308-601501
     RDKit          3D

 19 20  0  0  0  0  0  0  0  0999 V2000
    9.2106    8.5640   23.1514 C   0  0  0  0  0  0  0  0  0  0  0  0
    8.3529    9.4408   23.8771 O   0  0  0  0  0  0  0  0  0  0  0  0
    9.0286   10.3608   24.6009 C   0  0  0  0  0  0  0  0  0  0  0  0
   10.2357   10.3904   24.7935 O   0  0  0  0  0  0  0  0  0  0  0  0
    8.0644   11.3628   25.1071 C   0  0  0  0  0  0  0  0  0  0  0  0
    6.8639   10.9543   25.7075 C   0  0  0  0  0  0  0  0  0  0  0  0
    6.0294   11.9288   26.2436 C   0  0  0  0  0  0  0  0  0  0  0  0
    4.7124   11.6962   26.9011 C   0  0  0  0  0  0  0  0  0  0  0  0
    4.4472   10.7212   28.0053 C   0  0  0  0  0  0  0  0  0  0  0  0
    4.5934   12.1748   28.3366 C   0  0  0  0  0  0  0  0  0  0  0  0
    6.3596   13.2344   26.2025 N   0  0  0  0  0  0  0  0  0  0  0  0
    7.4727   13.6020   25.5665 C   0  0  0  0  0  0  0  0  0  0  0  0
    8.3645   12.7232   24.9755 C   0  0  0  0  0  0  0  0  0  0  0  0
    9.4794   13.1960   24.2581 N   0  0  0  0  0  0  0  0  0  0  0  0
   10.6985   13.1861   24.9805 N   0  0  0  0  0  0  0  0  0  0  0  0
    9.1690   14.3602   23.3964 C   0  0  0  0  0  0  0  0  0  0  0  0
   10.2340   14.5692   22.3207 C   0  0  2  0  0  0  0  0  0  0  0  0
   11.3149   15.5348   22.7842 C   0  0  0  0  0  0  0  0  0  0  0  0
    9.6095   15.1190   21.1554 O   0  0  0  0  0  0  0  0  0  0  0  0
  1  2  1  0
  2  3  1  0
  3  4  2  0
  3  5  1  0
  5  6  2  0
  6  7  1  0
  7  8  1  0
  8  9  1  0
  9 10  1  0
  7 11  2  0
 11 12  1  0
 12 13  2  0
 13 14  1  0
 14 15  1  0
 14 16  1  0
 16 17  1  0
 17 18  1  1
 17 19  1  0
 13  5  1  0
 10  8  1  0
M  END
>  <distance_score>  (203) 
1.704158

>  <smiles>  (203) 
COC(=O)c1cc(C2CC2)ncc1N(N)CC(C)O

>  <fragmenstein_error>  (203) 


>  <fragmenstein_runtime>  (203) 
3.680881

>  <gnina_score_min>  (203) 
4.503

>  <orig_smiles>  (203) 
COC(=O)c1cc(C2CC2)ncc1N(N)CC(C)O

>  <fragmenstein_mode>  (203) 
expansion

>  <rmsd(smina/fragmenstein)>  (203) 
1.824

>  <inspiration_score>  (203) 
None

>  <name>  (203) 
UMWMDYAGLKQPEN-UHFFFAOYSA-N-P308-P15-P308-601501

>  <ref_pdb>  (203) 
A0528a

>  <ref_mols>  (203) 
A4331a,A0514a

>  <subsites>  (203) 
None

>  <tags>  (203) 
openbind_a71ev2a_c1_elabs_filtered,fragmenstein_placed,a71ev2a_c1_elab_bulkdock_input,openbind_a71ev2a_c1_elab_chemspace_filtered_scored

>  <inchikey>  (203) 
UMWMDYAGLKQPEN-UHFFFAOYSA-N

>  <scratch_subdir>  (203) 
/opt/xchem-fragalysis-2/maxwin/BulkDock/SCRATCH/601501/UMWMDYAGLKQPEN-UHFFFAOYSA-N-P308-P15-P308-601501

>  <smina_score_min>  (203) 
-5.789

>  <energy_score>  (203) 
-41.418664

>  <Energy>  (203) 
116.300477

>  <fragmenstein_outcome>  (203) 
too moved

>  <alias>  (203) 
UMWMDYAGLKQPEN-UHFFFAOYSA-N-P308-P15-P308-601501

>  <HIPPO Pose ID>  (203) 
501667

>  <exports>  (203) 
['/opt/xchem-fragalysis-2/maxwin/openbind-hippo/a71ev2a/cycle_01/bulkdock/openbind_a71ev2a_c1_elab_chemspace.sdf', '/opt/xchem-fragalysis-2/maxwin/openbind-hippo/a71ev2a/cycle_01/syndirella/elabs/openbind_a71ev2a_c1_elab_chemspace_filtered.sdf']

>  <HIPPO Compound ID>  (203) 
292547

>  <gnina_score>  (203) 
5.019

$$$$
BHDGUBOWDZYRMJ-UHFFFAOYSA-N-P308-P15-P308-601501
     RDKit          3D

 19 20  0  0  0  0  0  0  0  0999 V2000
    9.4735    8.6880   23.1200 C   0  0  0  0  0  0  0  0  0  0  0  0
    8.5918    9.5850   23.7887 O   0  0  0  0  0  0  0  0  0  0  0  0
    9.2147   10.5588   24.4892 C   0  0  0  0  0  0  0  0  0  0  0  0
   10.4167   10.7037   24.6522 O   0  0  0  0  0  0  0  0  0  0  0  0
    8.1683   11.4411   25.0502 C   0  0  0  0  0  0  0  0  0  0  0  0
    7.0548   10.8513   25.6680 C   0  0  0  0  0  0  0  0  0  0  0  0
    6.1239   11.6669   26.2950 C   0  0  0  0  0  0  0  0  0  0  0  0
    5.0133   11.1356   27.1589 C   0  0  0  0  0  0  0  0  0  0  0  0
    3.8017   11.9958   27.4572 C   0  0  0  0  0  0  0  0  0  0  0  0
    4.8302   11.7859   28.5205 C   0  0  0  0  0  0  0  0  0  0  0  0
    6.2553   13.0097   26.2632 N   0  0  0  0  0  0  0  0  0  0  0  0
    7.2998   13.5498   25.6197 C   0  0  0  0  0  0  0  0  0  0  0  0
    8.3020   12.8323   24.9922 C   0  0  0  0  0  0  0  0  0  0  0  0
    9.3463   13.4894   24.3449 N   0  0  0  0  0  0  0  0  0  0  0  0
   10.6085   13.4664   24.9864 N   0  0  0  0  0  0  0  0  0  0  0  0
    9.0902   14.4425   23.2253 C   0  0  0  0  0  0  0  0  0  0  0  0
    7.7729   14.1360   22.4880 C   0  0  0  0  0  0  0  0  0  0  0  0
    9.0827   15.8931   23.7210 C   0  0  0  0  0  0  0  0  0  0  0  0
   10.2308   14.2959   22.2060 C   0  0  0  0  0  0  0  0  0  0  0  0
  1  2  1  0
  2  3  1  0
  3  4  2  0
  3  5  1  0
  5  6  2  0
  6  7  1  0
  7  8  1  0
  8  9  1  0
  9 10  1  0
  7 11  2  0
 11 12  1  0
 12 13  2  0
 13 14  1  0
 14 15  1  0
 14 16  1  0
 16 17  1  0
 16 18  1  0
 16 19  1  0
 13  5  1  0
 10  8  1  0
M  END
>  <distance_score>  (204) 
1.809016

>  <smiles>  (204) 
COC(=O)c1cc(C2CC2)ncc1N(N)C(C)(C)C

>  <fragmenstein_error>  (204) 


>  <fragmenstein_runtime>  (204) 
6.355996

>  <gnina_score_min>  (204) 
4.919

>  <orig_smiles>  (204) 
COC(=O)c1cc(C2CC2)ncc1N(N)C(C)(C)C

>  <fragmenstein_mode>  (204) 
expansion

>  <rmsd(smina/fragmenstein)>  (204) 
1.008

>  <inspiration_score>  (204) 
None

>  <name>  (204) 
BHDGUBOWDZYRMJ-UHFFFAOYSA-N-P308-P15-P308-601501

>  <ref_pdb>  (204) 
A0528a

>  <ref_mols>  (204) 
A4331a,A0514a

>  <subsites>  (204) 
None

>  <tags>  (204) 
openbind_a71ev2a_c1_elabs_filtered,fragmenstein_placed,a71ev2a_c1_elab_bulkdock_input,openbind_a71ev2a_c1_elab_chemspace_filtered_scored

>  <inchikey>  (204) 
BHDGUBOWDZYRMJ-UHFFFAOYSA-N

>  <scratch_subdir>  (204) 
/opt/xchem-fragalysis-2/maxwin/BulkDock/SCRATCH/601501/BHDGUBOWDZYRMJ-UHFFFAOYSA-N-P308-P15-P308-601501

>  <smina_score_min>  (204) 
-5.484

>  <energy_score>  (204) 
-57.29057

>  <Energy>  (204) 
102.903793

>  <fragmenstein_outcome>  (204) 
too moved

>  <alias>  (204) 
BHDGUBOWDZYRMJ-UHFFFAOYSA-N-P308-P15-P308-601501

>  <HIPPO Pose ID>  (204) 
501675

>  <exports>  (204) 
['/opt/xchem-fragalysis-2/maxwin/openbind-hippo/a71ev2a/cycle_01/bulkdock/openbind_a71ev2a_c1_elab_chemspace.sdf', '/opt/xchem-fragalysis-2/maxwin/openbind-hippo/a71ev2a/cycle_01/syndirella/elabs/openbind_a71ev2a_c1_elab_chemspace_filtered.sdf']

>  <HIPPO Compound ID>  (204) 
292551

>  <gnina_score>  (204) 
5.245

$$$$
MFBBMKUQWCDISB-UHFFFAOYSA-N-P308-P15-P308-601501
     RDKit          3D

 19 21  0  0  0  0  0  0  0  0999 V2000
    9.3378    8.4711   23.6668 C   0  0  0  0  0  0  0  0  0  0  0  0
    8.6276    9.4102   24.4639 O   0  0  0  0  0  0  0  0  0  0  0  0
    8.6894   10.6553   23.9379 C   0  0  0  0  0  0  0  0  0  0  0  0
    9.2494   10.9454   22.8947 O   0  0  0  0  0  0  0  0  0  0  0  0
    7.9864   11.6041   24.8237 C   0  0  0  0  0  0  0  0  0  0  0  0
    6.8280   11.1772   25.4985 C   0  0  0  0  0  0  0  0  0  0  0  0
    6.0922   12.1103   26.2141 C   0  0  0  0  0  0  0  0  0  0  0  0
    4.7567   11.8576   26.8305 C   0  0  0  0  0  0  0  0  0  0  0  0
    4.4779   10.8509   27.9041 C   0  0  0  0  0  0  0  0  0  0  0  0
    4.5862   12.2992   28.2713 C   0  0  0  0  0  0  0  0  0  0  0  0
    6.5113   13.3855   26.3300 N   0  0  0  0  0  0  0  0  0  0  0  0
    7.6075   13.7707   25.6622 C   0  0  0  0  0  0  0  0  0  0  0  0
    8.3909   12.9436   24.8742 C   0  0  0  0  0  0  0  0  0  0  0  0
    9.4713   13.4985   24.1422 N   0  0  0  0  0  0  0  0  0  0  0  0
   10.7168   12.8356   24.2859 N   0  0  0  0  0  0  0  0  0  0  0  0
    9.4384   14.8611   23.6283 C   0  0  0  0  0  0  0  0  0  0  0  0
    8.2535   15.0937   22.6489 C   0  0  0  0  0  0  0  0  0  0  0  0
    9.2278   14.9010   21.4788 C   0  0  0  0  0  0  0  0  0  0  0  0
   10.3856   15.1645   22.4454 C   0  0  0  0  0  0  0  0  0  0  0  0
  1  2  1  0
  2  3  1  0
  3  4  2  0
  3  5  1  0
  5  6  2  0
  6  7  1  0
  7  8  1  0
  8  9  1  0
  9 10  1  0
  7 11  2  0
 11 12  1  0
 12 13  2  0
 13 14  1  0
 14 15  1  0
 14 16  1  0
 16 17  1  0
 17 18  1  0
 18 19  1  0
 13  5  1  0
 19 16  1  0
 10  8  1  0
M  END
>  <distance_score>  (205) 
1.560838

>  <smiles>  (205) 
COC(=O)c1cc(C2CC2)ncc1N(N)C1CCC1

>  <fragmenstein_error>  (205) 


>  <fragmenstein_runtime>  (205) 
5.1975

>  <gnina_score_min>  (205) 
4.791

>  <orig_smiles>  (205) 
COC(=O)c1cc(C2CC2)ncc1N(N)C1CCC1

>  <fragmenstein_mode>  (205) 
expansion

>  <rmsd(smina/fragmenstein)>  (205) 
1.153

>  <inspiration_score>  (205) 
None

>  <name>  (205) 
MFBBMKUQWCDISB-UHFFFAOYSA-N-P308-P15-P308-601501

>  <ref_pdb>  (205) 
A0528a

>  <ref_mols>  (205) 
A4331a,A0514a

>  <subsites>  (205) 
None

>  <tags>  (205) 
openbind_a71ev2a_c1_elabs_filtered,fragmenstein_placed,a71ev2a_c1_elab_bulkdock_input,openbind_a71ev2a_c1_elab_chemspace_filtered_scored

>  <inchikey>  (205) 
MFBBMKUQWCDISB-UHFFFAOYSA-N

>  <scratch_subdir>  (205) 
/opt/xchem-fragalysis-2/maxwin/BulkDock/SCRATCH/601501/MFBBMKUQWCDISB-UHFFFAOYSA-N-P308-P15-P308-601501

>  <smina_score_min>  (205) 
-5.804

>  <energy_score>  (205) 
-39.231264

>  <Energy>  (205) 
87.726057

>  <fragmenstein_outcome>  (205) 
too moved

>  <alias>  (205) 
MFBBMKUQWCDISB-UHFFFAOYSA-N-P308-P15-P308-601501

>  <HIPPO Pose ID>  (205) 
501677

>  <exports>  (205) 
['/opt/xchem-fragalysis-2/maxwin/openbind-hippo/a71ev2a/cycle_01/bulkdock/openbind_a71ev2a_c1_elab_chemspace.sdf', '/opt/xchem-fragalysis-2/maxwin/openbind-hippo/a71ev2a/cycle_01/syndirella/elabs/openbind_a71ev2a_c1_elab_chemspace_filtered.sdf']

>  <HIPPO Compound ID>  (205) 
292552

>  <gnina_score>  (205) 
5.101

$$$$
LHIIDAUGVAOKMD-UHFFFAOYSA-N-P15-P15-P308-601501
     RDKit          3D

 19 20  0  0  0  0  0  0  0  0999 V2000
    9.3808    8.4951   23.0474 C   0  0  0  0  0  0  0  0  0  0  0  0
    8.6305    9.3218   23.9400 O   0  0  0  0  0  0  0  0  0  0  0  0
    8.9223   10.6386   23.8470 C   0  0  0  0  0  0  0  0  0  0  0  0
    9.7603   11.1190   23.1052 O   0  0  0  0  0  0  0  0  0  0  0  0
    8.0713   11.4383   24.7654 C   0  0  0  0  0  0  0  0  0  0  0  0
    7.0081   10.8381   25.4554 C   0  0  0  0  0  0  0  0  0  0  0  0
    6.2533   11.6069   26.3322 C   0  0  0  0  0  0  0  0  0  0  0  0
    5.2134   11.0192   27.2450 C   0  0  0  0  0  0  0  0  0  0  0  0
    4.0231   11.8551   27.6672 C   0  0  0  0  0  0  0  0  0  0  0  0
    5.1181   11.5840   28.6500 C   0  0  0  0  0  0  0  0  0  0  0  0
    6.4873   12.9306   26.4737 N   0  0  0  0  0  0  0  0  0  0  0  0
    7.4937   13.4950   25.7934 C   0  0  0  0  0  0  0  0  0  0  0  0
    8.3607   12.7980   24.9698 C   0  0  0  0  0  0  0  0  0  0  0  0
    9.5091   13.4297   24.4324 N   0  0  0  0  0  0  0  0  0  0  0  0
   10.2453   14.2540   25.3353 N   0  0  0  0  0  0  0  0  0  0  0  0
    9.1852   14.0195   23.1047 C   0  0  0  0  0  0  0  0  0  0  0  0
   10.4724   14.2728   22.3333 C   0  0  0  0  0  0  0  0  0  0  0  0
   10.2281   15.0398   21.1236 C   0  0  0  0  0  0  0  0  0  0  0  0
   10.0850   15.6543   20.1544 N   0  0  0  0  0  0  0  0  0  0  0  0
  1  2  1  0
  2  3  1  0
  3  4  2  0
  3  5  1  0
  5  6  2  0
  6  7  1  0
  7  8  1  0
  8  9  1  0
  9 10  1  0
  7 11  2  0
 11 12  1  0
 12 13  2  0
 13 14  1  0
 14 15  1  0
 14 16  1  0
 16 17  1  0
 17 18  1  0
 18 19  3  0
 13  5  1  0
 10  8  1  0
M  END
>  <distance_score>  (206) 
1.473554

>  <smiles>  (206) 
COC(=O)c1cc(C2CC2)ncc1N(N)CCC#N

>  <fragmenstein_error>  (206) 


>  <fragmenstein_runtime>  (206) 
4.392913

>  <gnina_score_min>  (206) 
4.808

>  <orig_smiles>  (206) 
COC(=O)c1cc(C2CC2)ncc1N(N)CCC#N

>  <fragmenstein_mode>  (206) 
expansion

>  <rmsd(smina/fragmenstein)>  (206) 
1.252

>  <inspiration_score>  (206) 
None

>  <name>  (206) 
LHIIDAUGVAOKMD-UHFFFAOYSA-N-P15-P15-P308-601501

>  <ref_pdb>  (206) 
A0528a

>  <ref_mols>  (206) 
A4331a,A0514a

>  <subsites>  (206) 
None

>  <tags>  (206) 
openbind_a71ev2a_c1_elabs_filtered,fragmenstein_placed,a71ev2a_c1_elab_bulkdock_input,openbind_a71ev2a_c1_elab_chemspace_filtered_scored

>  <inchikey>  (206) 
LHIIDAUGVAOKMD-UHFFFAOYSA-N

>  <scratch_subdir>  (206) 
/opt/xchem-fragalysis-2/maxwin/BulkDock/SCRATCH/601501/LHIIDAUGVAOKMD-UHFFFAOYSA-N-P15-P15-P308-601501

>  <smina_score_min>  (206) 
-5.866

>  <energy_score>  (206) 
-28.539375

>  <Energy>  (206) 
86.5127

>  <fragmenstein_outcome>  (206) 
too moved

>  <alias>  (206) 
LHIIDAUGVAOKMD-UHFFFAOYSA-N-P15-P15-P308-601501

>  <HIPPO Pose ID>  (206) 
501678

>  <exports>  (206) 
['/opt/xchem-fragalysis-2/maxwin/openbind-hippo/a71ev2a/cycle_01/bulkdock/openbind_a71ev2a_c1_elab_chemspace.sdf', '/opt/xchem-fragalysis-2/maxwin/openbind-hippo/a71ev2a/cycle_01/syndirella/elabs/openbind_a71ev2a_c1_elab_chemspace_filtered.sdf']

>  <HIPPO Compound ID>  (206) 
292553

>  <gnina_score>  (206) 
5.148

$$$$
PLQZYICTDPHYEP-UHFFFAOYSA-N-P308-P15-P308-601501
     RDKit          3D

 19 21  0  0  0  0  0  0  0  0999 V2000
    9.6853    9.0227   22.8093 C   0  0  0  0  0  0  0  0  0  0  0  0
    9.2192   10.2086   23.4542 O   0  0  0  0  0  0  0  0  0  0  0  0
    8.3343    9.9553   24.4347 C   0  0  0  0  0  0  0  0  0  0  0  0
    7.9906    8.8422   24.8049 O   0  0  0  0  0  0  0  0  0  0  0  0
    7.7478   11.1767   25.0250 C   0  0  0  0  0  0  0  0  0  0  0  0
    6.5781   10.9161   25.7584 C   0  0  0  0  0  0  0  0  0  0  0  0
    5.9338   11.9390   26.4279 C   0  0  0  0  0  0  0  0  0  0  0  0
    4.7561   11.6850   27.3215 C   0  0  0  0  0  0  0  0  0  0  0  0
    3.5620   12.6042   27.2566 C   0  0  0  0  0  0  0  0  0  0  0  0
    4.4749   12.6634   28.4437 C   0  0  0  0  0  0  0  0  0  0  0  0
    6.3946   13.2024   26.3468 N   0  0  0  0  0  0  0  0  0  0  0  0
    7.4954   13.4465   25.6213 C   0  0  0  0  0  0  0  0  0  0  0  0
    8.2396   12.4861   24.9467 C   0  0  0  0  0  0  0  0  0  0  0  0
    9.4309   12.9501   24.3359 N   0  0  0  0  0  0  0  0  0  0  0  0
   10.6251   12.3289   24.7715 N   0  0  0  0  0  0  0  0  0  0  0  0
    9.4542   13.4422   22.9616 C   0  0  0  0  0  0  0  0  0  0  0  0
   10.3578   14.7007   22.8012 C   0  0  0  0  0  0  0  0  0  0  0  0
    9.2712   15.2773   21.4527 S   0  0  0  0  0  0  0  0  0  0  0  0
    8.1941   14.2389   22.5003 C   0  0  0  0  0  0  0  0  0  0  0  0
  1  2  1  0
  2  3  1  0
  3  4  2  0
  3  5  1  0
  5  6  2  0
  6  7  1  0
  7  8  1  0
  8  9  1  0
  9 10  1  0
  7 11  2  0
 11 12  1  0
 12 13  2  0
 13 14  1  0
 14 15  1  0
 14 16  1  0
 16 17  1  0
 17 18  1  0
 18 19  1  0
 13  5  1  0
 19 16  1  0
 10  8  1  0
M  END
>  <distance_score>  (207) 
1.332852

>  <smiles>  (207) 
COC(=O)c1cc(C2CC2)ncc1N(N)C1CSC1

>  <fragmenstein_error>  (207) 


>  <fragmenstein_runtime>  (207) 
5.276465

>  <gnina_score_min>  (207) 
5.112

>  <orig_smiles>  (207) 
COC(=O)c1cc(C2CC2)ncc1N(N)C1CSC1

>  <fragmenstein_mode>  (207) 
expansion

>  <rmsd(smina/fragmenstein)>  (207) 
1.763

>  <inspiration_score>  (207) 
None

>  <name>  (207) 
PLQZYICTDPHYEP-UHFFFAOYSA-N-P308-P15-P308-601501

>  <ref_pdb>  (207) 
A0528a

>  <ref_mols>  (207) 
A4331a,A0514a

>  <subsites>  (207) 
None

>  <tags>  (207) 
openbind_a71ev2a_c1_elabs_filtered,fragmenstein_placed,a71ev2a_c1_elab_bulkdock_input,openbind_a71ev2a_c1_elab_chemspace_filtered_scored

>  <inchikey>  (207) 
PLQZYICTDPHYEP-UHFFFAOYSA-N

>  <scratch_subdir>  (207) 
/opt/xchem-fragalysis-2/maxwin/BulkDock/SCRATCH/601501/PLQZYICTDPHYEP-UHFFFAOYSA-N-P308-P15-P308-601501

>  <smina_score_min>  (207) 
-5.38

>  <energy_score>  (207) 
-32.22719

>  <Energy>  (207) 
104.030345

>  <fragmenstein_outcome>  (207) 
too moved

>  <alias>  (207) 
PLQZYICTDPHYEP-UHFFFAOYSA-N-P308-P15-P308-601501

>  <HIPPO Pose ID>  (207) 
501685

>  <exports>  (207) 
['/opt/xchem-fragalysis-2/maxwin/openbind-hippo/a71ev2a/cycle_01/bulkdock/openbind_a71ev2a_c1_elab_chemspace.sdf', '/opt/xchem-fragalysis-2/maxwin/openbind-hippo/a71ev2a/cycle_01/syndirella/elabs/openbind_a71ev2a_c1_elab_chemspace_filtered.sdf']

>  <HIPPO Compound ID>  (207) 
292556

>  <gnina_score>  (207) 
5.36

$$$$
GXLJADKCGCGIBN-UHFFFAOYSA-N-P308-P15-P308-601501
     RDKit          3D

 19 21  0  0  0  0  0  0  0  0999 V2000
    9.6901    8.5772   23.5601 C   0  0  0  0  0  0  0  0  0  0  0  0
    8.9430    9.4934   24.3546 O   0  0  0  0  0  0  0  0  0  0  0  0
    8.9024   10.7453   23.8409 C   0  0  0  0  0  0  0  0  0  0  0  0
    9.4138   11.0996   22.7959 O   0  0  0  0  0  0  0  0  0  0  0  0
    8.1180   11.6169   24.7389 C   0  0  0  0  0  0  0  0  0  0  0  0
    7.0677   11.0549   25.4850 C   0  0  0  0  0  0  0  0  0  0  0  0
    6.2976   11.8784   26.2908 C   0  0  0  0  0  0  0  0  0  0  0  0
    5.1562   11.3690   27.1291 C   0  0  0  0  0  0  0  0  0  0  0  0
    3.9273   12.2324   27.3194 C   0  0  0  0  0  0  0  0  0  0  0  0
    4.8845   12.0558   28.4550 C   0  0  0  0  0  0  0  0  0  0  0  0
    6.5791   13.1975   26.3909 N   0  0  0  0  0  0  0  0  0  0  0  0
    7.5795   13.7123   25.6545 C   0  0  0  0  0  0  0  0  0  0  0  0
    8.3726   12.9928   24.7796 C   0  0  0  0  0  0  0  0  0  0  0  0
    9.2897   13.6260   23.9356 N   0  0  0  0  0  0  0  0  0  0  0  0
   10.5491   13.8905   24.4276 N   0  0  0  0  0  0  0  0  0  0  0  0
   11.0351   14.8144   23.6608 C   0  0  0  0  0  0  0  0  0  0  0  0
   10.1216   15.3294   22.5999 C   0  0  0  0  0  0  0  0  0  0  0  0
    8.8164   14.7755   23.1480 C   0  0  1  0  0  0  0  0  0  0  0  0
    7.8403   14.3721   22.0616 C   0  0  0  0  0  0  0  0  0  0  0  0
  1  2  1  0
  2  3  1  0
  3  4  2  0
  3  5  1  0
  5  6  2  0
  6  7  1  0
  7  8  1  0
  8  9  1  0
  9 10  1  0
  7 11  2  0
 11 12  1  0
 12 13  2  0
 13 14  1  0
 14 15  1  0
 15 16  2  0
 16 17  1  0
 17 18  1  0
 18 19  1  6
 13  5  1  0
 18 14  1  0
 10  8  1  0
M  END
>  <distance_score>  (208) 
1.404037

>  <smiles>  (208) 
COC(=O)c1cc(C2CC2)ncc1N1N=CCC1C

>  <fragmenstein_error>  (208) 


>  <fragmenstein_runtime>  (208) 
4.1813

>  <gnina_score_min>  (208) 
4.883

>  <orig_smiles>  (208) 
COC(=O)c1cc(C2CC2)ncc1N1N=CCC1C

>  <fragmenstein_mode>  (208) 
expansion

>  <rmsd(smina/fragmenstein)>  (208) 
0.981

>  <inspiration_score>  (208) 
None

>  <name>  (208) 
GXLJADKCGCGIBN-UHFFFAOYSA-N-P308-P15-P308-601501

>  <ref_pdb>  (208) 
A0528a

>  <ref_mols>  (208) 
A4331a,A0514a

>  <subsites>  (208) 
None

>  <tags>  (208) 
openbind_a71ev2a_c1_elabs_filtered,fragmenstein_placed,a71ev2a_c1_elab_bulkdock_input,openbind_a71ev2a_c1_elab_chemspace_filtered_scored

>  <inchikey>  (208) 
GXLJADKCGCGIBN-UHFFFAOYSA-N

>  <scratch_subdir>  (208) 
/opt/xchem-fragalysis-2/maxwin/BulkDock/SCRATCH/601501/GXLJADKCGCGIBN-UHFFFAOYSA-N-P308-P15-P308-601501

>  <smina_score_min>  (208) 
-5.506

>  <energy_score>  (208) 
-40.020321

>  <Energy>  (208) 
69.964534

>  <fragmenstein_outcome>  (208) 
too moved

>  <alias>  (208) 
GXLJADKCGCGIBN-UHFFFAOYSA-N-P308-P15-P308-601501

>  <HIPPO Pose ID>  (208) 
501687

>  <exports>  (208) 
['/opt/xchem-fragalysis-2/maxwin/openbind-hippo/a71ev2a/cycle_01/bulkdock/openbind_a71ev2a_c1_elab_chemspace.sdf', '/opt/xchem-fragalysis-2/maxwin/openbind-hippo/a71ev2a/cycle_01/syndirella/elabs/openbind_a71ev2a_c1_elab_chemspace_filtered.sdf']

>  <HIPPO Compound ID>  (208) 
292557

>  <gnina_score>  (208) 
5.083

$$$$
LAJJOOWLOCFVGW-UHFFFAOYSA-N-P308-P15-P308-601501
     RDKit          3D

 19 20  0  0  0  0  0  0  0  0999 V2000
   10.2545   15.4722   20.4887 C   0  0  0  0  0  0  0  0  0  0  0  0
    9.9035   15.1780   21.5983 C   0  0  0  0  0  0  0  0  0  0  0  0
    9.5474   14.7725   22.9664 C   0  0  0  0  0  0  0  0  0  0  0  0
    9.6179   13.2462   23.0936 C   0  0  0  0  0  0  0  0  0  0  0  0
    9.7226   12.7294   24.4864 N   0  0  0  0  0  0  0  0  0  0  0  0
   10.6973   13.3289   25.3286 N   0  0  0  0  0  0  0  0  0  0  0  0
    8.4497   12.5349   25.0616 C   0  0  0  0  0  0  0  0  0  0  0  0
    7.7963   13.5964   25.6738 C   0  0  0  0  0  0  0  0  0  0  0  0
    6.5788   13.5313   26.2369 N   0  0  0  0  0  0  0  0  0  0  0  0
    5.9228   12.3551   26.2192 C   0  0  0  0  0  0  0  0  0  0  0  0
    4.5549   12.3509   26.8157 C   0  0  0  0  0  0  0  0  0  0  0  0
    4.2501   11.6113   28.0887 C   0  0  0  0  0  0  0  0  0  0  0  0
    4.3457   13.1072   28.1100 C   0  0  0  0  0  0  0  0  0  0  0  0
    6.4952   11.2264   25.6631 C   0  0  0  0  0  0  0  0  0  0  0  0
    7.7622   11.3129   25.0705 C   0  0  0  0  0  0  0  0  0  0  0  0
    8.2584   10.0278   24.5345 C   0  0  0  0  0  0  0  0  0  0  0  0
    7.7762    8.9633   24.8982 O   0  0  0  0  0  0  0  0  0  0  0  0
    9.1898   10.1813   23.5740 O   0  0  0  0  0  0  0  0  0  0  0  0
    9.6427    8.9498   23.0169 C   0  0  0  0  0  0  0  0  0  0  0  0
  1  2  3  0
  2  3  1  0
  3  4  1  0
  4  5  1  0
  5  6  1  0
  5  7  1  0
  7  8  2  0
  8  9  1  0
  9 10  2  0
 10 11  1  0
 11 12  1  0
 12 13  1  0
 10 14  1  0
 14 15  2  0
 15 16  1  0
 16 17  2  0
 16 18  1  0
 18 19  1  0
 15  7  1  0
 13 11  1  0
M  END
>  <distance_score>  (209) 
1.408605

>  <smiles>  (209) 
C#CCCN(N)c1cnc(C2CC2)cc1C(=O)OC

>  <fragmenstein_error>  (209) 


>  <fragmenstein_runtime>  (209) 
4.073668

>  <gnina_score_min>  (209) 
4.392

>  <orig_smiles>  (209) 
C#CCCN(N)c1cnc(C2CC2)cc1C(=O)OC

>  <fragmenstein_mode>  (209) 
expansion

>  <rmsd(smina/fragmenstein)>  (209) 
1.62

>  <inspiration_score>  (209) 
None

>  <name>  (209) 
LAJJOOWLOCFVGW-UHFFFAOYSA-N-P308-P15-P308-601501

>  <ref_pdb>  (209) 
A0528a

>  <ref_mols>  (209) 
A4331a,A0514a

>  <subsites>  (209) 
None

>  <tags>  (209) 
openbind_a71ev2a_c1_elabs_filtered,fragmenstein_placed,a71ev2a_c1_elab_bulkdock_input,openbind_a71ev2a_c1_elab_chemspace_filtered_scored

>  <inchikey>  (209) 
LAJJOOWLOCFVGW-UHFFFAOYSA-N

>  <scratch_subdir>  (209) 
/opt/xchem-fragalysis-2/maxwin/BulkDock/SCRATCH/601501/LAJJOOWLOCFVGW-UHFFFAOYSA-N-P308-P15-P308-601501

>  <smina_score_min>  (209) 
-5.28

>  <energy_score>  (209) 
-27.078296

>  <Energy>  (209) 
102.978598

>  <fragmenstein_outcome>  (209) 
too moved

>  <alias>  (209) 
LAJJOOWLOCFVGW-UHFFFAOYSA-N-P308-P15-P308-601501

>  <HIPPO Pose ID>  (209) 
501689

>  <exports>  (209) 
['/opt/xchem-fragalysis-2/maxwin/openbind-hippo/a71ev2a/cycle_01/bulkdock/openbind_a71ev2a_c1_elab_chemspace.sdf', '/opt/xchem-fragalysis-2/maxwin/openbind-hippo/a71ev2a/cycle_01/syndirella/elabs/openbind_a71ev2a_c1_elab_chemspace_filtered.sdf']

>  <HIPPO Compound ID>  (209) 
292558

>  <gnina_score>  (209) 
5.382

$$$$
ALSRXESHQAVPAZ-UHFFFAOYSA-N-P308-P15-P308-601501
     RDKit          3D

 19 20  0  0  0  0  0  0  0  0999 V2000
   10.8127   15.4053   20.3770 C   0  0  0  0  0  0  0  0  0  0  0  0
    9.7861   15.4047   21.2358 C   0  0  0  0  0  0  0  0  0  0  0  0
    9.9380   15.1052   22.6962 C   0  0  0  0  0  0  0  0  0  0  0  0
    9.3872   13.7232   23.0435 C   0  0  0  0  0  0  0  0  0  0  0  0
    9.5264   13.4943   24.4945 N   0  0  0  0  0  0  0  0  0  0  0  0
   10.8139   13.1962   24.9938 N   0  0  0  0  0  0  0  0  0  0  0  0
    8.4343   12.7895   25.0275 C   0  0  0  0  0  0  0  0  0  0  0  0
    7.4108   13.5544   25.5646 C   0  0  0  0  0  0  0  0  0  0  0  0
    6.3190   13.0578   26.1622 N   0  0  0  0  0  0  0  0  0  0  0  0
    6.1609   11.7189   26.2311 C   0  0  0  0  0  0  0  0  0  0  0  0
    5.0296   11.2285   27.0929 C   0  0  0  0  0  0  0  0  0  0  0  0
    3.8318   12.1162   27.3609 C   0  0  0  0  0  0  0  0  0  0  0  0
    4.8469   11.9113   28.4385 C   0  0  0  0  0  0  0  0  0  0  0  0
    7.0830   10.8658   25.6394 C   0  0  0  0  0  0  0  0  0  0  0  0
    8.2379   11.4063   25.0512 C   0  0  0  0  0  0  0  0  0  0  0  0
    9.2372   10.4720   24.4920 C   0  0  0  0  0  0  0  0  0  0  0  0
   10.4461   10.5684   24.6279 O   0  0  0  0  0  0  0  0  0  0  0  0
    8.5705    9.5267   23.7914 O   0  0  0  0  0  0  0  0  0  0  0  0
    9.4219    8.6201   23.0982 C   0  0  0  0  0  0  0  0  0  0  0  0
  1  2  2  0
  2  3  1  0
  3  4  1  0
  4  5  1  0
  5  6  1  0
  5  7  1  0
  7  8  2  0
  8  9  1  0
  9 10  2  0
 10 11  1  0
 11 12  1  0
 12 13  1  0
 10 14  1  0
 14 15  2  0
 15 16  1  0
 16 17  2  0
 16 18  1  0
 18 19  1  0
 15  7  1  0
 13 11  1  0
M  END
>  <distance_score>  (210) 
1.392172

>  <smiles>  (210) 
C=CCCN(N)c1cnc(C2CC2)cc1C(=O)OC

>  <fragmenstein_error>  (210) 


>  <fragmenstein_runtime>  (210) 
4.215221

>  <gnina_score_min>  (210) 
4.633

>  <orig_smiles>  (210) 
C=CCCN(N)c1cnc(C2CC2)cc1C(=O)OC

>  <fragmenstein_mode>  (210) 
expansion

>  <rmsd(smina/fragmenstein)>  (210) 
1.299

>  <inspiration_score>  (210) 
None

>  <name>  (210) 
ALSRXESHQAVPAZ-UHFFFAOYSA-N-P308-P15-P308-601501

>  <ref_pdb>  (210) 
A0528a

>  <ref_mols>  (210) 
A4331a,A0514a

>  <subsites>  (210) 
None

>  <tags>  (210) 
openbind_a71ev2a_c1_elabs_filtered,fragmenstein_placed,a71ev2a_c1_elab_bulkdock_input,openbind_a71ev2a_c1_elab_chemspace_filtered_scored

>  <inchikey>  (210) 
ALSRXESHQAVPAZ-UHFFFAOYSA-N

>  <scratch_subdir>  (210) 
/opt/xchem-fragalysis-2/maxwin/BulkDock/SCRATCH/601501/ALSRXESHQAVPAZ-UHFFFAOYSA-N-P308-P15-P308-601501

>  <smina_score_min>  (210) 
-5.464

>  <energy_score>  (210) 
-37.716446

>  <Energy>  (210) 
108.694099

>  <fragmenstein_outcome>  (210) 
too moved

>  <alias>  (210) 
ALSRXESHQAVPAZ-UHFFFAOYSA-N-P308-P15-P308-601501

>  <HIPPO Pose ID>  (210) 
501691

>  <exports>  (210) 
['/opt/xchem-fragalysis-2/maxwin/openbind-hippo/a71ev2a/cycle_01/bulkdock/openbind_a71ev2a_c1_elab_chemspace.sdf', '/opt/xchem-fragalysis-2/maxwin/openbind-hippo/a71ev2a/cycle_01/syndirella/elabs/openbind_a71ev2a_c1_elab_chemspace_filtered.sdf']

>  <HIPPO Compound ID>  (210) 
292559

>  <gnina_score>  (210) 
5.277

$$$$
IYGLMVUODGJOLB-UHFFFAOYSA-N-P308-P15-P308-601501
     RDKit          3D

 19 20  0  0  0  0  0  0  0  0999 V2000
    9.9107   15.8521   21.7624 C   0  0  0  0  0  0  0  0  0  0  0  0
   10.1792   14.6562   22.3058 C   0  0  0  0  0  0  0  0  0  0  0  0
    9.2146   13.6672   22.9222 C   0  0  2  0  0  0  0  0  0  0  0  0
    7.7675   13.9528   22.4847 C   0  0  0  0  0  0  0  0  0  0  0  0
    9.3641   13.7087   24.4097 N   0  0  0  0  0  0  0  0  0  0  0  0
   10.6650   13.6268   24.9870 N   0  0  0  0  0  0  0  0  0  0  0  0
    8.3914   12.9316   25.0726 C   0  0  0  0  0  0  0  0  0  0  0  0
    7.3869   13.6395   25.7162 C   0  0  0  0  0  0  0  0  0  0  0  0
    6.3311   13.0883   26.3285 N   0  0  0  0  0  0  0  0  0  0  0  0
    6.1958   11.7450   26.3167 C   0  0  0  0  0  0  0  0  0  0  0  0
    5.0621   11.1907   27.1361 C   0  0  0  0  0  0  0  0  0  0  0  0
    3.8389   12.0407   27.4156 C   0  0  0  0  0  0  0  0  0  0  0  0
    4.8358   11.8111   28.5047 C   0  0  0  0  0  0  0  0  0  0  0  0
    7.1344   10.9439   25.6778 C   0  0  0  0  0  0  0  0  0  0  0  0
    8.2565   11.5402   25.0744 C   0  0  0  0  0  0  0  0  0  0  0  0
    9.2763   10.6419   24.4871 C   0  0  0  0  0  0  0  0  0  0  0  0
   10.4807   10.7120   24.6508 O   0  0  0  0  0  0  0  0  0  0  0  0
    8.6134    9.7169   23.7501 O   0  0  0  0  0  0  0  0  0  0  0  0
    9.4581    8.7555   23.1209 C   0  0  0  0  0  0  0  0  0  0  0  0
  1  2  2  0
  2  3  1  0
  3  4  1  1
  3  5  1  0
  5  6  1  0
  5  7  1  0
  7  8  2  0
  8  9  1  0
  9 10  2  0
 10 11  1  0
 11 12  1  0
 12 13  1  0
 10 14  1  0
 14 15  2  0
 15 16  1  0
 16 17  2  0
 16 18  1  0
 18 19  1  0
 15  7  1  0
 13 11  1  0
M  END
>  <distance_score>  (211) 
1.479785

>  <smiles>  (211) 
C=CC(C)N(N)c1cnc(C2CC2)cc1C(=O)OC

>  <fragmenstein_error>  (211) 


>  <fragmenstein_runtime>  (211) 
5.926725

>  <gnina_score_min>  (211) 
4.851

>  <orig_smiles>  (211) 
C=CC(C)N(N)c1cnc(C2CC2)cc1C(=O)OC

>  <fragmenstein_mode>  (211) 
expansion

>  <rmsd(smina/fragmenstein)>  (211) 
1.064

>  <inspiration_score>  (211) 
None

>  <name>  (211) 
IYGLMVUODGJOLB-UHFFFAOYSA-N-P308-P15-P308-601501

>  <ref_pdb>  (211) 
A0528a

>  <ref_mols>  (211) 
A4331a,A0514a

>  <subsites>  (211) 
None

>  <tags>  (211) 
openbind_a71ev2a_c1_elabs_filtered,fragmenstein_placed,a71ev2a_c1_elab_bulkdock_input,openbind_a71ev2a_c1_elab_chemspace_filtered_scored

>  <inchikey>  (211) 
IYGLMVUODGJOLB-UHFFFAOYSA-N

>  <scratch_subdir>  (211) 
/opt/xchem-fragalysis-2/maxwin/BulkDock/SCRATCH/601501/IYGLMVUODGJOLB-UHFFFAOYSA-N-P308-P15-P308-601501

>  <smina_score_min>  (211) 
-5.482

>  <energy_score>  (211) 
-19.810042

>  <Energy>  (211) 
110.917536

>  <fragmenstein_outcome>  (211) 
too moved

>  <alias>  (211) 
IYGLMVUODGJOLB-UHFFFAOYSA-N-P308-P15-P308-601501

>  <HIPPO Pose ID>  (211) 
501693

>  <exports>  (211) 
['/opt/xchem-fragalysis-2/maxwin/openbind-hippo/a71ev2a/cycle_01/bulkdock/openbind_a71ev2a_c1_elab_chemspace.sdf', '/opt/xchem-fragalysis-2/maxwin/openbind-hippo/a71ev2a/cycle_01/syndirella/elabs/openbind_a71ev2a_c1_elab_chemspace_filtered.sdf']

>  <HIPPO Compound ID>  (211) 
292560

>  <gnina_score>  (211) 
5.288

$$$$
JXDHHEBCSCVVIV-UHFFFAOYSA-N-P308-P15-P308-601501
     RDKit          3D

 19 20  0  0  0  0  0  0  0  0999 V2000
    9.3793    8.6122   23.0609 C   0  0  0  0  0  0  0  0  0  0  0  0
    8.5432    9.5312   23.7548 O   0  0  0  0  0  0  0  0  0  0  0  0
    9.2236   10.4413   24.4877 C   0  0  0  0  0  0  0  0  0  0  0  0
   10.4325   10.4853   24.6553 O   0  0  0  0  0  0  0  0  0  0  0  0
    8.2437   11.3887   25.0591 C   0  0  0  0  0  0  0  0  0  0  0  0
    7.0834   10.8597   25.6461 C   0  0  0  0  0  0  0  0  0  0  0  0
    6.1848   11.7192   26.2624 C   0  0  0  0  0  0  0  0  0  0  0  0
    4.9980   11.2368   27.0470 C   0  0  0  0  0  0  0  0  0  0  0  0
    4.7929   11.7665   28.4509 C   0  0  0  0  0  0  0  0  0  0  0  0
    3.8763   12.2124   27.3570 C   0  0  0  0  0  0  0  0  0  0  0  0
    6.3948   13.0520   26.2567 N   0  0  0  0  0  0  0  0  0  0  0  0
    7.4844   13.5402   25.6503 C   0  0  0  0  0  0  0  0  0  0  0  0
    8.4629   12.7695   25.0426 C   0  0  0  0  0  0  0  0  0  0  0  0
    9.5399   13.4454   24.4668 N   0  0  0  0  0  0  0  0  0  0  0  0
   10.8376   13.1259   24.9381 N   0  0  0  0  0  0  0  0  0  0  0  0
    9.3971   13.9643   23.0656 C   0  0  1  0  0  0  0  0  0  0  0  0
    7.9820   13.9180   22.4930 C   0  0  0  0  0  0  0  0  0  0  0  0
    9.8886   15.4260   23.0405 C   0  0  0  0  0  0  0  0  0  0  0  0
   11.1846   15.5400   23.6285 O   0  0  0  0  0  0  0  0  0  0  0  0
  1  2  1  0
  2  3  1  0
  3  4  2  0
  3  5  1  0
  5  6  2  0
  6  7  1  0
  7  8  1  0
  8  9  1  0
  9 10  1  0
  7 11  2  0
 11 12  1  0
 12 13  2  0
 13 14  1  0
 14 15  1  0
 14 16  1  0
 16 17  1  1
 16 18  1  0
 18 19  1  0
 13  5  1  0
 10  8  1  0
M  END
>  <distance_score>  (212) 
1.479189

>  <smiles>  (212) 
COC(=O)c1cc(C2CC2)ncc1N(N)C(C)CO

>  <fragmenstein_error>  (212) 


>  <fragmenstein_runtime>  (212) 
4.116856

>  <gnina_score_min>  (212) 
4.633

>  <orig_smiles>  (212) 
COC(=O)c1cc(C2CC2)ncc1N(N)C(C)CO

>  <fragmenstein_mode>  (212) 
expansion

>  <rmsd(smina/fragmenstein)>  (212) 
1.581

>  <inspiration_score>  (212) 
None

>  <name>  (212) 
JXDHHEBCSCVVIV-UHFFFAOYSA-N-P308-P15-P308-601501

>  <ref_pdb>  (212) 
A0528a

>  <ref_mols>  (212) 
A4331a,A0514a

>  <subsites>  (212) 
None

>  <tags>  (212) 
openbind_a71ev2a_c1_elabs_filtered,fragmenstein_placed,a71ev2a_c1_elab_bulkdock_input,openbind_a71ev2a_c1_elab_chemspace_filtered_scored

>  <inchikey>  (212) 
JXDHHEBCSCVVIV-UHFFFAOYSA-N

>  <scratch_subdir>  (212) 
/opt/xchem-fragalysis-2/maxwin/BulkDock/SCRATCH/601501/JXDHHEBCSCVVIV-UHFFFAOYSA-N-P308-P15-P308-601501

>  <smina_score_min>  (212) 
-5.442

>  <energy_score>  (212) 
-41.493275

>  <Energy>  (212) 
114.746573

>  <fragmenstein_outcome>  (212) 
too moved

>  <alias>  (212) 
JXDHHEBCSCVVIV-UHFFFAOYSA-N-P308-P15-P308-601501

>  <HIPPO Pose ID>  (212) 
501699

>  <exports>  (212) 
['/opt/xchem-fragalysis-2/maxwin/openbind-hippo/a71ev2a/cycle_01/bulkdock/openbind_a71ev2a_c1_elab_chemspace.sdf', '/opt/xchem-fragalysis-2/maxwin/openbind-hippo/a71ev2a/cycle_01/syndirella/elabs/openbind_a71ev2a_c1_elab_chemspace_filtered.sdf']

>  <HIPPO Compound ID>  (212) 
292563

>  <gnina_score>  (212) 
5.08

$$$$
BTMDBVFYNMZVAP-UHFFFAOYSA-N-P308-P15-P308-601501
     RDKit          3D

 20 21  0  0  0  0  0  0  0  0999 V2000
   10.1808   15.9216   21.7541 C   0  0  0  0  0  0  0  0  0  0  0  0
   10.1471   14.5347   22.3760 C   0  0  0  0  0  0  0  0  0  0  0  0
    9.1052   14.3392   23.5051 C   0  0  0  0  0  0  0  0  0  0  0  0
    7.7099   14.8464   23.0588 C   0  0  0  0  0  0  0  0  0  0  0  0
    7.1776   14.2523   21.7802 C   0  0  0  0  0  0  0  0  0  0  0  0
    9.1230   12.8927   23.9724 N   0  0  0  0  0  0  0  0  0  0  0  0
   10.4208   12.3405   24.2704 N   0  0  0  0  0  0  0  0  0  0  0  0
    8.1290   12.4634   24.8802 C   0  0  0  0  0  0  0  0  0  0  0  0
    7.5398   13.3610   25.7648 C   0  0  0  0  0  0  0  0  0  0  0  0
    6.4940   13.1090   26.5725 N   0  0  0  0  0  0  0  0  0  0  0  0
    5.9490   11.8806   26.5558 C   0  0  0  0  0  0  0  0  0  0  0  0
    4.7381   11.6412   27.4047 C   0  0  0  0  0  0  0  0  0  0  0  0
    4.5711   12.3930   28.7024 C   0  0  0  0  0  0  0  0  0  0  0  0
    3.7169   12.7514   27.5239 C   0  0  0  0  0  0  0  0  0  0  0  0
    6.5243   10.8780   25.8051 C   0  0  0  0  0  0  0  0  0  0  0  0
    7.6421   11.1471   24.9954 C   0  0  0  0  0  0  0  0  0  0  0  0
    8.1830    9.9126   24.3755 C   0  0  0  0  0  0  0  0  0  0  0  0
    7.7992    8.8083   24.7382 O   0  0  0  0  0  0  0  0  0  0  0  0
    9.1045   10.1282   23.4201 O   0  0  0  0  0  0  0  0  0  0  0  0
    9.6223    8.9264   22.8540 C   0  0  0  0  0  0  0  0  0  0  0  0
  1  2  1  0
  2  3  1  0
  3  4  1  0
  4  5  1  0
  3  6  1  0
  6  7  1  0
  6  8  1  0
  8  9  2  0
  9 10  1  0
 10 11  2  0
 11 12  1  0
 12 13  1  0
 13 14  1  0
 11 15  1  0
 15 16  2  0
 16 17  1  0
 17 18  2  0
 17 19  1  0
 19 20  1  0
 16  8  1  0
 14 12  1  0
M  END
>  <distance_score>  (213) 
1.722407

>  <smiles>  (213) 
CCC(CC)N(N)c1cnc(C2CC2)cc1C(=O)OC

>  <fragmenstein_error>  (213) 


>  <fragmenstein_runtime>  (213) 
6.607444

>  <gnina_score_min>  (213) 
5.173

>  <orig_smiles>  (213) 
CCC(CC)N(N)c1cnc(C2CC2)cc1C(=O)OC

>  <fragmenstein_mode>  (213) 
expansion

>  <rmsd(smina/fragmenstein)>  (213) 
1.663

>  <inspiration_score>  (213) 
None

>  <name>  (213) 
BTMDBVFYNMZVAP-UHFFFAOYSA-N-P308-P15-P308-601501

>  <ref_pdb>  (213) 
A0528a

>  <ref_mols>  (213) 
A4331a,A0514a

>  <subsites>  (213) 
None

>  <tags>  (213) 
openbind_a71ev2a_c1_elabs_filtered,fragmenstein_placed,a71ev2a_c1_elab_bulkdock_input,openbind_a71ev2a_c1_elab_chemspace_filtered_scored

>  <inchikey>  (213) 
BTMDBVFYNMZVAP-UHFFFAOYSA-N

>  <scratch_subdir>  (213) 
/opt/xchem-fragalysis-2/maxwin/BulkDock/SCRATCH/601501/BTMDBVFYNMZVAP-UHFFFAOYSA-N-P308-P15-P308-601501

>  <smina_score_min>  (213) 
-5.585

>  <energy_score>  (213) 
-36.062036

>  <Energy>  (213) 
101.845927

>  <fragmenstein_outcome>  (213) 
too moved

>  <alias>  (213) 
BTMDBVFYNMZVAP-UHFFFAOYSA-N-P308-P15-P308-601501

>  <HIPPO Pose ID>  (213) 
501705

>  <exports>  (213) 
['/opt/xchem-fragalysis-2/maxwin/openbind-hippo/a71ev2a/cycle_01/bulkdock/openbind_a71ev2a_c1_elab_chemspace.sdf', '/opt/xchem-fragalysis-2/maxwin/openbind-hippo/a71ev2a/cycle_01/syndirella/elabs/openbind_a71ev2a_c1_elab_chemspace_filtered.sdf']

>  <HIPPO Compound ID>  (213) 
292566

>  <gnina_score>  (213) 
5.342

$$$$
QQRIFGCKTMEUBY-UHFFFAOYSA-N-P308-P15-P308-601501
     RDKit          3D

 20 21  0  0  0  0  0  0  0  0999 V2000
    9.2711    8.4105   23.0722 C   0  0  0  0  0  0  0  0  0  0  0  0
    8.4036    9.2161   23.8574 O   0  0  0  0  0  0  0  0  0  0  0  0
    9.0642   10.1816   24.5331 C   0  0  0  0  0  0  0  0  0  0  0  0
   10.2717   10.2768   24.7068 O   0  0  0  0  0  0  0  0  0  0  0  0
    8.0775   11.1915   24.9567 C   0  0  0  0  0  0  0  0  0  0  0  0
    6.9904   10.7218   25.7087 C   0  0  0  0  0  0  0  0  0  0  0  0
    6.1496   11.6326   26.3201 C   0  0  0  0  0  0  0  0  0  0  0  0
    5.0336   11.2305   27.2439 C   0  0  0  0  0  0  0  0  0  0  0  0
    3.8328   12.1349   27.4190 C   0  0  0  0  0  0  0  0  0  0  0  0
    4.8476   12.0421   28.5141 C   0  0  0  0  0  0  0  0  0  0  0  0
    6.3807   12.9523   26.1958 N   0  0  0  0  0  0  0  0  0  0  0  0
    7.3796   13.3720   25.3971 C   0  0  0  0  0  0  0  0  0  0  0  0
    8.2472   12.5590   24.6760 C   0  0  0  0  0  0  0  0  0  0  0  0
    9.1693   13.1009   23.7327 N   0  0  0  0  0  0  0  0  0  0  0  0
    9.7624   12.1595   22.8555 N   0  0  0  0  0  0  0  0  0  0  0  0
    8.7936   14.4184   23.1223 C   0  0  2  0  0  0  0  0  0  0  0  0
    7.6085   14.2464   22.1668 C   0  0  0  0  0  0  0  0  0  0  0  0
   10.0250   15.0807   22.4474 C   0  0  0  0  0  0  0  0  0  0  0  0
    9.6445   16.2921   21.6010 C   0  0  0  0  0  0  0  0  0  0  0  0
   11.0579   15.4751   23.5058 C   0  0  0  0  0  0  0  0  0  0  0  0
  1  2  1  0
  2  3  1  0
  3  4  2  0
  3  5  1  0
  5  6  2  0
  6  7  1  0
  7  8  1  0
  8  9  1  0
  9 10  1  0
  7 11  2  0
 11 12  1  0
 12 13  2  0
 13 14  1  0
 14 15  1  0
 14 16  1  0
 16 17  1  6
 16 18  1  0
 18 19  1  0
 18 20  1  0
 13  5  1  0
 10  8  1  0
M  END
>  <distance_score>  (214) 
1.342723

>  <smiles>  (214) 
COC(=O)c1cc(C2CC2)ncc1N(N)C(C)C(C)C

>  <fragmenstein_error>  (214) 


>  <fragmenstein_runtime>  (214) 
4.208173

>  <gnina_score_min>  (214) 
5.248

>  <orig_smiles>  (214) 
COC(=O)c1cc(C2CC2)ncc1N(N)C(C)C(C)C

>  <fragmenstein_mode>  (214) 
expansion

>  <rmsd(smina/fragmenstein)>  (214) 
1.214

>  <inspiration_score>  (214) 
None

>  <name>  (214) 
QQRIFGCKTMEUBY-UHFFFAOYSA-N-P308-P15-P308-601501

>  <ref_pdb>  (214) 
A0528a

>  <ref_mols>  (214) 
A4331a,A0514a

>  <subsites>  (214) 
None

>  <tags>  (214) 
openbind_a71ev2a_c1_elabs_filtered,fragmenstein_placed,a71ev2a_c1_elab_bulkdock_input,openbind_a71ev2a_c1_elab_chemspace_filtered_scored

>  <inchikey>  (214) 
QQRIFGCKTMEUBY-UHFFFAOYSA-N

>  <scratch_subdir>  (214) 
/opt/xchem-fragalysis-2/maxwin/BulkDock/SCRATCH/601501/QQRIFGCKTMEUBY-UHFFFAOYSA-N-P308-P15-P308-601501

>  <smina_score_min>  (214) 
-5.019

>  <energy_score>  (214) 
-46.036911

>  <Energy>  (214) 
102.271799

>  <fragmenstein_outcome>  (214) 
too moved

>  <alias>  (214) 
QQRIFGCKTMEUBY-UHFFFAOYSA-N-P308-P15-P308-601501

>  <HIPPO Pose ID>  (214) 
501711

>  <exports>  (214) 
['/opt/xchem-fragalysis-2/maxwin/openbind-hippo/a71ev2a/cycle_01/bulkdock/openbind_a71ev2a_c1_elab_chemspace.sdf', '/opt/xchem-fragalysis-2/maxwin/openbind-hippo/a71ev2a/cycle_01/syndirella/elabs/openbind_a71ev2a_c1_elab_chemspace_filtered.sdf']

>  <HIPPO Compound ID>  (214) 
292569

>  <gnina_score>  (214) 
5.318

$$$$
JJRZARWUSRCCJQ-UHFFFAOYSA-N-P308-P15-P308-601501
     RDKit          3D

 20 22  0  0  0  0  0  0  0  0999 V2000
    9.4492    8.4354   23.1001 C   0  0  0  0  0  0  0  0  0  0  0  0
    8.6092    9.2164   23.9332 O   0  0  0  0  0  0  0  0  0  0  0  0
    9.2667   10.2302   24.5312 C   0  0  0  0  0  0  0  0  0  0  0  0
   10.4741   10.3782   24.6587 O   0  0  0  0  0  0  0  0  0  0  0  0
    8.2706   11.2295   24.9388 C   0  0  0  0  0  0  0  0  0  0  0  0
    7.1014   10.8336   25.5858 C   0  0  0  0  0  0  0  0  0  0  0  0
    6.2147   11.8156   25.9897 C   0  0  0  0  0  0  0  0  0  0  0  0
    5.0560   11.5139   26.8980 C   0  0  0  0  0  0  0  0  0  0  0  0
    4.9890   12.2092   28.2406 C   0  0  0  0  0  0  0  0  0  0  0  0
    4.0148   12.5809   27.1679 C   0  0  0  0  0  0  0  0  0  0  0  0
    6.4177   13.1074   25.6434 N   0  0  0  0  0  0  0  0  0  0  0  0
    7.5147   13.4507   24.9410 C   0  0  0  0  0  0  0  0  0  0  0  0
    8.5291   12.5685   24.6413 C   0  0  0  0  0  0  0  0  0  0  0  0
    9.7319   12.9641   24.0647 N   0  0  0  0  0  0  0  0  0  0  0  0
    9.9479   13.9873   23.1910 C   0  0  0  0  0  0  0  0  0  0  0  0
    9.2198   14.3553   22.1846 N   0  0  0  0  0  0  0  0  0  0  0  0
    9.9111   15.3732   21.5802 N   0  0  0  0  0  0  0  0  0  0  0  0
    9.8563   15.5092   20.1297 C   0  0  0  0  0  0  0  0  0  0  0  0
   11.2931   15.4648   22.0262 C   0  0  0  0  0  0  0  0  0  0  0  0
   11.2071   14.7895   23.3666 C   0  0  0  0  0  0  0  0  0  0  0  0
  1  2  1  0
  2  3  1  0
  3  4  2  0
  3  5  1  0
  5  6  2  0
  6  7  1  0
  7  8  1  0
  8  9  1  0
  9 10  1  0
  7 11  2  0
 11 12  1  0
 12 13  2  0
 13 14  1  0
 14 15  1  0
 15 16  2  0
 16 17  1  0
 17 18  1  0
 17 19  1  0
 19 20  1  0
 13  5  1  0
 20 15  1  0
 10  8  1  0
M  END
>  <distance_score>  (215) 
1.634567

>  <smiles>  (215) 
COC(=O)c1cc(C2CC2)ncc1NC1=NN(C)CC1

>  <fragmenstein_error>  (215) 


>  <fragmenstein_runtime>  (215) 
4.327396

>  <gnina_score_min>  (215) 
4.927

>  <orig_smiles>  (215) 
COC(=O)c1cc(C2CC2)ncc1NC1=NN(C)CC1

>  <fragmenstein_mode>  (215) 
expansion

>  <rmsd(smina/fragmenstein)>  (215) 
2.137

>  <inspiration_score>  (215) 
None

>  <name>  (215) 
JJRZARWUSRCCJQ-UHFFFAOYSA-N-P308-P15-P308-601501

>  <ref_pdb>  (215) 
A0528a

>  <ref_mols>  (215) 
A4331a,A0514a

>  <subsites>  (215) 
None

>  <tags>  (215) 
openbind_a71ev2a_c1_elabs_filtered,fragmenstein_placed,a71ev2a_c1_elab_bulkdock_input,openbind_a71ev2a_c1_elab_chemspace_filtered_scored

>  <inchikey>  (215) 
JJRZARWUSRCCJQ-UHFFFAOYSA-N

>  <scratch_subdir>  (215) 
/opt/xchem-fragalysis-2/maxwin/BulkDock/SCRATCH/601501/JJRZARWUSRCCJQ-UHFFFAOYSA-N-P308-P15-P308-601501

>  <smina_score_min>  (215) 
-6.142

>  <energy_score>  (215) 
-37.808395

>  <Energy>  (215) 
53.238941

>  <fragmenstein_outcome>  (215) 
too moved

>  <alias>  (215) 
JJRZARWUSRCCJQ-UHFFFAOYSA-N-P308-P15-P308-601501

>  <HIPPO Pose ID>  (215) 
501717

>  <exports>  (215) 
['/opt/xchem-fragalysis-2/maxwin/openbind-hippo/a71ev2a/cycle_01/bulkdock/openbind_a71ev2a_c1_elab_chemspace.sdf', '/opt/xchem-fragalysis-2/maxwin/openbind-hippo/a71ev2a/cycle_01/syndirella/elabs/openbind_a71ev2a_c1_elab_chemspace_filtered.sdf']

>  <HIPPO Compound ID>  (215) 
292572

>  <gnina_score>  (215) 
5.27

$$$$
FNPBCGZTXGNWIN-UHFFFAOYSA-N-P308-P15-P308-601501
     RDKit          3D

 20 21  0  0  0  0  0  0  0  0999 V2000
    9.6163    8.5772   23.5552 C   0  0  0  0  0  0  0  0  0  0  0  0
    8.7846    9.3775   24.3905 O   0  0  0  0  0  0  0  0  0  0  0  0
    8.7550   10.6752   24.0069 C   0  0  0  0  0  0  0  0  0  0  0  0
    9.2972   11.1401   23.0191 O   0  0  0  0  0  0  0  0  0  0  0  0
    7.9404   11.4627   24.9505 C   0  0  0  0  0  0  0  0  0  0  0  0
    6.8136   10.8918   25.5531 C   0  0  0  0  0  0  0  0  0  0  0  0
    6.0263   11.6854   26.3767 C   0  0  0  0  0  0  0  0  0  0  0  0
    4.8931   11.1426   27.2010 C   0  0  0  0  0  0  0  0  0  0  0  0
    3.6924   12.0184   27.4934 C   0  0  0  0  0  0  0  0  0  0  0  0
    4.6804   11.7409   28.5807 C   0  0  0  0  0  0  0  0  0  0  0  0
    6.2967   13.0004   26.5459 N   0  0  0  0  0  0  0  0  0  0  0  0
    7.3885   13.5185   25.9713 C   0  0  0  0  0  0  0  0  0  0  0  0
    8.2824   12.7938   25.2050 C   0  0  0  0  0  0  0  0  0  0  0  0
    9.4800   13.3804   24.7388 N   0  0  0  0  0  0  0  0  0  0  0  0
   10.3350   13.8607   25.7755 N   0  0  0  0  0  0  0  0  0  0  0  0
    9.1732   14.2986   23.6177 C   0  0  0  0  0  0  0  0  0  0  0  0
   10.4182   14.4815   22.7601 C   0  0  0  0  0  0  0  0  0  0  0  0
   10.2369   15.4974   21.6317 C   0  0  0  0  0  0  0  0  0  0  0  0
    8.9803   15.2309   20.8271 C   0  0  0  0  0  0  0  0  0  0  0  0
   11.4620   15.4650   20.7208 C   0  0  0  0  0  0  0  0  0  0  0  0
  1  2  1  0
  2  3  1  0
  3  4  2  0
  3  5  1  0
  5  6  2  0
  6  7  1  0
  7  8  1  0
  8  9  1  0
  9 10  1  0
  7 11  2  0
 11 12  1  0
 12 13  2  0
 13 14  1  0
 14 15  1  0
 14 16  1  0
 16 17  1  0
 17 18  1  0
 18 19  1  0
 18 20  1  0
 13  5  1  0
 10  8  1  0
M  END
>  <distance_score>  (216) 
1.398726

>  <smiles>  (216) 
COC(=O)c1cc(C2CC2)ncc1N(N)CCC(C)C

>  <fragmenstein_error>  (216) 


>  <fragmenstein_runtime>  (216) 
4.561677

>  <gnina_score_min>  (216) 
4.993

>  <orig_smiles>  (216) 
COC(=O)c1cc(C2CC2)ncc1N(N)CCC(C)C

>  <fragmenstein_mode>  (216) 
expansion

>  <rmsd(smina/fragmenstein)>  (216) 
1.252

>  <inspiration_score>  (216) 
None

>  <name>  (216) 
FNPBCGZTXGNWIN-UHFFFAOYSA-N-P308-P15-P308-601501

>  <ref_pdb>  (216) 
A0528a

>  <ref_mols>  (216) 
A4331a,A0514a

>  <subsites>  (216) 
None

>  <tags>  (216) 
openbind_a71ev2a_c1_elabs_filtered,fragmenstein_placed,a71ev2a_c1_elab_bulkdock_input,openbind_a71ev2a_c1_elab_chemspace_filtered_scored

>  <inchikey>  (216) 
FNPBCGZTXGNWIN-UHFFFAOYSA-N

>  <scratch_subdir>  (216) 
/opt/xchem-fragalysis-2/maxwin/BulkDock/SCRATCH/601501/FNPBCGZTXGNWIN-UHFFFAOYSA-N-P308-P15-P308-601501

>  <smina_score_min>  (216) 
-5.801

>  <energy_score>  (216) 
-37.604676

>  <Energy>  (216) 
96.513151

>  <fragmenstein_outcome>  (216) 
too moved

>  <alias>  (216) 
FNPBCGZTXGNWIN-UHFFFAOYSA-N-P308-P15-P308-601501

>  <HIPPO Pose ID>  (216) 
501719

>  <exports>  (216) 
['/opt/xchem-fragalysis-2/maxwin/openbind-hippo/a71ev2a/cycle_01/bulkdock/openbind_a71ev2a_c1_elab_chemspace.sdf', '/opt/xchem-fragalysis-2/maxwin/openbind-hippo/a71ev2a/cycle_01/syndirella/elabs/openbind_a71ev2a_c1_elab_chemspace_filtered.sdf']

>  <HIPPO Compound ID>  (216) 
292573

>  <gnina_score>  (216) 
5.397

$$$$
GAYRVLXTARAIBY-UHFFFAOYSA-N-P308-P15-P308-601501
     RDKit          3D

 20 21  0  0  0  0  0  0  0  0999 V2000
    9.2642    8.4113   23.6968 C   0  0  0  0  0  0  0  0  0  0  0  0
    8.5634    9.3657   24.4816 O   0  0  0  0  0  0  0  0  0  0  0  0
    8.6763   10.6026   23.9549 C   0  0  0  0  0  0  0  0  0  0  0  0
    9.2388   10.8802   22.9103 O   0  0  0  0  0  0  0  0  0  0  0  0
    8.0107   11.5798   24.8294 C   0  0  0  0  0  0  0  0  0  0  0  0
    6.7850   11.2556   25.4222 C   0  0  0  0  0  0  0  0  0  0  0  0
    6.1339   12.2322   26.1579 C   0  0  0  0  0  0  0  0  0  0  0  0
    4.7520   12.0767   26.7047 C   0  0  0  0  0  0  0  0  0  0  0  0
    4.4138   11.1838   27.8634 C   0  0  0  0  0  0  0  0  0  0  0  0
    4.4805   12.6649   28.0758 C   0  0  0  0  0  0  0  0  0  0  0  0
    6.6976   13.4431   26.3612 N   0  0  0  0  0  0  0  0  0  0  0  0
    7.8871   13.7180   25.8025 C   0  0  0  0  0  0  0  0  0  0  0  0
    8.5970   12.8378   25.0101 C   0  0  0  0  0  0  0  0  0  0  0  0
    9.8224   13.1935   24.4226 N   0  0  0  0  0  0  0  0  0  0  0  0
   10.8263   13.7028   25.2808 N   0  0  0  0  0  0  0  0  0  0  0  0
    9.6738   13.7213   23.0278 C   0  0  0  0  0  0  0  0  0  0  0  0
    9.5418   15.2315   22.9085 C   0  0  0  0  0  0  0  0  0  0  0  0
    9.5052   15.6071   21.6119 F   0  0  0  0  0  0  0  0  0  0  0  0
   10.5917   15.8574   23.4961 F   0  0  0  0  0  0  0  0  0  0  0  0
    8.4174   15.6863   23.5028 F   0  0  0  0  0  0  0  0  0  0  0  0
  1  2  1  0
  2  3  1  0
  3  4  2  0
  3  5  1  0
  5  6  2  0
  6  7  1  0
  7  8  1  0
  8  9  1  0
  9 10  1  0
  7 11  2  0
 11 12  1  0
 12 13  2  0
 13 14  1  0
 14 15  1  0
 14 16  1  0
 16 17  1  0
 17 18  1  0
 17 19  1  0
 17 20  1  0
 13  5  1  0
 10  8  1  0
M  END
>  <distance_score>  (217) 
1.404771

>  <smiles>  (217) 
COC(=O)c1cc(C2CC2)ncc1N(N)CC(F)(F)F

>  <fragmenstein_error>  (217) 


>  <fragmenstein_runtime>  (217) 
4.17706

>  <gnina_score_min>  (217) 
4.706

>  <orig_smiles>  (217) 
COC(=O)c1cc(C2CC2)ncc1N(N)CC(F)(F)F

>  <fragmenstein_mode>  (217) 
expansion

>  <rmsd(smina/fragmenstein)>  (217) 
2.001

>  <inspiration_score>  (217) 
None

>  <name>  (217) 
GAYRVLXTARAIBY-UHFFFAOYSA-N-P308-P15-P308-601501

>  <ref_pdb>  (217) 
A0528a

>  <ref_mols>  (217) 
A4331a,A0514a

>  <subsites>  (217) 
None

>  <tags>  (217) 
openbind_a71ev2a_c1_elabs_filtered,fragmenstein_placed,a71ev2a_c1_elab_bulkdock_input,openbind_a71ev2a_c1_elab_chemspace_filtered_scored

>  <inchikey>  (217) 
GAYRVLXTARAIBY-UHFFFAOYSA-N

>  <scratch_subdir>  (217) 
/opt/xchem-fragalysis-2/maxwin/BulkDock/SCRATCH/601501/GAYRVLXTARAIBY-UHFFFAOYSA-N-P308-P15-P308-601501

>  <smina_score_min>  (217) 
-5.969

>  <energy_score>  (217) 
-37.930027

>  <Energy>  (217) 
147.849461

>  <fragmenstein_outcome>  (217) 
too moved

>  <alias>  (217) 
GAYRVLXTARAIBY-UHFFFAOYSA-N-P308-P15-P308-601501

>  <HIPPO Pose ID>  (217) 
501725

>  <exports>  (217) 
['/opt/xchem-fragalysis-2/maxwin/openbind-hippo/a71ev2a/cycle_01/bulkdock/openbind_a71ev2a_c1_elab_chemspace.sdf', '/opt/xchem-fragalysis-2/maxwin/openbind-hippo/a71ev2a/cycle_01/syndirella/elabs/openbind_a71ev2a_c1_elab_chemspace_filtered.sdf']

>  <HIPPO Compound ID>  (217) 
292576

>  <gnina_score>  (217) 
5.111

$$$$
CIEDROUCRORRHZ-UHFFFAOYSA-N-P308-P15-P308-601501
     RDKit          3D

 20 22  0  0  0  0  0  0  0  0999 V2000
    9.3516    8.5461   23.0491 C   0  0  0  0  0  0  0  0  0  0  0  0
    8.4819    9.4141   23.7654 O   0  0  0  0  0  0  0  0  0  0  0  0
    9.1357   10.3601   24.4745 C   0  0  0  0  0  0  0  0  0  0  0  0
   10.3417   10.4441   24.6552 O   0  0  0  0  0  0  0  0  0  0  0  0
    8.1296   11.2948   25.0145 C   0  0  0  0  0  0  0  0  0  0  0  0
    7.0165   10.7761   25.6868 C   0  0  0  0  0  0  0  0  0  0  0  0
    6.1507   11.6541   26.3226 C   0  0  0  0  0  0  0  0  0  0  0  0
    5.0157   11.1975   27.1979 C   0  0  0  0  0  0  0  0  0  0  0  0
    3.8169   12.0972   27.4140 C   0  0  0  0  0  0  0  0  0  0  0  0
    4.8149   11.9281   28.5146 C   0  0  0  0  0  0  0  0  0  0  0  0
    6.3660   12.9863   26.2771 N   0  0  0  0  0  0  0  0  0  0  0  0
    7.4076   13.4596   25.5770 C   0  0  0  0  0  0  0  0  0  0  0  0
    8.3140   12.6743   24.8862 C   0  0  0  0  0  0  0  0  0  0  0  0
    9.3207   13.2286   24.0753 N   0  0  0  0  0  0  0  0  0  0  0  0
   10.5981   13.2463   24.7281 N   0  0  0  0  0  0  0  0  0  0  0  0
    8.9282   14.4244   23.2644 C   0  0  2  0  0  0  0  0  0  0  0  0
    7.6300   14.1850   22.4782 C   0  0  0  0  0  0  0  0  0  0  0  0
   10.0298   14.7169   22.2690 C   0  0  0  0  0  0  0  0  0  0  0  0
   10.0753   16.0384   21.5442 C   0  0  0  0  0  0  0  0  0  0  0  0
   11.1068   15.7237   22.5918 C   0  0  0  0  0  0  0  0  0  0  0  0
  1  2  1  0
  2  3  1  0
  3  4  2  0
  3  5  1  0
  5  6  2  0
  6  7  1  0
  7  8  1  0
  8  9  1  0
  9 10  1  0
  7 11  2  0
 11 12  1  0
 12 13  2  0
 13 14  1  0
 14 15  1  0
 14 16  1  0
 16 17  1  6
 16 18  1  0
 18 19  1  0
 19 20  1  0
 13  5  1  0
 20 18  1  0
 10  8  1  0
M  END
>  <distance_score>  (218) 
1.298418

>  <smiles>  (218) 
COC(=O)c1cc(C2CC2)ncc1N(N)C(C)C1CC1

>  <fragmenstein_error>  (218) 


>  <fragmenstein_runtime>  (218) 
3.278898

>  <gnina_score_min>  (218) 
5.174

>  <orig_smiles>  (218) 
COC(=O)c1cc(C2CC2)ncc1N(N)C(C)C1CC1

>  <fragmenstein_mode>  (218) 
expansion

>  <rmsd(smina/fragmenstein)>  (218) 
1.168

>  <inspiration_score>  (218) 
None

>  <name>  (218) 
CIEDROUCRORRHZ-UHFFFAOYSA-N-P308-P15-P308-601501

>  <ref_pdb>  (218) 
A0528a

>  <ref_mols>  (218) 
A4331a,A0514a

>  <subsites>  (218) 
None

>  <tags>  (218) 
openbind_a71ev2a_c1_elabs_filtered,fragmenstein_placed,a71ev2a_c1_elab_bulkdock_input,openbind_a71ev2a_c1_elab_chemspace_filtered_scored

>  <inchikey>  (218) 
CIEDROUCRORRHZ-UHFFFAOYSA-N

>  <scratch_subdir>  (218) 
/opt/xchem-fragalysis-2/maxwin/BulkDock/SCRATCH/601501/CIEDROUCRORRHZ-UHFFFAOYSA-N-P308-P15-P308-601501

>  <smina_score_min>  (218) 
-5.955

>  <energy_score>  (218) 
-41.755023

>  <Energy>  (218) 
115.744647

>  <fragmenstein_outcome>  (218) 
too moved

>  <alias>  (218) 
CIEDROUCRORRHZ-UHFFFAOYSA-N-P308-P15-P308-601501

>  <HIPPO Pose ID>  (218) 
501731

>  <exports>  (218) 
['/opt/xchem-fragalysis-2/maxwin/openbind-hippo/a71ev2a/cycle_01/bulkdock/openbind_a71ev2a_c1_elab_chemspace.sdf', '/opt/xchem-fragalysis-2/maxwin/openbind-hippo/a71ev2a/cycle_01/syndirella/elabs/openbind_a71ev2a_c1_elab_chemspace_filtered.sdf']

>  <HIPPO Compound ID>  (218) 
292579

>  <gnina_score>  (218) 
5.446

$$$$
DVTDEJLJACCKQK-UHFFFAOYSA-N-P308-P15-P308-601501
     RDKit          3D

 20 21  0  0  0  0  0  0  0  0999 V2000
   12.1140   16.1060   21.4164 C   0  0  0  0  0  0  0  0  0  0  0  0
   10.9850   15.5297   20.5744 C   0  0  0  0  0  0  0  0  0  0  0  0
    9.7453   15.1953   21.4030 C   0  0  0  0  0  0  0  0  0  0  0  0
   10.0769   14.2041   22.5102 C   0  0  0  0  0  0  0  0  0  0  0  0
    8.8599   13.8183   23.3298 C   0  0  0  0  0  0  0  0  0  0  0  0
    9.2307   12.7985   24.3550 N   0  0  0  0  0  0  0  0  0  0  0  0
   10.2811   13.1609   25.2583 N   0  0  0  0  0  0  0  0  0  0  0  0
    8.0615   12.3882   25.0417 C   0  0  0  0  0  0  0  0  0  0  0  0
    7.3361   13.3165   25.7825 C   0  0  0  0  0  0  0  0  0  0  0  0
    6.2461   13.0382   26.5106 N   0  0  0  0  0  0  0  0  0  0  0  0
    5.7913   11.7708   26.5325 C   0  0  0  0  0  0  0  0  0  0  0  0
    4.6055   11.4877   27.4036 C   0  0  0  0  0  0  0  0  0  0  0  0
    4.4689   12.2120   28.7220 C   0  0  0  0  0  0  0  0  0  0  0  0
    3.5643   12.5712   27.5823 C   0  0  0  0  0  0  0  0  0  0  0  0
    6.4369   10.7744   25.8232 C   0  0  0  0  0  0  0  0  0  0  0  0
    7.5919   11.0731   25.0868 C   0  0  0  0  0  0  0  0  0  0  0  0
    8.2254    9.8936   24.4631 C   0  0  0  0  0  0  0  0  0  0  0  0
    7.8980    8.7618   24.7955 O   0  0  0  0  0  0  0  0  0  0  0  0
    9.1048   10.1925   23.4883 O   0  0  0  0  0  0  0  0  0  0  0  0
    9.6725    9.0326   22.8858 C   0  0  0  0  0  0  0  0  0  0  0  0
  1  2  1  0
  2  3  1  0
  3  4  1  0
  4  5  1  0
  5  6  1  0
  6  7  1  0
  6  8  1  0
  8  9  2  0
  9 10  1  0
 10 11  2  0
 11 12  1  0
 12 13  1  0
 13 14  1  0
 11 15  1  0
 15 16  2  0
 16 17  1  0
 17 18  2  0
 17 19  1  0
 19 20  1  0
 16  8  1  0
 14 12  1  0
M  END
>  <distance_score>  (219) 
1.562054

>  <smiles>  (219) 
CCCCCN(N)c1cnc(C2CC2)cc1C(=O)OC

>  <fragmenstein_error>  (219) 


>  <fragmenstein_runtime>  (219) 
5.969056

>  <gnina_score_min>  (219) 
4.384

>  <orig_smiles>  (219) 
CCCCCN(N)c1cnc(C2CC2)cc1C(=O)OC

>  <fragmenstein_mode>  (219) 
expansion

>  <rmsd(smina/fragmenstein)>  (219) 
1.667

>  <inspiration_score>  (219) 
None

>  <name>  (219) 
DVTDEJLJACCKQK-UHFFFAOYSA-N-P308-P15-P308-601501

>  <ref_pdb>  (219) 
A0528a

>  <ref_mols>  (219) 
A4331a,A0514a

>  <subsites>  (219) 
None

>  <tags>  (219) 
openbind_a71ev2a_c1_elabs_filtered,fragmenstein_placed,a71ev2a_c1_elab_bulkdock_input,openbind_a71ev2a_c1_elab_chemspace_filtered_scored

>  <inchikey>  (219) 
DVTDEJLJACCKQK-UHFFFAOYSA-N

>  <scratch_subdir>  (219) 
/opt/xchem-fragalysis-2/maxwin/BulkDock/SCRATCH/601501/DVTDEJLJACCKQK-UHFFFAOYSA-N-P308-P15-P308-601501

>  <smina_score_min>  (219) 
-5.266

>  <energy_score>  (219) 
-38.665133

>  <Energy>  (219) 
89.492158

>  <fragmenstein_outcome>  (219) 
too moved

>  <alias>  (219) 
DVTDEJLJACCKQK-UHFFFAOYSA-N-P308-P15-P308-601501

>  <HIPPO Pose ID>  (219) 
501733

>  <exports>  (219) 
['/opt/xchem-fragalysis-2/maxwin/openbind-hippo/a71ev2a/cycle_01/bulkdock/openbind_a71ev2a_c1_elab_chemspace.sdf', '/opt/xchem-fragalysis-2/maxwin/openbind-hippo/a71ev2a/cycle_01/syndirella/elabs/openbind_a71ev2a_c1_elab_chemspace_filtered.sdf']

>  <HIPPO Compound ID>  (219) 
292580

>  <gnina_score>  (219) 
5.411

$$$$
GESMEQKVEPIWDQ-UHFFFAOYSA-N-P308-P15-P308-601501
     RDKit          3D

 20 22  0  0  0  0  0  0  0  0999 V2000
    9.3964    8.7465   23.2311 C   0  0  0  0  0  0  0  0  0  0  0  0
    8.3964    9.5541   23.8503 O   0  0  0  0  0  0  0  0  0  0  0  0
    8.8509   10.7699   24.2312 C   0  0  0  0  0  0  0  0  0  0  0  0
    9.9988   11.1761   24.1725 O   0  0  0  0  0  0  0  0  0  0  0  0
    7.7343   11.5456   24.7966 C   0  0  0  0  0  0  0  0  0  0  0  0
    6.9226   10.9299   25.7536 C   0  0  0  0  0  0  0  0  0  0  0  0
    5.9586   11.6834   26.4071 C   0  0  0  0  0  0  0  0  0  0  0  0
    5.0165   11.1060   27.4247 C   0  0  0  0  0  0  0  0  0  0  0  0
    4.9219   11.7605   28.7859 C   0  0  0  0  0  0  0  0  0  0  0  0
    3.7892   11.9054   27.8221 C   0  0  0  0  0  0  0  0  0  0  0  0
    5.8470   13.0069   26.1766 N   0  0  0  0  0  0  0  0  0  0  0  0
    6.5642   13.5502   25.1827 C   0  0  0  0  0  0  0  0  0  0  0  0
    7.4861   12.8636   24.4090 C   0  0  0  0  0  0  0  0  0  0  0  0
    7.9501   13.4186   23.2004 N   0  0  0  0  0  0  0  0  0  0  0  0
    6.9583   14.1422   22.4676 N   0  0  0  0  0  0  0  0  0  0  0  0
    9.3058   14.0114   23.2813 C   0  0  1  0  0  0  0  0  0  0  0  0
   10.0366   13.6746   21.9935 C   0  0  0  0  0  0  0  0  0  0  0  0
   11.3347   14.4452   21.9686 C   0  0  0  0  0  0  0  0  0  0  0  0
   10.9462   16.0273   22.7375 S   0  0  0  0  0  0  0  0  0  0  0  0
    9.3229   15.5342   23.3791 C   0  0  0  0  0  0  0  0  0  0  0  0
  1  2  1  0
  2  3  1  0
  3  4  2  0
  3  5  1  0
  5  6  2  0
  6  7  1  0
  7  8  1  0
  8  9  1  0
  9 10  1  0
  7 11  2  0
 11 12  1  0
 12 13  2  0
 13 14  1  0
 14 15  1  0
 16 14  1  6
 16 17  1  0
 17 18  1  0
 18 19  1  0
 19 20  1  0
 13  5  1  0
 20 16  1  0
 10  8  1  0
M  END
>  <distance_score>  (220) 
1.847264

>  <smiles>  (220) 
COC(=O)c1cc(C2CC2)ncc1N(N)C1CCSC1

>  <fragmenstein_error>  (220) 


>  <fragmenstein_runtime>  (220) 
3.917605

>  <gnina_score_min>  (220) 
5.218

>  <orig_smiles>  (220) 
COC(=O)c1cc(C2CC2)ncc1N(N)C1CCSC1

>  <fragmenstein_mode>  (220) 
expansion

>  <rmsd(smina/fragmenstein)>  (220) 
0.978

>  <inspiration_score>  (220) 
None

>  <name>  (220) 
GESMEQKVEPIWDQ-UHFFFAOYSA-N-P308-P15-P308-601501

>  <ref_pdb>  (220) 
A0528a

>  <ref_mols>  (220) 
A4331a,A0514a

>  <subsites>  (220) 
None

>  <tags>  (220) 
openbind_a71ev2a_c1_elabs_filtered,fragmenstein_placed,a71ev2a_c1_elab_bulkdock_input,openbind_a71ev2a_c1_elab_chemspace_filtered_scored

>  <inchikey>  (220) 
GESMEQKVEPIWDQ-UHFFFAOYSA-N

>  <scratch_subdir>  (220) 
/opt/xchem-fragalysis-2/maxwin/BulkDock/SCRATCH/601501/GESMEQKVEPIWDQ-UHFFFAOYSA-N-P308-P15-P308-601501

>  <smina_score_min>  (220) 
-5.494

>  <energy_score>  (220) 
-33.745034

>  <Energy>  (220) 
108.998366

>  <fragmenstein_outcome>  (220) 
too moved

>  <alias>  (220) 
GESMEQKVEPIWDQ-UHFFFAOYSA-N-P308-P15-P308-601501

>  <HIPPO Pose ID>  (220) 
501735

>  <exports>  (220) 
['/opt/xchem-fragalysis-2/maxwin/openbind-hippo/a71ev2a/cycle_01/bulkdock/openbind_a71ev2a_c1_elab_chemspace.sdf', '/opt/xchem-fragalysis-2/maxwin/openbind-hippo/a71ev2a/cycle_01/syndirella/elabs/openbind_a71ev2a_c1_elab_chemspace_filtered.sdf']

>  <HIPPO Compound ID>  (220) 
292581

>  <gnina_score>  (220) 
5.317

$$$$
WEFYFGPLRBXMOK-UHFFFAOYSA-N-P308-P15-P308-601501
     RDKit          3D

 20 22  0  0  0  0  0  0  0  0999 V2000
    9.4600    8.5297   23.0799 C   0  0  0  0  0  0  0  0  0  0  0  0
    8.6038    9.3785   23.8286 O   0  0  0  0  0  0  0  0  0  0  0  0
    9.2582   10.3384   24.5146 C   0  0  0  0  0  0  0  0  0  0  0  0
   10.4617   10.4452   24.6966 O   0  0  0  0  0  0  0  0  0  0  0  0
    8.2488   11.3021   24.9774 C   0  0  0  0  0  0  0  0  0  0  0  0
    7.1182   10.8352   25.6555 C   0  0  0  0  0  0  0  0  0  0  0  0
    6.2088   11.7577   26.1494 C   0  0  0  0  0  0  0  0  0  0  0  0
    5.0938   11.3722   27.0829 C   0  0  0  0  0  0  0  0  0  0  0  0
    3.9028   12.2844   27.2750 C   0  0  0  0  0  0  0  0  0  0  0  0
    4.9389   12.1945   28.3505 C   0  0  0  0  0  0  0  0  0  0  0  0
    6.3641   13.0761   25.8952 N   0  0  0  0  0  0  0  0  0  0  0  0
    7.4098   13.4896   25.1589 C   0  0  0  0  0  0  0  0  0  0  0  0
    8.4212   12.6592   24.7114 C   0  0  0  0  0  0  0  0  0  0  0  0
    9.5141   13.1748   23.9947 N   0  0  0  0  0  0  0  0  0  0  0  0
   10.7725   13.2599   24.6269 N   0  0  0  0  0  0  0  0  0  0  0  0
    9.3591   13.9302   22.8781 C   0  0  0  0  0  0  0  0  0  0  0  0
    8.2928   14.1057   22.1230 N   0  0  0  0  0  0  0  0  0  0  0  0
    8.6510   14.9154   21.0664 N   0  0  0  0  0  0  0  0  0  0  0  0
    9.9190   15.2163   21.2022 C   0  0  0  0  0  0  0  0  0  0  0  0
   10.4025   14.6135   22.3157 N   0  0  0  0  0  0  0  0  0  0  0  0
  1  2  1  0
  2  3  1  0
  3  4  2  0
  3  5  1  0
  5  6  2  0
  6  7  1  0
  7  8  1  0
  8  9  1  0
  9 10  1  0
  7 11  2  0
 11 12  1  0
 12 13  2  0
 13 14  1  0
 14 15  1  0
 14 16  1  0
 16 17  2  0
 17 18  1  0
 18 19  2  0
 19 20  1  0
 13  5  1  0
 20 16  1  0
 10  8  1  0
M  END
>  <distance_score>  (221) 
1.341445

>  <smiles>  (221) 
COC(=O)c1cc(C2CC2)ncc1N(N)c1nnc[nH]1

>  <fragmenstein_error>  (221) 


>  <fragmenstein_runtime>  (221) 
3.59533

>  <gnina_score_min>  (221) 
4.673

>  <orig_smiles>  (221) 
COC(=O)c1cc(C2CC2)ncc1N(N)c1nnc[nH]1

>  <fragmenstein_mode>  (221) 
expansion

>  <rmsd(smina/fragmenstein)>  (221) 
1.365

>  <inspiration_score>  (221) 
None

>  <name>  (221) 
WEFYFGPLRBXMOK-UHFFFAOYSA-N-P308-P15-P308-601501

>  <ref_pdb>  (221) 
A0528a

>  <ref_mols>  (221) 
A4331a,A0514a

>  <subsites>  (221) 
None

>  <tags>  (221) 
openbind_a71ev2a_c1_elabs_filtered,fragmenstein_placed,a71ev2a_c1_elab_bulkdock_input,openbind_a71ev2a_c1_elab_chemspace_filtered_scored

>  <inchikey>  (221) 
WEFYFGPLRBXMOK-UHFFFAOYSA-N

>  <scratch_subdir>  (221) 
/opt/xchem-fragalysis-2/maxwin/BulkDock/SCRATCH/601501/WEFYFGPLRBXMOK-UHFFFAOYSA-N-P308-P15-P308-601501

>  <smina_score_min>  (221) 
-5.741

>  <energy_score>  (221) 
-41.528273

>  <Energy>  (221) 
52.519204

>  <fragmenstein_outcome>  (221) 
too moved

>  <alias>  (221) 
WEFYFGPLRBXMOK-UHFFFAOYSA-N-P308-P15-P308-601501

>  <HIPPO Pose ID>  (221) 
501737

>  <exports>  (221) 
['/opt/xchem-fragalysis-2/maxwin/openbind-hippo/a71ev2a/cycle_01/bulkdock/openbind_a71ev2a_c1_elab_chemspace.sdf', '/opt/xchem-fragalysis-2/maxwin/openbind-hippo/a71ev2a/cycle_01/syndirella/elabs/openbind_a71ev2a_c1_elab_chemspace_filtered.sdf']

>  <HIPPO Compound ID>  (221) 
292582

>  <gnina_score>  (221) 
5.299

$$$$
AWNWICCAHWESBQ-UHFFFAOYSA-N-P308-P15-P308-601501
     RDKit          3D

 20 21  0  0  0  0  0  0  0  0999 V2000
    9.1209    8.6410   23.2834 C   0  0  0  0  0  0  0  0  0  0  0  0
    8.1684    9.4385   23.9876 O   0  0  0  0  0  0  0  0  0  0  0  0
    8.7173   10.5627   24.4966 C   0  0  0  0  0  0  0  0  0  0  0  0
    9.9093   10.8109   24.5868 O   0  0  0  0  0  0  0  0  0  0  0  0
    7.6603   11.4801   24.9511 C   0  0  0  0  0  0  0  0  0  0  0  0
    6.6889   11.0495   25.8583 C   0  0  0  0  0  0  0  0  0  0  0  0
    5.8188   11.9963   26.3852 C   0  0  0  0  0  0  0  0  0  0  0  0
    4.6257   11.7215   27.2380 C   0  0  0  0  0  0  0  0  0  0  0  0
    4.5072   10.7190   28.3370 C   0  0  0  0  0  0  0  0  0  0  0  0
    4.7267   12.1632   28.6819 C   0  0  0  0  0  0  0  0  0  0  0  0
    5.9664   13.3101   26.1128 N   0  0  0  0  0  0  0  0  0  0  0  0
    6.8216   13.6722   25.1517 C   0  0  0  0  0  0  0  0  0  0  0  0
    7.6354   12.7897   24.4695 C   0  0  0  0  0  0  0  0  0  0  0  0
    8.1661   13.1491   23.2258 N   0  0  0  0  0  0  0  0  0  0  0  0
    7.2263   13.6078   22.2539 N   0  0  0  0  0  0  0  0  0  0  0  0
    9.5817   13.5508   23.1881 C   0  0  0  0  0  0  0  0  0  0  0  0
    9.7658   15.0534   22.9152 C   0  0  2  0  0  0  0  0  0  0  0  0
    9.8985   15.3375   21.4138 C   0  0  0  0  0  0  0  0  0  0  0  0
   10.9948   15.5755   23.6601 C   0  0  0  0  0  0  0  0  0  0  0  0
   12.1687   14.8474   23.3364 O   0  0  0  0  0  0  0  0  0  0  0  0
  1  2  1  0
  2  3  1  0
  3  4  2  0
  3  5  1  0
  5  6  2  0
  6  7  1  0
  7  8  1  0
  8  9  1  0
  9 10  1  0
  7 11  2  0
 11 12  1  0
 12 13  2  0
 13 14  1  0
 14 15  1  0
 14 16  1  0
 16 17  1  0
 17 18  1  6
 17 19  1  0
 19 20  1  0
 13  5  1  0
 10  8  1  0
M  END
>  <distance_score>  (222) 
1.692317

>  <smiles>  (222) 
COC(=O)c1cc(C2CC2)ncc1N(N)CC(C)CO

>  <fragmenstein_error>  (222) 


>  <fragmenstein_runtime>  (222) 
3.575913

>  <gnina_score_min>  (222) 
4.921

>  <orig_smiles>  (222) 
COC(=O)c1cc(C2CC2)ncc1N(N)CC(C)CO

>  <fragmenstein_mode>  (222) 
expansion

>  <rmsd(smina/fragmenstein)>  (222) 
1.495

>  <inspiration_score>  (222) 
None

>  <name>  (222) 
AWNWICCAHWESBQ-UHFFFAOYSA-N-P308-P15-P308-601501

>  <ref_pdb>  (222) 
A0528a

>  <ref_mols>  (222) 
A4331a,A0514a

>  <subsites>  (222) 
None

>  <tags>  (222) 
openbind_a71ev2a_c1_elabs_filtered,fragmenstein_placed,a71ev2a_c1_elab_bulkdock_input,openbind_a71ev2a_c1_elab_chemspace_filtered_scored

>  <inchikey>  (222) 
AWNWICCAHWESBQ-UHFFFAOYSA-N

>  <scratch_subdir>  (222) 
/opt/xchem-fragalysis-2/maxwin/BulkDock/SCRATCH/601501/AWNWICCAHWESBQ-UHFFFAOYSA-N-P308-P15-P308-601501

>  <smina_score_min>  (222) 
-5.999

>  <energy_score>  (222) 
-16.771187

>  <Energy>  (222) 
107.517735

>  <fragmenstein_outcome>  (222) 
too moved

>  <alias>  (222) 
AWNWICCAHWESBQ-UHFFFAOYSA-N-P308-P15-P308-601501

>  <HIPPO Pose ID>  (222) 
501739

>  <exports>  (222) 
['/opt/xchem-fragalysis-2/maxwin/openbind-hippo/a71ev2a/cycle_01/bulkdock/openbind_a71ev2a_c1_elab_chemspace.sdf', '/opt/xchem-fragalysis-2/maxwin/openbind-hippo/a71ev2a/cycle_01/syndirella/elabs/openbind_a71ev2a_c1_elab_chemspace_filtered.sdf']

>  <HIPPO Compound ID>  (222) 
292583

>  <gnina_score>  (222) 
4.949

$$$$
JLQMZGFYWQHARH-UHFFFAOYSA-N-P308-P15-P308-601501
     RDKit          3D

 20 22  0  0  0  0  0  0  0  0999 V2000
    9.3087    8.5807   23.7580 C   0  0  0  0  0  0  0  0  0  0  0  0
    8.5163    9.4709   24.5380 O   0  0  0  0  0  0  0  0  0  0  0  0
    8.5589   10.7331   24.0569 C   0  0  0  0  0  0  0  0  0  0  0  0
    9.1018   11.0931   23.0267 O   0  0  0  0  0  0  0  0  0  0  0  0
    7.8217   11.6300   24.9627 C   0  0  0  0  0  0  0  0  0  0  0  0
    6.6285   11.2075   25.5583 C   0  0  0  0  0  0  0  0  0  0  0  0
    5.9168   12.1218   26.3235 C   0  0  0  0  0  0  0  0  0  0  0  0
    4.5871   11.8518   26.9407 C   0  0  0  0  0  0  0  0  0  0  0  0
    4.3529   10.8098   27.9931 C   0  0  0  0  0  0  0  0  0  0  0  0
    4.4202   12.2516   28.3937 C   0  0  0  0  0  0  0  0  0  0  0  0
    6.3679   13.3777   26.5325 N   0  0  0  0  0  0  0  0  0  0  0  0
    7.5232   13.7460   25.9673 C   0  0  0  0  0  0  0  0  0  0  0  0
    8.3002   12.9253   25.1704 C   0  0  0  0  0  0  0  0  0  0  0  0
    9.5006   13.4013   24.6008 N   0  0  0  0  0  0  0  0  0  0  0  0
   10.4080   13.9411   25.5543 N   0  0  0  0  0  0  0  0  0  0  0  0
    9.1777   14.1965   23.3870 C   0  0  0  0  0  0  0  0  0  0  0  0
   10.4115   14.4378   22.5370 C   0  0  0  0  0  0  0  0  0  0  0  0
   10.2153   15.4011   21.3371 C   0  0  0  0  0  0  0  0  0  0  0  0
   11.6486   15.9034   21.6114 C   0  0  0  0  0  0  0  0  0  0  0  0
   11.4506   15.4599   23.0672 C   0  0  0  0  0  0  0  0  0  0  0  0
  1  2  1  0
  2  3  1  0
  3  4  2  0
  3  5  1  0
  5  6  2  0
  6  7  1  0
  7  8  1  0
  8  9  1  0
  9 10  1  0
  7 11  2  0
 11 12  1  0
 12 13  2  0
 13 14  1  0
 14 15  1  0
 14 16  1  0
 16 17  1  0
 17 18  1  0
 18 19  1  0
 19 20  1  0
 13  5  1  0
 20 17  1  0
 10  8  1  0
M  END
>  <distance_score>  (223) 
1.510698

>  <smiles>  (223) 
COC(=O)c1cc(C2CC2)ncc1N(N)CC1CCC1

>  <fragmenstein_error>  (223) 


>  <fragmenstein_runtime>  (223) 
4.226535

>  <gnina_score_min>  (223) 
4.872

>  <orig_smiles>  (223) 
COC(=O)c1cc(C2CC2)ncc1N(N)CC1CCC1

>  <fragmenstein_mode>  (223) 
expansion

>  <rmsd(smina/fragmenstein)>  (223) 
1.516

>  <inspiration_score>  (223) 
None

>  <name>  (223) 
JLQMZGFYWQHARH-UHFFFAOYSA-N-P308-P15-P308-601501

>  <ref_pdb>  (223) 
A0528a

>  <ref_mols>  (223) 
A4331a,A0514a

>  <subsites>  (223) 
None

>  <tags>  (223) 
openbind_a71ev2a_c1_elabs_filtered,fragmenstein_placed,a71ev2a_c1_elab_bulkdock_input,openbind_a71ev2a_c1_elab_chemspace_filtered_scored

>  <inchikey>  (223) 
JLQMZGFYWQHARH-UHFFFAOYSA-N

>  <scratch_subdir>  (223) 
/opt/xchem-fragalysis-2/maxwin/BulkDock/SCRATCH/601501/JLQMZGFYWQHARH-UHFFFAOYSA-N-P308-P15-P308-601501

>  <smina_score_min>  (223) 
-6.14

>  <energy_score>  (223) 
-29.688059

>  <Energy>  (223) 
102.696669

>  <fragmenstein_outcome>  (223) 
too moved

>  <alias>  (223) 
JLQMZGFYWQHARH-UHFFFAOYSA-N-P308-P15-P308-601501

>  <HIPPO Pose ID>  (223) 
501747

>  <exports>  (223) 
['/opt/xchem-fragalysis-2/maxwin/openbind-hippo/a71ev2a/cycle_01/bulkdock/openbind_a71ev2a_c1_elab_chemspace.sdf', '/opt/xchem-fragalysis-2/maxwin/openbind-hippo/a71ev2a/cycle_01/syndirella/elabs/openbind_a71ev2a_c1_elab_chemspace_filtered.sdf']

>  <HIPPO Compound ID>  (223) 
292587

>  <gnina_score>  (223) 
5.326

$$$$
YGUUVNNFLLYSMD-UHFFFAOYSA-N-P308-P15-P308-601501
     RDKit          3D

 20 22  0  0  0  0  0  0  0  0999 V2000
   11.3339   14.9708   20.8754 C   0  0  0  0  0  0  0  0  0  0  0  0
   11.4516   14.7657   22.3841 C   0  0  0  0  0  0  0  0  0  0  0  0
   10.1575   14.9461   23.2250 C   0  0  1  0  0  0  0  0  0  0  0  0
    9.3262   16.1085   22.7289 C   0  0  0  0  0  0  0  0  0  0  0  0
    8.3978   15.3470   21.8550 C   0  0  0  0  0  0  0  0  0  0  0  0
    8.3389   14.0725   22.0679 N   0  0  0  0  0  0  0  0  0  0  0  0
    9.2499   13.7631   23.0720 N   0  0  0  0  0  0  0  0  0  0  0  0
    8.5352   13.3172   24.2081 C   0  0  0  0  0  0  0  0  0  0  0  0
    7.5459   14.0847   24.8098 C   0  0  0  0  0  0  0  0  0  0  0  0
    6.7178   13.6724   25.7871 N   0  0  0  0  0  0  0  0  0  0  0  0
    6.7431   12.3785   26.1528 C   0  0  0  0  0  0  0  0  0  0  0  0
    5.7792   12.0295   27.2417 C   0  0  0  0  0  0  0  0  0  0  0  0
    4.8723   10.8437   27.1757 C   0  0  0  0  0  0  0  0  0  0  0  0
    4.3131   12.2220   26.9537 C   0  0  0  0  0  0  0  0  0  0  0  0
    7.6826   11.5111   25.6126 C   0  0  0  0  0  0  0  0  0  0  0  0
    8.6211   12.0161   24.6961 C   0  0  0  0  0  0  0  0  0  0  0  0
    9.6963   11.1078   24.2892 C   0  0  0  0  0  0  0  0  0  0  0  0
    9.4201   10.0542   23.7326 O   0  0  0  0  0  0  0  0  0  0  0  0
   10.9708   11.4350   24.6410 O   0  0  0  0  0  0  0  0  0  0  0  0
   11.3609   12.5658   25.4392 C   0  0  0  0  0  0  0  0  0  0  0  0
  1  2  1  0
  3  2  1  6
  3  4  1  0
  4  5  1  0
  5  6  2  0
  6  7  1  0
  7  8  1  0
  8  9  2  0
  9 10  1  0
 10 11  2  0
 11 12  1  0
 12 13  1  0
 13 14  1  0
 11 15  1  0
 15 16  2  0
 16 17  1  0
 17 18  2  0
 17 19  1  0
 19 20  1  0
  7  3  1  0
 16  8  1  0
 14 12  1  0
M  END
>  <distance_score>  (224) 
1.72362

>  <smiles>  (224) 
CCC1CC=NN1c1cnc(C2CC2)cc1C(=O)OC

>  <fragmenstein_error>  (224) 


>  <fragmenstein_runtime>  (224) 
5.214368

>  <gnina_score_min>  (224) 
5.03

>  <orig_smiles>  (224) 
CCC1CC=NN1c1cnc(C2CC2)cc1C(=O)OC

>  <fragmenstein_mode>  (224) 
expansion

>  <rmsd(smina/fragmenstein)>  (224) 
1.042

>  <inspiration_score>  (224) 
None

>  <name>  (224) 
YGUUVNNFLLYSMD-UHFFFAOYSA-N-P308-P15-P308-601501

>  <ref_pdb>  (224) 
A0528a

>  <ref_mols>  (224) 
A4331a,A0514a

>  <subsites>  (224) 
None

>  <tags>  (224) 
openbind_a71ev2a_c1_elabs_filtered,fragmenstein_placed,a71ev2a_c1_elab_bulkdock_input,openbind_a71ev2a_c1_elab_chemspace_filtered_scored

>  <inchikey>  (224) 
YGUUVNNFLLYSMD-UHFFFAOYSA-N

>  <scratch_subdir>  (224) 
/opt/xchem-fragalysis-2/maxwin/BulkDock/SCRATCH/601501/YGUUVNNFLLYSMD-UHFFFAOYSA-N-P308-P15-P308-601501

>  <smina_score_min>  (224) 
-5.351

>  <energy_score>  (224) 
-21.046227

>  <Energy>  (224) 
91.499787

>  <fragmenstein_outcome>  (224) 
too moved

>  <alias>  (224) 
YGUUVNNFLLYSMD-UHFFFAOYSA-N-P308-P15-P308-601501

>  <HIPPO Pose ID>  (224) 
501753

>  <exports>  (224) 
['/opt/xchem-fragalysis-2/maxwin/openbind-hippo/a71ev2a/cycle_01/bulkdock/openbind_a71ev2a_c1_elab_chemspace.sdf', '/opt/xchem-fragalysis-2/maxwin/openbind-hippo/a71ev2a/cycle_01/syndirella/elabs/openbind_a71ev2a_c1_elab_chemspace_filtered.sdf']

>  <HIPPO Compound ID>  (224) 
292590

>  <gnina_score>  (224) 
5.212

$$$$
CYEULEJAIOSQEO-UHFFFAOYSA-N-P308-P15-P308-601501
     RDKit          3D

 20 21  0  0  0  0  0  0  0  0999 V2000
    9.3801    8.6156   23.0593 C   0  0  0  0  0  0  0  0  0  0  0  0
    8.5604    9.5570   23.7419 O   0  0  0  0  0  0  0  0  0  0  0  0
    9.2612   10.4428   24.4912 C   0  0  0  0  0  0  0  0  0  0  0  0
   10.4670   10.4430   24.6704 O   0  0  0  0  0  0  0  0  0  0  0  0
    8.2838   11.4006   25.0536 C   0  0  0  0  0  0  0  0  0  0  0  0
    7.1180   10.8985   25.6494 C   0  0  0  0  0  0  0  0  0  0  0  0
    6.2424   11.7838   26.2623 C   0  0  0  0  0  0  0  0  0  0  0  0
    5.0627   11.3291   27.0779 C   0  0  0  0  0  0  0  0  0  0  0  0
    3.8750   12.2472   27.2738 C   0  0  0  0  0  0  0  0  0  0  0  0
    4.8266   12.0266   28.4061 C   0  0  0  0  0  0  0  0  0  0  0  0
    6.4854   13.1143   26.2496 N   0  0  0  0  0  0  0  0  0  0  0  0
    7.5928   13.5718   25.6465 C   0  0  0  0  0  0  0  0  0  0  0  0
    8.5312   12.7754   25.0151 C   0  0  0  0  0  0  0  0  0  0  0  0
    9.6366   13.3281   24.3675 N   0  0  0  0  0  0  0  0  0  0  0  0
   10.7321   13.5769   25.2503 N   0  0  0  0  0  0  0  0  0  0  0  0
    9.4130   14.2980   23.2341 C   0  0  2  0  0  0  0  0  0  0  0  0
    8.0386   14.1381   22.5622 C   0  0  0  0  0  0  0  0  0  0  0  0
   10.5612   14.0996   22.2228 C   0  0  0  0  0  0  0  0  0  0  0  0
   11.7392   13.9316   22.5155 O   0  0  0  0  0  0  0  0  0  0  0  0
   10.1577   14.1074   20.9382 O   0  0  0  0  0  0  0  0  0  0  0  0
  1  2  1  0
  2  3  1  0
  3  4  2  0
  3  5  1  0
  5  6  2  0
  6  7  1  0
  7  8  1  0
  8  9  1  0
  9 10  1  0
  7 11  2  0
 11 12  1  0
 12 13  2  0
 13 14  1  0
 14 15  1  0
 14 16  1  0
 16 17  1  6
 16 18  1  0
 18 19  2  0
 18 20  1  0
 13  5  1  0
 10  8  1  0
M  END
>  <distance_score>  (225) 
1.427565

>  <smiles>  (225) 
COC(=O)c1cc(C2CC2)ncc1N(N)C(C)C(=O)O

>  <fragmenstein_error>  (225) 


>  <fragmenstein_runtime>  (225) 
3.514163

>  <gnina_score_min>  (225) 
4.79

>  <orig_smiles>  (225) 
COC(=O)c1cc(C2CC2)ncc1N(N)C(C)C(=O)O

>  <fragmenstein_mode>  (225) 
expansion

>  <rmsd(smina/fragmenstein)>  (225) 
1.418

>  <inspiration_score>  (225) 
None

>  <name>  (225) 
CYEULEJAIOSQEO-UHFFFAOYSA-N-P308-P15-P308-601501

>  <ref_pdb>  (225) 
A0528a

>  <ref_mols>  (225) 
A4331a,A0514a

>  <subsites>  (225) 
None

>  <tags>  (225) 
openbind_a71ev2a_c1_elabs_filtered,fragmenstein_placed,a71ev2a_c1_elab_bulkdock_input,openbind_a71ev2a_c1_elab_chemspace_filtered_scored

>  <inchikey>  (225) 
CYEULEJAIOSQEO-UHFFFAOYSA-N

>  <scratch_subdir>  (225) 
/opt/xchem-fragalysis-2/maxwin/BulkDock/SCRATCH/601501/CYEULEJAIOSQEO-UHFFFAOYSA-N-P308-P15-P308-601501

>  <smina_score_min>  (225) 
-5.85

>  <energy_score>  (225) 
-49.135674

>  <Energy>  (225) 
131.756956

>  <fragmenstein_outcome>  (225) 
too moved

>  <alias>  (225) 
CYEULEJAIOSQEO-UHFFFAOYSA-N-P308-P15-P308-601501

>  <HIPPO Pose ID>  (225) 
501765

>  <exports>  (225) 
['/opt/xchem-fragalysis-2/maxwin/openbind-hippo/a71ev2a/cycle_01/bulkdock/openbind_a71ev2a_c1_elab_chemspace.sdf', '/opt/xchem-fragalysis-2/maxwin/openbind-hippo/a71ev2a/cycle_01/syndirella/elabs/openbind_a71ev2a_c1_elab_chemspace_filtered.sdf']

>  <HIPPO Compound ID>  (225) 
292596

>  <gnina_score>  (225) 
5.077

$$$$
RHLQHEYSSLRSNB-UHFFFAOYSA-N-P15-P15-P308-601501
     RDKit          3D

 20 21  0  0  0  0  0  0  0  0999 V2000
    9.0665    8.2843   22.8283 C   0  0  0  0  0  0  0  0  0  0  0  0
    8.2407    9.0758   23.6821 O   0  0  0  0  0  0  0  0  0  0  0  0
    8.9139   10.1666   24.0985 C   0  0  0  0  0  0  0  0  0  0  0  0
   10.0802   10.3826   23.8189 O   0  0  0  0  0  0  0  0  0  0  0  0
    8.0492   11.0751   24.8984 C   0  0  0  0  0  0  0  0  0  0  0  0
    6.9148   10.5812   25.5540 C   0  0  0  0  0  0  0  0  0  0  0  0
    6.2069   11.4271   26.4001 C   0  0  0  0  0  0  0  0  0  0  0  0
    5.0967   10.9557   27.2973 C   0  0  0  0  0  0  0  0  0  0  0  0
    3.9500   11.8908   27.6254 C   0  0  0  0  0  0  0  0  0  0  0  0
    4.9801   11.5966   28.6689 C   0  0  0  0  0  0  0  0  0  0  0  0
    6.5589   12.7232   26.5412 N   0  0  0  0  0  0  0  0  0  0  0  0
    7.6289   13.1862   25.8855 C   0  0  0  0  0  0  0  0  0  0  0  0
    8.4458   12.4122   25.0819 C   0  0  0  0  0  0  0  0  0  0  0  0
    9.6174   12.9466   24.5140 N   0  0  0  0  0  0  0  0  0  0  0  0
   10.4054   13.8617   25.2395 N   0  0  0  0  0  0  0  0  0  0  0  0
    9.5590   13.0139   23.0348 C   0  0  0  0  0  0  0  0  0  0  0  0
    9.4584   14.4379   22.4946 C   0  0  0  0  0  0  0  0  0  0  0  0
    9.1801   14.4943   21.0107 C   0  0  0  0  0  0  0  0  0  0  0  0
   10.8860   15.0258   22.5323 C   0  0  0  0  0  0  0  0  0  0  0  0
    8.1815   15.0640   23.1017 C   0  0  0  0  0  0  0  0  0  0  0  0
  1  2  1  0
  2  3  1  0
  3  4  2  0
  3  5  1  0
  5  6  2  0
  6  7  1  0
  7  8  1  0
  8  9  1  0
  9 10  1  0
  7 11  2  0
 11 12  1  0
 12 13  2  0
 13 14  1  0
 14 15  1  0
 14 16  1  0
 16 17  1  0
 17 18  1  0
 17 19  1  0
 17 20  1  0
 13  5  1  0
 10  8  1  0
M  END
>  <distance_score>  (226) 
1.482882

>  <smiles>  (226) 
COC(=O)c1cc(C2CC2)ncc1N(N)CC(C)(C)C

>  <fragmenstein_error>  (226) 


>  <fragmenstein_runtime>  (226) 
6.088527

>  <gnina_score_min>  (226) 
5.065

>  <orig_smiles>  (226) 
COC(=O)c1cc(C2CC2)ncc1N(N)CC(C)(C)C

>  <fragmenstein_mode>  (226) 
expansion

>  <rmsd(smina/fragmenstein)>  (226) 
1.5

>  <inspiration_score>  (226) 
None

>  <name>  (226) 
RHLQHEYSSLRSNB-UHFFFAOYSA-N-P15-P15-P308-601501

>  <ref_pdb>  (226) 
A0528a

>  <ref_mols>  (226) 
A4331a,A0514a

>  <subsites>  (226) 
None

>  <tags>  (226) 
openbind_a71ev2a_c1_elabs_filtered,fragmenstein_placed,a71ev2a_c1_elab_bulkdock_input,openbind_a71ev2a_c1_elab_chemspace_filtered_scored

>  <inchikey>  (226) 
RHLQHEYSSLRSNB-UHFFFAOYSA-N

>  <scratch_subdir>  (226) 
/opt/xchem-fragalysis-2/maxwin/BulkDock/SCRATCH/601501/RHLQHEYSSLRSNB-UHFFFAOYSA-N-P15-P15-P308-601501

>  <smina_score_min>  (226) 
-5.566

>  <energy_score>  (226) 
-24.276793

>  <Energy>  (226) 
125.420884

>  <fragmenstein_outcome>  (226) 
too moved

>  <alias>  (226) 
RHLQHEYSSLRSNB-UHFFFAOYSA-N-P15-P15-P308-601501

>  <HIPPO Pose ID>  (226) 
501770

>  <exports>  (226) 
['/opt/xchem-fragalysis-2/maxwin/openbind-hippo/a71ev2a/cycle_01/bulkdock/openbind_a71ev2a_c1_elab_chemspace.sdf', '/opt/xchem-fragalysis-2/maxwin/openbind-hippo/a71ev2a/cycle_01/syndirella/elabs/openbind_a71ev2a_c1_elab_chemspace_filtered.sdf']

>  <HIPPO Compound ID>  (226) 
292599

>  <gnina_score>  (226) 
5.016

$$$$
DJESJVRIEJCZAC-UHFFFAOYSA-N-P308-P15-P308-601501
     RDKit          3D

 20 22  0  0  0  0  0  0  0  0999 V2000
    9.6228    8.4717   23.4786 C   0  0  0  0  0  0  0  0  0  0  0  0
    8.8357    9.3423   24.2825 O   0  0  0  0  0  0  0  0  0  0  0  0
    8.8699   10.6188   23.8373 C   0  0  0  0  0  0  0  0  0  0  0  0
    9.4427   11.0028   22.8313 O   0  0  0  0  0  0  0  0  0  0  0  0
    8.1065   11.4970   24.7456 C   0  0  0  0  0  0  0  0  0  0  0  0
    7.0299   10.9662   25.4717 C   0  0  0  0  0  0  0  0  0  0  0  0
    6.2584   11.8151   26.2532 C   0  0  0  0  0  0  0  0  0  0  0  0
    5.0766   11.3358   27.0501 C   0  0  0  0  0  0  0  0  0  0  0  0
    4.8452   11.8861   28.4405 C   0  0  0  0  0  0  0  0  0  0  0  0
    3.9463   12.3115   27.3231 C   0  0  0  0  0  0  0  0  0  0  0  0
    6.5511   13.1333   26.3411 N   0  0  0  0  0  0  0  0  0  0  0  0
    7.5758   13.6218   25.6238 C   0  0  0  0  0  0  0  0  0  0  0  0
    8.3904   12.8664   24.8001 C   0  0  0  0  0  0  0  0  0  0  0  0
    9.3955   13.5305   24.0563 N   0  0  0  0  0  0  0  0  0  0  0  0
   10.7133   13.0550   24.2784 N   0  0  0  0  0  0  0  0  0  0  0  0
    9.0908   14.3613   22.8699 C   0  0  0  0  0  0  0  0  0  0  0  0
    7.6702   14.2060   22.3513 C   0  0  0  0  0  0  0  0  0  0  0  0
    9.5332   15.8189   23.0828 C   0  0  0  0  0  0  0  0  0  0  0  0
   10.7074   15.6315   22.2551 O   0  0  0  0  0  0  0  0  0  0  0  0
   10.1686   14.3822   21.7524 C   0  0  0  0  0  0  0  0  0  0  0  0
  1  2  1  0
  2  3  1  0
  3  4  2  0
  3  5  1  0
  5  6  2  0
  6  7  1  0
  7  8  1  0
  8  9  1  0
  9 10  1  0
  7 11  2  0
 11 12  1  0
 12 13  2  0
 13 14  1  0
 14 15  1  0
 14 16  1  0
 16 17  1  0
 16 18  1  0
 18 19  1  0
 19 20  1  0
 13  5  1  0
 20 16  1  0
 10  8  1  0
M  END
>  <distance_score>  (227) 
1.563726

>  <smiles>  (227) 
COC(=O)c1cc(C2CC2)ncc1N(N)C1(C)COC1

>  <fragmenstein_error>  (227) 


>  <fragmenstein_runtime>  (227) 
4.420597

>  <gnina_score_min>  (227) 
4.824

>  <orig_smiles>  (227) 
COC(=O)c1cc(C2CC2)ncc1N(N)C1(C)COC1

>  <fragmenstein_mode>  (227) 
expansion

>  <rmsd(smina/fragmenstein)>  (227) 
1.97

>  <inspiration_score>  (227) 
None

>  <name>  (227) 
DJESJVRIEJCZAC-UHFFFAOYSA-N-P308-P15-P308-601501

>  <ref_pdb>  (227) 
A0528a

>  <ref_mols>  (227) 
A4331a,A0514a

>  <subsites>  (227) 
None

>  <tags>  (227) 
openbind_a71ev2a_c1_elabs_filtered,fragmenstein_placed,a71ev2a_c1_elab_bulkdock_input,openbind_a71ev2a_c1_elab_chemspace_filtered_scored

>  <inchikey>  (227) 
DJESJVRIEJCZAC-UHFFFAOYSA-N

>  <scratch_subdir>  (227) 
/opt/xchem-fragalysis-2/maxwin/BulkDock/SCRATCH/601501/DJESJVRIEJCZAC-UHFFFAOYSA-N-P308-P15-P308-601501

>  <smina_score_min>  (227) 
-6.236

>  <energy_score>  (227) 
-43.064804

>  <Energy>  (227) 
113.776328

>  <fragmenstein_outcome>  (227) 
too moved

>  <alias>  (227) 
DJESJVRIEJCZAC-UHFFFAOYSA-N-P308-P15-P308-601501

>  <HIPPO Pose ID>  (227) 
501775

>  <exports>  (227) 
['/opt/xchem-fragalysis-2/maxwin/openbind-hippo/a71ev2a/cycle_01/bulkdock/openbind_a71ev2a_c1_elab_chemspace.sdf', '/opt/xchem-fragalysis-2/maxwin/openbind-hippo/a71ev2a/cycle_01/syndirella/elabs/openbind_a71ev2a_c1_elab_chemspace_filtered.sdf']

>  <HIPPO Compound ID>  (227) 
292601

>  <gnina_score>  (227) 
5.181

$$$$
ZRILEGQRLALMHU-UHFFFAOYSA-N-P308-P15-P308-601501
     RDKit          3D

 20 22  0  0  0  0  0  0  0  0999 V2000
    9.1904    8.5660   23.1336 C   0  0  0  0  0  0  0  0  0  0  0  0
    8.4089    9.5169   23.8530 O   0  0  0  0  0  0  0  0  0  0  0  0
    9.1599   10.4089   24.5418 C   0  0  0  0  0  0  0  0  0  0  0  0
   10.3769   10.3789   24.6472 O   0  0  0  0  0  0  0  0  0  0  0  0
    8.2643   11.4541   25.0963 C   0  0  0  0  0  0  0  0  0  0  0  0
    7.0159   11.0778   25.6259 C   0  0  0  0  0  0  0  0  0  0  0  0
    6.1833   12.0627   26.1458 C   0  0  0  0  0  0  0  0  0  0  0  0
    4.8179   11.8384   26.7048 C   0  0  0  0  0  0  0  0  0  0  0  0
    4.4867   10.9149   27.8387 C   0  0  0  0  0  0  0  0  0  0  0  0
    4.5746   12.3860   28.1008 C   0  0  0  0  0  0  0  0  0  0  0  0
    6.5560   13.3580   26.1576 N   0  0  0  0  0  0  0  0  0  0  0  0
    7.7333   13.6984   25.6253 C   0  0  0  0  0  0  0  0  0  0  0  0
    8.6342   12.8055   25.0693 C   0  0  0  0  0  0  0  0  0  0  0  0
    9.7608   13.3672   24.4465 N   0  0  0  0  0  0  0  0  0  0  0  0
   11.0261   12.9529   24.8952 N   0  0  0  0  0  0  0  0  0  0  0  0
    9.5269   13.6623   23.0171 C   0  0  0  0  0  0  0  0  0  0  0  0
    9.6684   15.1543   22.7692 C   0  0  0  0  0  0  0  0  0  0  0  0
   11.0997   15.6421   22.5215 C   0  0  0  0  0  0  0  0  0  0  0  0
   10.8857   15.5891   21.0843 O   0  0  0  0  0  0  0  0  0  0  0  0
    9.4536   15.5645   21.3088 C   0  0  0  0  0  0  0  0  0  0  0  0
  1  2  1  0
  2  3  1  0
  3  4  2  0
  3  5  1  0
  5  6  2  0
  6  7  1  0
  7  8  1  0
  8  9  1  0
  9 10  1  0
  7 11  2  0
 11 12  1  0
 12 13  2  0
 13 14  1  0
 14 15  1  0
 14 16  1  0
 16 17  1  0
 17 18  1  0
 18 19  1  0
 19 20  1  0
 13  5  1  0
 20 17  1  0
 10  8  1  0
M  END
>  <distance_score>  (228) 
1.437426

>  <smiles>  (228) 
COC(=O)c1cc(C2CC2)ncc1N(N)CC1COC1

>  <fragmenstein_error>  (228) 


>  <fragmenstein_runtime>  (228) 
4.288876

>  <gnina_score_min>  (228) 
5.001

>  <orig_smiles>  (228) 
COC(=O)c1cc(C2CC2)ncc1N(N)CC1COC1

>  <fragmenstein_mode>  (228) 
expansion

>  <rmsd(smina/fragmenstein)>  (228) 
1.378

>  <inspiration_score>  (228) 
None

>  <name>  (228) 
ZRILEGQRLALMHU-UHFFFAOYSA-N-P308-P15-P308-601501

>  <ref_pdb>  (228) 
A0528a

>  <ref_mols>  (228) 
A4331a,A0514a

>  <subsites>  (228) 
None

>  <tags>  (228) 
openbind_a71ev2a_c1_elabs_filtered,fragmenstein_placed,a71ev2a_c1_elab_bulkdock_input,openbind_a71ev2a_c1_elab_chemspace_filtered_scored

>  <inchikey>  (228) 
ZRILEGQRLALMHU-UHFFFAOYSA-N

>  <scratch_subdir>  (228) 
/opt/xchem-fragalysis-2/maxwin/BulkDock/SCRATCH/601501/ZRILEGQRLALMHU-UHFFFAOYSA-N-P308-P15-P308-601501

>  <smina_score_min>  (228) 
-5.739

>  <energy_score>  (228) 
-39.499496

>  <Energy>  (228) 
88.50889

>  <fragmenstein_outcome>  (228) 
too moved

>  <alias>  (228) 
ZRILEGQRLALMHU-UHFFFAOYSA-N-P308-P15-P308-601501

>  <HIPPO Pose ID>  (228) 
501781

>  <exports>  (228) 
['/opt/xchem-fragalysis-2/maxwin/openbind-hippo/a71ev2a/cycle_01/bulkdock/openbind_a71ev2a_c1_elab_chemspace.sdf', '/opt/xchem-fragalysis-2/maxwin/openbind-hippo/a71ev2a/cycle_01/syndirella/elabs/openbind_a71ev2a_c1_elab_chemspace_filtered.sdf']

>  <HIPPO Compound ID>  (228) 
292604

>  <gnina_score>  (228) 
5.246

$$$$
XCYAVCYOOLTXHF-UHFFFAOYSA-N-P308-P15-P308-601501
     RDKit          3D

 20 22  0  0  0  0  0  0  0  0999 V2000
    9.2486    8.6579   23.1974 C   0  0  0  0  0  0  0  0  0  0  0  0
    8.4198    9.5722   23.9151 O   0  0  0  0  0  0  0  0  0  0  0  0
    9.1202   10.5917   24.4701 C   0  0  0  0  0  0  0  0  0  0  0  0
   10.3335   10.7117   24.4561 O   0  0  0  0  0  0  0  0  0  0  0  0
    8.1742   11.5675   25.0655 C   0  0  0  0  0  0  0  0  0  0  0  0
    6.9375   11.1451   25.5816 C   0  0  0  0  0  0  0  0  0  0  0  0
    6.1164   12.0857   26.1938 C   0  0  0  0  0  0  0  0  0  0  0  0
    4.7585   11.8165   26.7492 C   0  0  0  0  0  0  0  0  0  0  0  0
    4.4588   10.8390   27.8464 C   0  0  0  0  0  0  0  0  0  0  0  0
    4.5105   12.2997   28.1680 C   0  0  0  0  0  0  0  0  0  0  0  0
    6.4942   13.3743   26.3208 N   0  0  0  0  0  0  0  0  0  0  0  0
    7.6684   13.7562   25.8060 C   0  0  0  0  0  0  0  0  0  0  0  0
    8.5470   12.9149   25.1467 C   0  0  0  0  0  0  0  0  0  0  0  0
    9.7405   13.4142   24.5746 N   0  0  0  0  0  0  0  0  0  0  0  0
   10.5768   14.1006   25.5053 N   0  0  0  0  0  0  0  0  0  0  0  0
    9.6584   14.1322   23.4031 C   0  0  0  0  0  0  0  0  0  0  0  0
   10.1819   13.7291   22.1944 C   0  0  0  0  0  0  0  0  0  0  0  0
   10.0814   14.7164   21.1707 C   0  0  0  0  0  0  0  0  0  0  0  0
    9.4071   15.8297   21.6060 C   0  0  0  0  0  0  0  0  0  0  0  0
    8.9354   15.6854   23.2375 S   0  0  0  0  0  0  0  0  0  0  0  0
  1  2  1  0
  2  3  1  0
  3  4  2  0
  3  5  1  0
  5  6  2  0
  6  7  1  0
  7  8  1  0
  8  9  1  0
  9 10  1  0
  7 11  2  0
 11 12  1  0
 12 13  2  0
 13 14  1  0
 14 15  1  0
 14 16  1  0
 16 17  2  0
 17 18  1  0
 18 19  2  0
 19 20  1  0
 13  5  1  0
 20 16  1  0
 10  8  1  0
M  END
>  <distance_score>  (229) 
1.550893

>  <smiles>  (229) 
COC(=O)c1cc(C2CC2)ncc1N(N)c1cccs1

>  <fragmenstein_error>  (229) 


>  <fragmenstein_runtime>  (229) 
2.595665

>  <gnina_score_min>  (229) 
5.121

>  <orig_smiles>  (229) 
COC(=O)c1cc(C2CC2)ncc1N(N)c1cccs1

>  <fragmenstein_mode>  (229) 
expansion

>  <rmsd(smina/fragmenstein)>  (229) 
1.398

>  <inspiration_score>  (229) 
None

>  <name>  (229) 
XCYAVCYOOLTXHF-UHFFFAOYSA-N-P308-P15-P308-601501

>  <ref_pdb>  (229) 
A0528a

>  <ref_mols>  (229) 
A4331a,A0514a

>  <subsites>  (229) 
None

>  <tags>  (229) 
openbind_a71ev2a_c1_elabs_filtered,fragmenstein_placed,a71ev2a_c1_elab_bulkdock_input,openbind_a71ev2a_c1_elab_chemspace_filtered_scored

>  <inchikey>  (229) 
XCYAVCYOOLTXHF-UHFFFAOYSA-N

>  <scratch_subdir>  (229) 
/opt/xchem-fragalysis-2/maxwin/BulkDock/SCRATCH/601501/XCYAVCYOOLTXHF-UHFFFAOYSA-N-P308-P15-P308-601501

>  <smina_score_min>  (229) 
-5.544

>  <energy_score>  (229) 
-24.3571

>  <Energy>  (229) 
79.044733

>  <fragmenstein_outcome>  (229) 
too moved

>  <alias>  (229) 
XCYAVCYOOLTXHF-UHFFFAOYSA-N-P308-P15-P308-601501

>  <HIPPO Pose ID>  (229) 
501783

>  <exports>  (229) 
['/opt/xchem-fragalysis-2/maxwin/openbind-hippo/a71ev2a/cycle_01/bulkdock/openbind_a71ev2a_c1_elab_chemspace.sdf', '/opt/xchem-fragalysis-2/maxwin/openbind-hippo/a71ev2a/cycle_01/syndirella/elabs/openbind_a71ev2a_c1_elab_chemspace_filtered.sdf']

>  <HIPPO Compound ID>  (229) 
292605

>  <gnina_score>  (229) 
5.463

$$$$
GJLMXBJRXGJLFX-UHFFFAOYSA-N-P308-P15-P308-601501
     RDKit          3D

 20 21  0  0  0  0  0  0  0  0999 V2000
   10.0209   15.1226   21.1141 C   0  0  0  0  0  0  0  0  0  0  0  0
   10.1678   14.1670   22.2945 C   0  0  0  0  0  0  0  0  0  0  0  0
    9.0491   14.2116   23.3750 C   0  0  0  0  0  0  0  0  0  0  0  0
    7.6717   14.1560   22.6757 C   0  0  0  0  0  0  0  0  0  0  0  0
    9.1921   15.5428   24.1429 C   0  0  0  0  0  0  0  0  0  0  0  0
    9.2329   12.9870   24.2714 N   0  0  0  0  0  0  0  0  0  0  0  0
   10.4923   12.7971   24.9192 N   0  0  0  0  0  0  0  0  0  0  0  0
    8.1423   12.5892   25.0658 C   0  0  0  0  0  0  0  0  0  0  0  0
    7.5241   13.5026   25.9085 C   0  0  0  0  0  0  0  0  0  0  0  0
    6.3832   13.3031   26.5836 N   0  0  0  0  0  0  0  0  0  0  0  0
    5.7855   12.1076   26.4799 C   0  0  0  0  0  0  0  0  0  0  0  0
    4.4573   11.9958   27.1440 C   0  0  0  0  0  0  0  0  0  0  0  0
    4.2134   11.0880   28.3130 C   0  0  0  0  0  0  0  0  0  0  0  0
    4.3296   12.5658   28.5403 C   0  0  0  0  0  0  0  0  0  0  0  0
    6.3894   11.0723   25.7932 C   0  0  0  0  0  0  0  0  0  0  0  0
    7.5909   11.3002   25.0977 C   0  0  0  0  0  0  0  0  0  0  0  0
    8.1557   10.0738   24.4891 C   0  0  0  0  0  0  0  0  0  0  0  0
    7.7367    8.9707   24.8203 O   0  0  0  0  0  0  0  0  0  0  0  0
    9.1039   10.2980   23.5595 O   0  0  0  0  0  0  0  0  0  0  0  0
    9.6184    9.0993   22.9754 C   0  0  0  0  0  0  0  0  0  0  0  0
  1  2  1  0
  2  3  1  0
  3  4  1  0
  3  5  1  0
  3  6  1  0
  6  7  1  0
  6  8  1  0
  8  9  2  0
  9 10  1  0
 10 11  2  0
 11 12  1  0
 12 13  1  0
 13 14  1  0
 11 15  1  0
 15 16  2  0
 16 17  1  0
 17 18  2  0
 17 19  1  0
 19 20  1  0
 16  8  1  0
 14 12  1  0
M  END
>  <distance_score>  (230) 
1.879283

>  <smiles>  (230) 
CCC(C)(C)N(N)c1cnc(C2CC2)cc1C(=O)OC

>  <fragmenstein_error>  (230) 


>  <fragmenstein_runtime>  (230) 
7.798841

>  <gnina_score_min>  (230) 
5.187

>  <orig_smiles>  (230) 
CCC(C)(C)N(N)c1cnc(C2CC2)cc1C(=O)OC

>  <fragmenstein_mode>  (230) 
expansion

>  <rmsd(smina/fragmenstein)>  (230) 
1.433

>  <inspiration_score>  (230) 
None

>  <name>  (230) 
GJLMXBJRXGJLFX-UHFFFAOYSA-N-P308-P15-P308-601501

>  <ref_pdb>  (230) 
A0528a

>  <ref_mols>  (230) 
A4331a,A0514a

>  <subsites>  (230) 
None

>  <tags>  (230) 
openbind_a71ev2a_c1_elabs_filtered,fragmenstein_placed,a71ev2a_c1_elab_bulkdock_input,openbind_a71ev2a_c1_elab_chemspace_filtered_scored

>  <inchikey>  (230) 
GJLMXBJRXGJLFX-UHFFFAOYSA-N

>  <scratch_subdir>  (230) 
/opt/xchem-fragalysis-2/maxwin/BulkDock/SCRATCH/601501/GJLMXBJRXGJLFX-UHFFFAOYSA-N-P308-P15-P308-601501

>  <smina_score_min>  (230) 
-5.269

>  <energy_score>  (230) 
-44.144939

>  <Energy>  (230) 
111.157657

>  <fragmenstein_outcome>  (230) 
too moved

>  <alias>  (230) 
GJLMXBJRXGJLFX-UHFFFAOYSA-N-P308-P15-P308-601501

>  <HIPPO Pose ID>  (230) 
501785

>  <exports>  (230) 
['/opt/xchem-fragalysis-2/maxwin/openbind-hippo/a71ev2a/cycle_01/bulkdock/openbind_a71ev2a_c1_elab_chemspace.sdf', '/opt/xchem-fragalysis-2/maxwin/openbind-hippo/a71ev2a/cycle_01/syndirella/elabs/openbind_a71ev2a_c1_elab_chemspace_filtered.sdf']

>  <HIPPO Compound ID>  (230) 
292606

>  <gnina_score>  (230) 
5.437

$$$$
LPTHWXRNIFTFCB-UHFFFAOYSA-N-P308-P15-P308-601501
     RDKit          3D

 20 21  0  0  0  0  0  0  0  0999 V2000
    9.6436    8.6119   23.3739 C   0  0  0  0  0  0  0  0  0  0  0  0
    8.6132    9.3725   23.9940 O   0  0  0  0  0  0  0  0  0  0  0  0
    9.0343   10.5779   24.4334 C   0  0  0  0  0  0  0  0  0  0  0  0
   10.1751   11.0141   24.4584 O   0  0  0  0  0  0  0  0  0  0  0  0
    7.8581   11.3566   24.8510 C   0  0  0  0  0  0  0  0  0  0  0  0
    6.9234   10.7639   25.7026 C   0  0  0  0  0  0  0  0  0  0  0  0
    5.9040   11.5431   26.2231 C   0  0  0  0  0  0  0  0  0  0  0  0
    5.0067   11.0784   27.3352 C   0  0  0  0  0  0  0  0  0  0  0  0
    3.7593   11.8555   27.6968 C   0  0  0  0  0  0  0  0  0  0  0  0
    4.9607   11.9467   28.5824 C   0  0  0  0  0  0  0  0  0  0  0  0
    5.7459   12.8178   25.8204 N   0  0  0  0  0  0  0  0  0  0  0  0
    6.6018   13.3278   24.9208 C   0  0  0  0  0  0  0  0  0  0  0  0
    7.7312   12.6846   24.4423 C   0  0  0  0  0  0  0  0  0  0  0  0
    8.5871   13.2540   23.5063 N   0  0  0  0  0  0  0  0  0  0  0  0
    8.5030   14.6859   23.2387 C   0  0  0  0  0  0  0  0  0  0  0  0
    9.7970   15.2150   22.6200 C   0  0  0  0  0  0  0  0  0  0  0  0
   11.0180   14.9038   23.3958 N   0  0  0  0  0  0  0  0  0  0  0  0
   10.9261   15.2508   24.8129 C   0  0  0  0  0  0  0  0  0  0  0  0
   12.1495   15.3270   22.8757 N   0  0  0  0  0  0  0  0  0  0  0  0
   12.1366   15.3779   21.6422 O   0  0  0  0  0  0  0  0  0  0  0  0
  1  2  1  0
  2  3  1  0
  3  4  2  0
  3  5  1  0
  5  6  2  0
  6  7  1  0
  7  8  1  0
  8  9  1  0
  9 10  1  0
  7 11  2  0
 11 12  1  0
 12 13  2  0
 13 14  1  0
 14 15  1  0
 15 16  1  0
 16 17  1  0
 17 18  1  0
 17 19  1  0
 19 20  2  0
 13  5  1  0
 10  8  1  0
M  END
>  <distance_score>  (231) 
1.419725

>  <smiles>  (231) 
COC(=O)c1cc(C2CC2)ncc1NCCN(C)N=O

>  <fragmenstein_error>  (231) 


>  <fragmenstein_runtime>  (231) 
4.599343

>  <gnina_score_min>  (231) 
5.027

>  <orig_smiles>  (231) 
COC(=O)c1cc(C2CC2)ncc1NCCN(C)N=O

>  <fragmenstein_mode>  (231) 
expansion

>  <rmsd(smina/fragmenstein)>  (231) 
1.667

>  <inspiration_score>  (231) 
None

>  <name>  (231) 
LPTHWXRNIFTFCB-UHFFFAOYSA-N-P308-P15-P308-601501

>  <ref_pdb>  (231) 
A0528a

>  <ref_mols>  (231) 
A4331a,A0514a

>  <subsites>  (231) 
None

>  <tags>  (231) 
openbind_a71ev2a_c1_elabs_filtered,fragmenstein_placed,a71ev2a_c1_elab_bulkdock_input,openbind_a71ev2a_c1_elab_chemspace_filtered_scored

>  <inchikey>  (231) 
LPTHWXRNIFTFCB-UHFFFAOYSA-N

>  <scratch_subdir>  (231) 
/opt/xchem-fragalysis-2/maxwin/BulkDock/SCRATCH/601501/LPTHWXRNIFTFCB-UHFFFAOYSA-N-P308-P15-P308-601501

>  <smina_score_min>  (231) 
-5.685

>  <energy_score>  (231) 
-41.696649

>  <Energy>  (231) 
81.615233

>  <fragmenstein_outcome>  (231) 
too moved

>  <alias>  (231) 
LPTHWXRNIFTFCB-UHFFFAOYSA-N-P308-P15-P308-601501

>  <HIPPO Pose ID>  (231) 
501797

>  <exports>  (231) 
['/opt/xchem-fragalysis-2/maxwin/openbind-hippo/a71ev2a/cycle_01/bulkdock/openbind_a71ev2a_c1_elab_chemspace.sdf', '/opt/xchem-fragalysis-2/maxwin/openbind-hippo/a71ev2a/cycle_01/syndirella/elabs/openbind_a71ev2a_c1_elab_chemspace_filtered.sdf']

>  <HIPPO Compound ID>  (231) 
292612

>  <gnina_score>  (231) 
5.15

$$$$
LLAUMRWDRXHAFK-UHFFFAOYSA-N-P308-P15-P308-601501
     RDKit          3D

 20 22  0  0  0  0  0  0  0  0999 V2000
    9.1912    8.4470   23.0888 C   0  0  0  0  0  0  0  0  0  0  0  0
    8.3904    9.3216   23.8766 O   0  0  0  0  0  0  0  0  0  0  0  0
    9.1259   10.2560   24.5151 C   0  0  0  0  0  0  0  0  0  0  0  0
   10.3426   10.2883   24.6161 O   0  0  0  0  0  0  0  0  0  0  0  0
    8.2252   11.3170   25.0052 C   0  0  0  0  0  0  0  0  0  0  0  0
    6.9920   10.9991   25.5935 C   0  0  0  0  0  0  0  0  0  0  0  0
    6.1937   12.0386   26.0566 C   0  0  0  0  0  0  0  0  0  0  0  0
    4.8420   11.8846   26.6735 C   0  0  0  0  0  0  0  0  0  0  0  0
    4.5095   11.0008   27.8375 C   0  0  0  0  0  0  0  0  0  0  0  0
    4.6751   12.4716   28.0642 C   0  0  0  0  0  0  0  0  0  0  0  0
    6.5876   13.3263   25.9514 N   0  0  0  0  0  0  0  0  0  0  0  0
    7.7351   13.6044   25.3168 C   0  0  0  0  0  0  0  0  0  0  0  0
    8.6065   12.6494   24.8272 C   0  0  0  0  0  0  0  0  0  0  0  0
    9.7676   13.0469   24.1329 N   0  0  0  0  0  0  0  0  0  0  0  0
   10.9976   12.9363   24.8368 N   0  0  0  0  0  0  0  0  0  0  0  0
    9.6756   13.9451   23.0741 C   0  0  0  0  0  0  0  0  0  0  0  0
    8.6250   14.0732   22.3056 N   0  0  0  0  0  0  0  0  0  0  0  0
    9.0012   15.0881   21.2974 C   0  0  0  0  0  0  0  0  0  0  0  0
   10.1177   15.8887   21.9123 C   0  0  0  0  0  0  0  0  0  0  0  0
   10.8395   14.8348   22.7040 C   0  0  0  0  0  0  0  0  0  0  0  0
  1  2  1  0
  2  3  1  0
  3  4  2  0
  3  5  1  0
  5  6  2  0
  6  7  1  0
  7  8  1  0
  8  9  1  0
  9 10  1  0
  7 11  2  0
 11 12  1  0
 12 13  2  0
 13 14  1  0
 14 15  1  0
 14 16  1  0
 16 17  2  0
 17 18  1  0
 18 19  1  0
 19 20  1  0
 13  5  1  0
 20 16  1  0
 10  8  1  0
M  END
>  <distance_score>  (232) 
1.500648

>  <smiles>  (232) 
COC(=O)c1cc(C2CC2)ncc1N(N)C1=NCCC1

>  <fragmenstein_error>  (232) 


>  <fragmenstein_runtime>  (232) 
3.690202

>  <gnina_score_min>  (232) 
4.795

>  <orig_smiles>  (232) 
COC(=O)c1cc(C2CC2)ncc1N(N)C1=NCCC1

>  <fragmenstein_mode>  (232) 
expansion

>  <rmsd(smina/fragmenstein)>  (232) 
1.849

>  <inspiration_score>  (232) 
None

>  <name>  (232) 
LLAUMRWDRXHAFK-UHFFFAOYSA-N-P308-P15-P308-601501

>  <ref_pdb>  (232) 
A0528a

>  <ref_mols>  (232) 
A4331a,A0514a

>  <subsites>  (232) 
None

>  <tags>  (232) 
openbind_a71ev2a_c1_elabs_filtered,fragmenstein_placed,a71ev2a_c1_elab_bulkdock_input,openbind_a71ev2a_c1_elab_chemspace_filtered_scored

>  <inchikey>  (232) 
LLAUMRWDRXHAFK-UHFFFAOYSA-N

>  <scratch_subdir>  (232) 
/opt/xchem-fragalysis-2/maxwin/BulkDock/SCRATCH/601501/LLAUMRWDRXHAFK-UHFFFAOYSA-N-P308-P15-P308-601501

>  <smina_score_min>  (232) 
-5.807

>  <energy_score>  (232) 
-40.413281

>  <Energy>  (232) 
74.73401

>  <fragmenstein_outcome>  (232) 
too moved

>  <alias>  (232) 
LLAUMRWDRXHAFK-UHFFFAOYSA-N-P308-P15-P308-601501

>  <HIPPO Pose ID>  (232) 
501799

>  <exports>  (232) 
['/opt/xchem-fragalysis-2/maxwin/openbind-hippo/a71ev2a/cycle_01/bulkdock/openbind_a71ev2a_c1_elab_chemspace.sdf', '/opt/xchem-fragalysis-2/maxwin/openbind-hippo/a71ev2a/cycle_01/syndirella/elabs/openbind_a71ev2a_c1_elab_chemspace_filtered.sdf']

>  <HIPPO Compound ID>  (232) 
292613

>  <gnina_score>  (232) 
5.301

$$$$
FTGMJRPKVSGOCM-UHFFFAOYSA-N-P308-P15-P308-601501
     RDKit          3D

 20 21  0  0  0  0  0  0  0  0999 V2000
    9.6198    9.0585   22.8577 C   0  0  0  0  0  0  0  0  0  0  0  0
    9.1133   10.2731   23.4059 O   0  0  0  0  0  0  0  0  0  0  0  0
    8.3390   10.0697   24.4900 C   0  0  0  0  0  0  0  0  0  0  0  0
    8.0205    8.9748   24.9340 O   0  0  0  0  0  0  0  0  0  0  0  0
    7.7957   11.3170   25.0640 C   0  0  0  0  0  0  0  0  0  0  0  0
    6.5544   11.1423   25.6998 C   0  0  0  0  0  0  0  0  0  0  0  0
    5.9053   12.2337   26.2486 C   0  0  0  0  0  0  0  0  0  0  0  0
    4.5625   12.1589   26.8926 C   0  0  0  0  0  0  0  0  0  0  0  0
    4.2877   11.3290   28.1131 C   0  0  0  0  0  0  0  0  0  0  0  0
    4.4111   12.8167   28.2485 C   0  0  0  0  0  0  0  0  0  0  0  0
    6.4568   13.4592   26.2066 N   0  0  0  0  0  0  0  0  0  0  0  0
    7.6352   13.6130   25.5884 C   0  0  0  0  0  0  0  0  0  0  0  0
    8.3722   12.5922   24.9991 C   0  0  0  0  0  0  0  0  0  0  0  0
    9.5872   12.9724   24.4003 N   0  0  0  0  0  0  0  0  0  0  0  0
   10.7591   12.2965   24.8064 N   0  0  0  0  0  0  0  0  0  0  0  0
    9.4105   13.3776   22.9792 C   0  0  0  0  0  0  0  0  0  0  0  0
    9.5569   14.8876   22.7669 C   0  0  0  0  0  0  0  0  0  0  0  0
   10.8759   15.4536   23.2487 C   0  0  0  0  0  0  0  0  0  0  0  0
    9.4175   15.1571   21.4412 F   0  0  0  0  0  0  0  0  0  0  0  0
    8.5456   15.5446   23.3934 F   0  0  0  0  0  0  0  0  0  0  0  0
  1  2  1  0
  2  3  1  0
  3  4  2  0
  3  5  1  0
  5  6  2  0
  6  7  1  0
  7  8  1  0
  8  9  1  0
  9 10  1  0
  7 11  2  0
 11 12  1  0
 12 13  2  0
 13 14  1  0
 14 15  1  0
 14 16  1  0
 16 17  1  0
 17 18  1  0
 17 19  1  0
 17 20  1  0
 13  5  1  0
 10  8  1  0
M  END
>  <distance_score>  (233) 
1.544986

>  <smiles>  (233) 
COC(=O)c1cc(C2CC2)ncc1N(N)CC(C)(F)F

>  <fragmenstein_error>  (233) 


>  <fragmenstein_runtime>  (233) 
3.725541

>  <gnina_score_min>  (233) 
4.939

>  <orig_smiles>  (233) 
COC(=O)c1cc(C2CC2)ncc1N(N)CC(C)(F)F

>  <fragmenstein_mode>  (233) 
expansion

>  <rmsd(smina/fragmenstein)>  (233) 
1.851

>  <inspiration_score>  (233) 
None

>  <name>  (233) 
FTGMJRPKVSGOCM-UHFFFAOYSA-N-P308-P15-P308-601501

>  <ref_pdb>  (233) 
A0528a

>  <ref_mols>  (233) 
A4331a,A0514a

>  <subsites>  (233) 
None

>  <tags>  (233) 
openbind_a71ev2a_c1_elabs_filtered,fragmenstein_placed,a71ev2a_c1_elab_bulkdock_input,openbind_a71ev2a_c1_elab_chemspace_filtered_scored

>  <inchikey>  (233) 
FTGMJRPKVSGOCM-UHFFFAOYSA-N

>  <scratch_subdir>  (233) 
/opt/xchem-fragalysis-2/maxwin/BulkDock/SCRATCH/601501/FTGMJRPKVSGOCM-UHFFFAOYSA-N-P308-P15-P308-601501

>  <smina_score_min>  (233) 
-5.755

>  <energy_score>  (233) 
-38.430597

>  <Energy>  (233) 
131.725366

>  <fragmenstein_outcome>  (233) 
too moved

>  <alias>  (233) 
FTGMJRPKVSGOCM-UHFFFAOYSA-N-P308-P15-P308-601501

>  <HIPPO Pose ID>  (233) 
501801

>  <exports>  (233) 
['/opt/xchem-fragalysis-2/maxwin/openbind-hippo/a71ev2a/cycle_01/bulkdock/openbind_a71ev2a_c1_elab_chemspace.sdf', '/opt/xchem-fragalysis-2/maxwin/openbind-hippo/a71ev2a/cycle_01/syndirella/elabs/openbind_a71ev2a_c1_elab_chemspace_filtered.sdf']

>  <HIPPO Compound ID>  (233) 
292614

>  <gnina_score>  (233) 
5.347

$$$$
LWFFVESRMYVRKP-UHFFFAOYSA-N-P308-P15-P308-601501
     RDKit          3D

 20 22  0  0  0  0  0  0  0  0999 V2000
    9.3317    8.6608   23.1403 C   0  0  0  0  0  0  0  0  0  0  0  0
    8.5087    9.6004   23.8272 O   0  0  0  0  0  0  0  0  0  0  0  0
    9.2098   10.5181   24.5336 C   0  0  0  0  0  0  0  0  0  0  0  0
   10.4175   10.5285   24.7149 O   0  0  0  0  0  0  0  0  0  0  0  0
    8.2598   11.5235   25.0639 C   0  0  0  0  0  0  0  0  0  0  0  0
    7.0171   11.1141   25.5778 C   0  0  0  0  0  0  0  0  0  0  0  0
    6.1860   12.0715   26.1468 C   0  0  0  0  0  0  0  0  0  0  0  0
    4.8197   11.8226   26.6923 C   0  0  0  0  0  0  0  0  0  0  0  0
    4.4933   10.8833   27.8149 C   0  0  0  0  0  0  0  0  0  0  0  0
    4.5553   12.3525   28.0918 C   0  0  0  0  0  0  0  0  0  0  0  0
    6.5607   13.3649   26.2254 N   0  0  0  0  0  0  0  0  0  0  0  0
    7.7283   13.7372   25.6956 C   0  0  0  0  0  0  0  0  0  0  0  0
    8.6297   12.8730   25.0938 C   0  0  0  0  0  0  0  0  0  0  0  0
    9.8035   13.3631   24.4849 N   0  0  0  0  0  0  0  0  0  0  0  0
   10.5873   14.2371   25.3723 C   0  0  0  0  0  0  0  0  0  0  0  0
    9.7174   13.9289   23.1975 N   0  0  0  0  0  0  0  0  0  0  0  0
    8.6098   14.4495   22.5722 C   0  0  0  0  0  0  0  0  0  0  0  0
    9.0182   15.0369   21.3927 C   0  0  0  0  0  0  0  0  0  0  0  0
   10.3992   14.8147   21.2612 C   0  0  0  0  0  0  0  0  0  0  0  0
   10.7934   14.0999   22.3679 C   0  0  0  0  0  0  0  0  0  0  0  0
  1  2  1  0
  2  3  1  0
  3  4  2  0
  3  5  1  0
  5  6  2  0
  6  7  1  0
  7  8  1  0
  8  9  1  0
  9 10  1  0
  7 11  2  0
 11 12  1  0
 12 13  2  0
 13 14  1  0
 14 15  1  0
 14 16  1  0
 16 17  1  0
 17 18  2  0
 18 19  1  0
 19 20  2  0
 13  5  1  0
 20 16  1  0
 10  8  1  0
M  END
>  <distance_score>  (234) 
1.736227

>  <smiles>  (234) 
COC(=O)c1cc(C2CC2)ncc1N(C)n1cccc1

>  <fragmenstein_error>  (234) 


>  <fragmenstein_runtime>  (234) 
4.578701

>  <gnina_score_min>  (234) 
4.981

>  <orig_smiles>  (234) 
COC(=O)c1cc(C2CC2)ncc1N(C)n1cccc1

>  <fragmenstein_mode>  (234) 
expansion

>  <rmsd(smina/fragmenstein)>  (234) 
1.585

>  <inspiration_score>  (234) 
None

>  <name>  (234) 
LWFFVESRMYVRKP-UHFFFAOYSA-N-P308-P15-P308-601501

>  <ref_pdb>  (234) 
A0528a

>  <ref_mols>  (234) 
A4331a,A0514a

>  <subsites>  (234) 
None

>  <tags>  (234) 
openbind_a71ev2a_c1_elabs_filtered,fragmenstein_placed,a71ev2a_c1_elab_bulkdock_input,openbind_a71ev2a_c1_elab_chemspace_filtered_scored

>  <inchikey>  (234) 
LWFFVESRMYVRKP-UHFFFAOYSA-N

>  <scratch_subdir>  (234) 
/opt/xchem-fragalysis-2/maxwin/BulkDock/SCRATCH/601501/LWFFVESRMYVRKP-UHFFFAOYSA-N-P308-P15-P308-601501

>  <smina_score_min>  (234) 
-5.215

>  <energy_score>  (234) 
-25.279461

>  <Energy>  (234) 
42.963123

>  <fragmenstein_outcome>  (234) 
too moved

>  <alias>  (234) 
LWFFVESRMYVRKP-UHFFFAOYSA-N-P308-P15-P308-601501

>  <HIPPO Pose ID>  (234) 
501803

>  <exports>  (234) 
['/opt/xchem-fragalysis-2/maxwin/openbind-hippo/a71ev2a/cycle_01/bulkdock/openbind_a71ev2a_c1_elab_chemspace.sdf', '/opt/xchem-fragalysis-2/maxwin/openbind-hippo/a71ev2a/cycle_01/syndirella/elabs/openbind_a71ev2a_c1_elab_chemspace_filtered.sdf']

>  <HIPPO Compound ID>  (234) 
292615

>  <gnina_score>  (234) 
5.214

$$$$
HMPPRESURCLCGG-UHFFFAOYSA-N-P308-P15-P308-601501
     RDKit          3D

 20 22  0  0  0  0  0  0  0  0999 V2000
    9.4156    8.5343   23.0626 C   0  0  0  0  0  0  0  0  0  0  0  0
    8.5793    9.3975   23.8185 O   0  0  0  0  0  0  0  0  0  0  0  0
    9.2630   10.3383   24.5105 C   0  0  0  0  0  0  0  0  0  0  0  0
   10.4725   10.4110   24.6475 O   0  0  0  0  0  0  0  0  0  0  0  0
    8.2672   11.2963   25.0269 C   0  0  0  0  0  0  0  0  0  0  0  0
    7.0903   10.8184   25.6181 C   0  0  0  0  0  0  0  0  0  0  0  0
    6.1952   11.7302   26.1608 C   0  0  0  0  0  0  0  0  0  0  0  0
    5.0480   11.3156   27.0419 C   0  0  0  0  0  0  0  0  0  0  0  0
    3.8734   12.2451   27.2597 C   0  0  0  0  0  0  0  0  0  0  0  0
    4.8795   12.0677   28.3516 C   0  0  0  0  0  0  0  0  0  0  0  0
    6.3972   13.0597   26.0220 N   0  0  0  0  0  0  0  0  0  0  0  0
    7.5071   13.4938   25.4064 C   0  0  0  0  0  0  0  0  0  0  0  0
    8.5089   12.6643   24.9361 C   0  0  0  0  0  0  0  0  0  0  0  0
    9.7003   13.2093   24.4221 N   0  0  0  0  0  0  0  0  0  0  0  0
   10.6488   13.5755   25.4364 N   0  0  0  0  0  0  0  0  0  0  0  0
    9.6476   13.9749   23.2535 C   0  0  0  0  0  0  0  0  0  0  0  0
    8.7445   13.8896   22.3241 N   0  0  0  0  0  0  0  0  0  0  0  0
    9.1169   14.7939   21.2100 C   0  0  0  0  0  0  0  0  0  0  0  0
    9.8852   15.9818   21.7338 C   0  0  0  0  0  0  0  0  0  0  0  0
   10.8961   15.2028   22.9963 S   0  0  0  0  0  0  0  0  0  0  0  0
  1  2  1  0
  2  3  1  0
  3  4  2  0
  3  5  1  0
  5  6  2  0
  6  7  1  0
  7  8  1  0
  8  9  1  0
  9 10  1  0
  7 11  2  0
 11 12  1  0
 12 13  2  0
 13 14  1  0
 14 15  1  0
 14 16  1  0
 16 17  2  0
 17 18  1  0
 18 19  1  0
 19 20  1  0
 13  5  1  0
 20 16  1  0
 10  8  1  0
M  END
>  <distance_score>  (235) 
1.684873

>  <smiles>  (235) 
COC(=O)c1cc(C2CC2)ncc1N(N)C1=NCCS1

>  <fragmenstein_error>  (235) 


>  <fragmenstein_runtime>  (235) 
2.954728

>  <gnina_score_min>  (235) 
5.051

>  <orig_smiles>  (235) 
COC(=O)c1cc(C2CC2)ncc1N(N)C1=NCCS1

>  <fragmenstein_mode>  (235) 
expansion

>  <rmsd(smina/fragmenstein)>  (235) 
1.065

>  <inspiration_score>  (235) 
None

>  <name>  (235) 
HMPPRESURCLCGG-UHFFFAOYSA-N-P308-P15-P308-601501

>  <ref_pdb>  (235) 
A0528a

>  <ref_mols>  (235) 
A4331a,A0514a

>  <subsites>  (235) 
None

>  <tags>  (235) 
openbind_a71ev2a_c1_elabs_filtered,fragmenstein_placed,a71ev2a_c1_elab_bulkdock_input,openbind_a71ev2a_c1_elab_chemspace_filtered_scored

>  <inchikey>  (235) 
HMPPRESURCLCGG-UHFFFAOYSA-N

>  <scratch_subdir>  (235) 
/opt/xchem-fragalysis-2/maxwin/BulkDock/SCRATCH/601501/HMPPRESURCLCGG-UHFFFAOYSA-N-P308-P15-P308-601501

>  <smina_score_min>  (235) 
-5.626

>  <energy_score>  (235) 
-41.177662

>  <Energy>  (235) 
80.043464

>  <fragmenstein_outcome>  (235) 
too moved

>  <alias>  (235) 
HMPPRESURCLCGG-UHFFFAOYSA-N-P308-P15-P308-601501

>  <HIPPO Pose ID>  (235) 
501811

>  <exports>  (235) 
['/opt/xchem-fragalysis-2/maxwin/openbind-hippo/a71ev2a/cycle_01/bulkdock/openbind_a71ev2a_c1_elab_chemspace.sdf', '/opt/xchem-fragalysis-2/maxwin/openbind-hippo/a71ev2a/cycle_01/syndirella/elabs/openbind_a71ev2a_c1_elab_chemspace_filtered.sdf']

>  <HIPPO Compound ID>  (235) 
292619

>  <gnina_score>  (235) 
5.274

$$$$
IZDVFGAUWMTFPI-UHFFFAOYSA-N-P308-P15-P308-601501
     RDKit          3D

 20 22  0  0  0  0  0  0  0  0999 V2000
    9.5565    8.4031   23.4429 C   0  0  0  0  0  0  0  0  0  0  0  0
    8.7863    9.2643   24.2732 O   0  0  0  0  0  0  0  0  0  0  0  0
    8.8323   10.5410   23.8299 C   0  0  0  0  0  0  0  0  0  0  0  0
    9.4098   10.9139   22.8243 O   0  0  0  0  0  0  0  0  0  0  0  0
    8.1033   11.4365   24.7492 C   0  0  0  0  0  0  0  0  0  0  0  0
    7.0199   10.9258   25.4798 C   0  0  0  0  0  0  0  0  0  0  0  0
    6.2662   11.7885   26.2628 C   0  0  0  0  0  0  0  0  0  0  0  0
    5.0759   11.3330   27.0611 C   0  0  0  0  0  0  0  0  0  0  0  0
    4.8416   11.9085   28.4407 C   0  0  0  0  0  0  0  0  0  0  0  0
    3.9536   12.3239   27.3108 C   0  0  0  0  0  0  0  0  0  0  0  0
    6.5841   13.0998   26.3486 N   0  0  0  0  0  0  0  0  0  0  0  0
    7.6137   13.5719   25.6264 C   0  0  0  0  0  0  0  0  0  0  0  0
    8.4177   12.8007   24.8054 C   0  0  0  0  0  0  0  0  0  0  0  0
    9.4368   13.4513   24.0619 N   0  0  0  0  0  0  0  0  0  0  0  0
   10.7371   12.8970   24.1355 N   0  0  0  0  0  0  0  0  0  0  0  0
    9.1261   14.3920   22.9708 C   0  0  0  0  0  0  0  0  0  0  0  0
    7.7254   14.1971   22.3877 C   0  0  0  0  0  0  0  0  0  0  0  0
   10.2277   14.5543   21.8662 C   0  0  0  0  0  0  0  0  0  0  0  0
   10.0134   16.0754   21.9656 C   0  0  0  0  0  0  0  0  0  0  0  0
    9.4663   15.8448   23.3883 C   0  0  0  0  0  0  0  0  0  0  0  0
  1  2  1  0
  2  3  1  0
  3  4  2  0
  3  5  1  0
  5  6  2  0
  6  7  1  0
  7  8  1  0
  8  9  1  0
  9 10  1  0
  7 11  2  0
 11 12  1  0
 12 13  2  0
 13 14  1  0
 14 15  1  0
 14 16  1  0
 16 17  1  0
 16 18  1  0
 18 19  1  0
 19 20  1  0
 13  5  1  0
 20 16  1  0
 10  8  1  0
M  END
>  <distance_score>  (236) 
1.736625

>  <smiles>  (236) 
COC(=O)c1cc(C2CC2)ncc1N(N)C1(C)CCC1

>  <fragmenstein_error>  (236) 


>  <fragmenstein_runtime>  (236) 
5.476732

>  <gnina_score_min>  (236) 
4.932

>  <orig_smiles>  (236) 
COC(=O)c1cc(C2CC2)ncc1N(N)C1(C)CCC1

>  <fragmenstein_mode>  (236) 
expansion

>  <rmsd(smina/fragmenstein)>  (236) 
1.5

>  <inspiration_score>  (236) 
None

>  <name>  (236) 
IZDVFGAUWMTFPI-UHFFFAOYSA-N-P308-P15-P308-601501

>  <ref_pdb>  (236) 
A0528a

>  <ref_mols>  (236) 
A4331a,A0514a

>  <subsites>  (236) 
None

>  <tags>  (236) 
openbind_a71ev2a_c1_elabs_filtered,fragmenstein_placed,a71ev2a_c1_elab_bulkdock_input,openbind_a71ev2a_c1_elab_chemspace_filtered_scored

>  <inchikey>  (236) 
IZDVFGAUWMTFPI-UHFFFAOYSA-N

>  <scratch_subdir>  (236) 
/opt/xchem-fragalysis-2/maxwin/BulkDock/SCRATCH/601501/IZDVFGAUWMTFPI-UHFFFAOYSA-N-P308-P15-P308-601501

>  <smina_score_min>  (236) 
-6.1

>  <energy_score>  (236) 
-55.311388

>  <Energy>  (236) 
96.387375

>  <fragmenstein_outcome>  (236) 
too moved

>  <alias>  (236) 
IZDVFGAUWMTFPI-UHFFFAOYSA-N-P308-P15-P308-601501

>  <HIPPO Pose ID>  (236) 
501819

>  <exports>  (236) 
['/opt/xchem-fragalysis-2/maxwin/openbind-hippo/a71ev2a/cycle_01/bulkdock/openbind_a71ev2a_c1_elab_chemspace.sdf', '/opt/xchem-fragalysis-2/maxwin/openbind-hippo/a71ev2a/cycle_01/syndirella/elabs/openbind_a71ev2a_c1_elab_chemspace_filtered.sdf']

>  <HIPPO Compound ID>  (236) 
292623

>  <gnina_score>  (236) 
5.303

$$$$
LVPHNQDJRRDHAZ-UHFFFAOYSA-N-P15-P15-P308-601501
     RDKit          3D

 20 21  0  0  0  0  0  0  0  0999 V2000
   10.8793   15.3736   20.1753 C   0  0  0  0  0  0  0  0  0  0  0  0
    9.6407   15.3105   21.0442 C   0  0  0  0  0  0  0  0  0  0  0  0
    9.9122   14.3798   22.2122 C   0  0  0  0  0  0  0  0  0  0  0  0
    8.7747   14.1653   23.2269 C   0  0  1  0  0  0  0  0  0  0  0  0
    7.4038   14.2326   22.5507 C   0  0  0  0  0  0  0  0  0  0  0  0
    8.9856   12.8586   23.9162 N   0  0  0  0  0  0  0  0  0  0  0  0
   10.3063   12.4951   24.3099 N   0  0  0  0  0  0  0  0  0  0  0  0
    8.0169   12.4562   24.8510 C   0  0  0  0  0  0  0  0  0  0  0  0
    7.4060   13.3828   25.6906 C   0  0  0  0  0  0  0  0  0  0  0  0
    6.4527   13.1110   26.5973 N   0  0  0  0  0  0  0  0  0  0  0  0
    6.0044   11.8479   26.7027 C   0  0  0  0  0  0  0  0  0  0  0  0
    4.9149   11.5802   27.6961 C   0  0  0  0  0  0  0  0  0  0  0  0
    3.6303   12.3678   27.6003 C   0  0  0  0  0  0  0  0  0  0  0  0
    4.5813   12.6404   28.7255 C   0  0  0  0  0  0  0  0  0  0  0  0
    6.5603   10.8434   25.9372 C   0  0  0  0  0  0  0  0  0  0  0  0
    7.5980   11.1337   25.0335 C   0  0  0  0  0  0  0  0  0  0  0  0
    8.1508    9.9327   24.3737 C   0  0  0  0  0  0  0  0  0  0  0  0
    7.7589    8.8287   24.7222 O   0  0  0  0  0  0  0  0  0  0  0  0
    9.0896   10.1539   23.4349 O   0  0  0  0  0  0  0  0  0  0  0  0
    9.6294    8.9524   22.8843 C   0  0  0  0  0  0  0  0  0  0  0  0
  1  2  1  0
  2  3  1  0
  3  4  1  0
  4  5  1  6
  4  6  1  0
  6  7  1  0
  6  8  1  0
  8  9  2  0
  9 10  1  0
 10 11  2  0
 11 12  1  0
 12 13  1  0
 13 14  1  0
 11 15  1  0
 15 16  2  0
 16 17  1  0
 17 18  2  0
 17 19  1  0
 19 20  1  0
 16  8  1  0
 14 12  1  0
M  END
>  <distance_score>  (237) 
1.538204

>  <smiles>  (237) 
CCCC(C)N(N)c1cnc(C2CC2)cc1C(=O)OC

>  <fragmenstein_error>  (237) 


>  <fragmenstein_runtime>  (237) 
5.740552

>  <gnina_score_min>  (237) 
5.337

>  <orig_smiles>  (237) 
CCCC(C)N(N)c1cnc(C2CC2)cc1C(=O)OC

>  <fragmenstein_mode>  (237) 
expansion

>  <rmsd(smina/fragmenstein)>  (237) 
1.991

>  <inspiration_score>  (237) 
None

>  <name>  (237) 
LVPHNQDJRRDHAZ-UHFFFAOYSA-N-P15-P15-P308-601501

>  <ref_pdb>  (237) 
A0528a

>  <ref_mols>  (237) 
A4331a,A0514a

>  <subsites>  (237) 
None

>  <tags>  (237) 
openbind_a71ev2a_c1_elabs_filtered,fragmenstein_placed,a71ev2a_c1_elab_bulkdock_input,openbind_a71ev2a_c1_elab_chemspace_filtered_scored

>  <inchikey>  (237) 
LVPHNQDJRRDHAZ-UHFFFAOYSA-N

>  <scratch_subdir>  (237) 
/opt/xchem-fragalysis-2/maxwin/BulkDock/SCRATCH/601501/LVPHNQDJRRDHAZ-UHFFFAOYSA-N-P15-P15-P308-601501

>  <smina_score_min>  (237) 
-5.441

>  <energy_score>  (237) 
-34.432412

>  <Energy>  (237) 
101.132978

>  <fragmenstein_outcome>  (237) 
too moved

>  <alias>  (237) 
LVPHNQDJRRDHAZ-UHFFFAOYSA-N-P15-P15-P308-601501

>  <HIPPO Pose ID>  (237) 
501826

>  <exports>  (237) 
['/opt/xchem-fragalysis-2/maxwin/openbind-hippo/a71ev2a/cycle_01/bulkdock/openbind_a71ev2a_c1_elab_chemspace.sdf', '/opt/xchem-fragalysis-2/maxwin/openbind-hippo/a71ev2a/cycle_01/syndirella/elabs/openbind_a71ev2a_c1_elab_chemspace_filtered.sdf']

>  <HIPPO Compound ID>  (237) 
292627

>  <gnina_score>  (237) 
5.292

$$$$
ZZTIGHJYNOWYFS-UHFFFAOYSA-N-P15-P15-P308-601501
     RDKit          3D

 20 22  0  0  0  0  0  0  0  0999 V2000
    9.3933    8.4809   23.1216 C   0  0  0  0  0  0  0  0  0  0  0  0
    8.6631    9.3257   24.0121 O   0  0  0  0  0  0  0  0  0  0  0  0
    8.8805   10.6484   23.8334 C   0  0  0  0  0  0  0  0  0  0  0  0
    9.6283   11.1217   22.9945 O   0  0  0  0  0  0  0  0  0  0  0  0
    8.0749   11.4558   24.7865 C   0  0  0  0  0  0  0  0  0  0  0  0
    7.0244   10.8460   25.4894 C   0  0  0  0  0  0  0  0  0  0  0  0
    6.2537   11.6079   26.3580 C   0  0  0  0  0  0  0  0  0  0  0  0
    5.1754   11.0139   27.2175 C   0  0  0  0  0  0  0  0  0  0  0  0
    5.1085   11.4044   28.6764 C   0  0  0  0  0  0  0  0  0  0  0  0
    4.0705   11.9204   27.7292 C   0  0  0  0  0  0  0  0  0  0  0  0
    6.4766   12.9318   26.5083 N   0  0  0  0  0  0  0  0  0  0  0  0
    7.4619   13.5072   25.8061 C   0  0  0  0  0  0  0  0  0  0  0  0
    8.3240   12.8281   24.9609 C   0  0  0  0  0  0  0  0  0  0  0  0
    9.3715   13.5875   24.3840 N   0  0  0  0  0  0  0  0  0  0  0  0
   10.6757   13.0474   24.5679 N   0  0  0  0  0  0  0  0  0  0  0  0
    8.9454   14.0702   23.0405 C   0  0  0  0  0  0  0  0  0  0  0  0
   10.1299   14.4196   22.1441 C   0  0  0  0  0  0  0  0  0  0  0  0
    9.7211   15.0751   20.8628 C   0  0  0  0  0  0  0  0  0  0  0  0
   10.7828   15.2506   19.7958 C   0  0  0  0  0  0  0  0  0  0  0  0
   10.2296   16.4361   20.5067 C   0  0  0  0  0  0  0  0  0  0  0  0
  1  2  1  0
  2  3  1  0
  3  4  2  0
  3  5  1  0
  5  6  2  0
  6  7  1  0
  7  8  1  0
  8  9  1  0
  9 10  1  0
  7 11  2  0
 11 12  1  0
 12 13  2  0
 13 14  1  0
 14 15  1  0
 14 16  1  0
 16 17  1  0
 17 18  1  0
 18 19  1  0
 19 20  1  0
 13  5  1  0
 20 18  1  0
 10  8  1  0
M  END
>  <distance_score>  (238) 
1.731077

>  <smiles>  (238) 
COC(=O)c1cc(C2CC2)ncc1N(N)CCC1CC1

>  <fragmenstein_error>  (238) 


>  <fragmenstein_runtime>  (238) 
5.563547

>  <gnina_score_min>  (238) 
4.925

>  <orig_smiles>  (238) 
COC(=O)c1cc(C2CC2)ncc1N(N)CCC1CC1

>  <fragmenstein_mode>  (238) 
expansion

>  <rmsd(smina/fragmenstein)>  (238) 
2.114

>  <inspiration_score>  (238) 
None

>  <name>  (238) 
ZZTIGHJYNOWYFS-UHFFFAOYSA-N-P15-P15-P308-601501

>  <ref_pdb>  (238) 
A0528a

>  <ref_mols>  (238) 
A4331a,A0514a

>  <subsites>  (238) 
None

>  <tags>  (238) 
openbind_a71ev2a_c1_elabs_filtered,fragmenstein_placed,a71ev2a_c1_elab_bulkdock_input,openbind_a71ev2a_c1_elab_chemspace_filtered_scored

>  <inchikey>  (238) 
ZZTIGHJYNOWYFS-UHFFFAOYSA-N

>  <scratch_subdir>  (238) 
/opt/xchem-fragalysis-2/maxwin/BulkDock/SCRATCH/601501/ZZTIGHJYNOWYFS-UHFFFAOYSA-N-P15-P15-P308-601501

>  <smina_score_min>  (238) 
-5.897

>  <energy_score>  (238) 
-32.566899

>  <Energy>  (238) 
122.069681

>  <fragmenstein_outcome>  (238) 
too moved

>  <alias>  (238) 
ZZTIGHJYNOWYFS-UHFFFAOYSA-N-P15-P15-P308-601501

>  <HIPPO Pose ID>  (238) 
501830

>  <exports>  (238) 
['/opt/xchem-fragalysis-2/maxwin/openbind-hippo/a71ev2a/cycle_01/bulkdock/openbind_a71ev2a_c1_elab_chemspace.sdf', '/opt/xchem-fragalysis-2/maxwin/openbind-hippo/a71ev2a/cycle_01/syndirella/elabs/openbind_a71ev2a_c1_elab_chemspace_filtered.sdf']

>  <HIPPO Compound ID>  (238) 
292629

>  <gnina_score>  (238) 
5.229

$$$$
LKKIVODBMFQDDD-UHFFFAOYSA-N-P15-P15-P308-601501
     RDKit          3D

 20 21  0  0  0  0  0  0  0  0999 V2000
   11.2968   14.6451   22.4691 C   0  0  0  0  0  0  0  0  0  0  0  0
    9.8334   14.4548   22.0943 C   0  0  0  0  0  0  0  0  0  0  0  0
    8.8343   14.1854   23.2413 C   0  0  1  0  0  0  0  0  0  0  0  0
    7.4142   14.2959   22.6414 C   0  0  0  0  0  0  0  0  0  0  0  0
    7.1960   13.2738   21.7751 F   0  0  0  0  0  0  0  0  0  0  0  0
    9.0567   12.8750   23.9252 N   0  0  0  0  0  0  0  0  0  0  0  0
   10.3545   12.5190   24.3431 N   0  0  0  0  0  0  0  0  0  0  0  0
    8.0753   12.4653   24.8463 C   0  0  0  0  0  0  0  0  0  0  0  0
    7.4854   13.3818   25.7125 C   0  0  0  0  0  0  0  0  0  0  0  0
    6.5223   13.1117   26.6075 N   0  0  0  0  0  0  0  0  0  0  0  0
    6.0436   11.8565   26.6777 C   0  0  0  0  0  0  0  0  0  0  0  0
    4.9393   11.5897   27.6553 C   0  0  0  0  0  0  0  0  0  0  0  0
    3.6626   12.3891   27.5501 C   0  0  0  0  0  0  0  0  0  0  0  0
    4.6005   12.6432   28.6902 C   0  0  0  0  0  0  0  0  0  0  0  0
    6.5855   10.8580   25.8939 C   0  0  0  0  0  0  0  0  0  0  0  0
    7.6337   11.1471   25.0007 C   0  0  0  0  0  0  0  0  0  0  0  0
    8.1831    9.9469   24.3382 C   0  0  0  0  0  0  0  0  0  0  0  0
    7.8136    8.8423   24.7122 O   0  0  0  0  0  0  0  0  0  0  0  0
    9.0866   10.1701   23.3682 O   0  0  0  0  0  0  0  0  0  0  0  0
    9.6406    8.9672   22.8397 C   0  0  0  0  0  0  0  0  0  0  0  0
  1  2  1  0
  3  2  1  6
  3  4  1  0
  4  5  1  0
  3  6  1  0
  6  7  1  0
  6  8  1  0
  8  9  2  0
  9 10  1  0
 10 11  2  0
 11 12  1  0
 12 13  1  0
 13 14  1  0
 11 15  1  0
 15 16  2  0
 16 17  1  0
 17 18  2  0
 17 19  1  0
 19 20  1  0
 16  8  1  0
 14 12  1  0
M  END
>  <distance_score>  (239) 
1.429366

>  <smiles>  (239) 
CCC(CF)N(N)c1cnc(C2CC2)cc1C(=O)OC

>  <fragmenstein_error>  (239) 


>  <fragmenstein_runtime>  (239) 
7.037927

>  <gnina_score_min>  (239) 
5.274

>  <orig_smiles>  (239) 
CCC(CF)N(N)c1cnc(C2CC2)cc1C(=O)OC

>  <fragmenstein_mode>  (239) 
expansion

>  <rmsd(smina/fragmenstein)>  (239) 
2.039

>  <inspiration_score>  (239) 
None

>  <name>  (239) 
LKKIVODBMFQDDD-UHFFFAOYSA-N-P15-P15-P308-601501

>  <ref_pdb>  (239) 
A0528a

>  <ref_mols>  (239) 
A4331a,A0514a

>  <subsites>  (239) 
None

>  <tags>  (239) 
openbind_a71ev2a_c1_elabs_filtered,fragmenstein_placed,a71ev2a_c1_elab_bulkdock_input,openbind_a71ev2a_c1_elab_chemspace_filtered_scored

>  <inchikey>  (239) 
LKKIVODBMFQDDD-UHFFFAOYSA-N

>  <scratch_subdir>  (239) 
/opt/xchem-fragalysis-2/maxwin/BulkDock/SCRATCH/601501/LKKIVODBMFQDDD-UHFFFAOYSA-N-P15-P15-P308-601501

>  <smina_score_min>  (239) 
-5.5

>  <energy_score>  (239) 
-23.875842

>  <Energy>  (239) 
121.964714

>  <fragmenstein_outcome>  (239) 
too moved

>  <alias>  (239) 
LKKIVODBMFQDDD-UHFFFAOYSA-N-P15-P15-P308-601501

>  <HIPPO Pose ID>  (239) 
501832

>  <exports>  (239) 
['/opt/xchem-fragalysis-2/maxwin/openbind-hippo/a71ev2a/cycle_01/bulkdock/openbind_a71ev2a_c1_elab_chemspace.sdf', '/opt/xchem-fragalysis-2/maxwin/openbind-hippo/a71ev2a/cycle_01/syndirella/elabs/openbind_a71ev2a_c1_elab_chemspace_filtered.sdf']

>  <HIPPO Compound ID>  (239) 
292630

>  <gnina_score>  (239) 
5.303

$$$$
GIUBGVXWNQJBDM-UHFFFAOYSA-N-P308-P15-P308-601501
     RDKit          3D

 20 21  0  0  0  0  0  0  0  0999 V2000
    9.4436    8.6123   23.0541 C   0  0  0  0  0  0  0  0  0  0  0  0
    8.6315    9.5536   23.7429 O   0  0  0  0  0  0  0  0  0  0  0  0
    9.3310   10.4425   24.4860 C   0  0  0  0  0  0  0  0  0  0  0  0
   10.5366   10.4534   24.6721 O   0  0  0  0  0  0  0  0  0  0  0  0
    8.3601   11.4171   25.0251 C   0  0  0  0  0  0  0  0  0  0  0  0
    7.1579   10.9402   25.5699 C   0  0  0  0  0  0  0  0  0  0  0  0
    6.2982   11.8386   26.1846 C   0  0  0  0  0  0  0  0  0  0  0  0
    5.0921   11.4037   26.9726 C   0  0  0  0  0  0  0  0  0  0  0  0
    3.9228   12.3475   27.1546 C   0  0  0  0  0  0  0  0  0  0  0  0
    4.8453   12.0925   28.3036 C   0  0  0  0  0  0  0  0  0  0  0  0
    6.5839   13.1601   26.2023 N   0  0  0  0  0  0  0  0  0  0  0  0
    7.7316   13.5959   25.6575 C   0  0  0  0  0  0  0  0  0  0  0  0
    8.6788   12.7782   25.0671 C   0  0  0  0  0  0  0  0  0  0  0  0
    9.8788   13.3029   24.5420 N   0  0  0  0  0  0  0  0  0  0  0  0
   10.5719   14.2236   25.3725 N   0  0  0  0  0  0  0  0  0  0  0  0
    9.7454   13.6477   23.1023 C   0  0  0  0  0  0  0  0  0  0  0  0
    9.2940   15.0876   22.8769 C   0  0  0  0  0  0  0  0  0  0  0  0
    9.1602   15.3525   21.3995 C   0  0  0  0  0  0  0  0  0  0  0  0
   10.3430   15.1221   20.7801 F   0  0  0  0  0  0  0  0  0  0  0  0
    8.2571   14.4839   20.8761 F   0  0  0  0  0  0  0  0  0  0  0  0
  1  2  1  0
  2  3  1  0
  3  4  2  0
  3  5  1  0
  5  6  2  0
  6  7  1  0
  7  8  1  0
  8  9  1  0
  9 10  1  0
  7 11  2  0
 11 12  1  0
 12 13  2  0
 13 14  1  0
 14 15  1  0
 14 16  1  0
 16 17  1  0
 17 18  1  0
 18 19  1  0
 18 20  1  0
 13  5  1  0
 10  8  1  0
M  END
>  <distance_score>  (240) 
1.597944

>  <smiles>  (240) 
COC(=O)c1cc(C2CC2)ncc1N(N)CCC(F)F

>  <fragmenstein_error>  (240) 


>  <fragmenstein_runtime>  (240) 
3.847507

>  <gnina_score_min>  (240) 
4.938

>  <orig_smiles>  (240) 
COC(=O)c1cc(C2CC2)ncc1N(N)CCC(F)F

>  <fragmenstein_mode>  (240) 
expansion

>  <rmsd(smina/fragmenstein)>  (240) 
1.231

>  <inspiration_score>  (240) 
None

>  <name>  (240) 
GIUBGVXWNQJBDM-UHFFFAOYSA-N-P308-P15-P308-601501

>  <ref_pdb>  (240) 
A0528a

>  <ref_mols>  (240) 
A4331a,A0514a

>  <subsites>  (240) 
None

>  <tags>  (240) 
openbind_a71ev2a_c1_elabs_filtered,fragmenstein_placed,a71ev2a_c1_elab_bulkdock_input,openbind_a71ev2a_c1_elab_chemspace_filtered_scored

>  <inchikey>  (240) 
GIUBGVXWNQJBDM-UHFFFAOYSA-N

>  <scratch_subdir>  (240) 
/opt/xchem-fragalysis-2/maxwin/BulkDock/SCRATCH/601501/GIUBGVXWNQJBDM-UHFFFAOYSA-N-P308-P15-P308-601501

>  <smina_score_min>  (240) 
-5.596

>  <energy_score>  (240) 
-25.817402

>  <Energy>  (240) 
74.663883

>  <fragmenstein_outcome>  (240) 
too moved

>  <alias>  (240) 
GIUBGVXWNQJBDM-UHFFFAOYSA-N-P308-P15-P308-601501

>  <HIPPO Pose ID>  (240) 
501835

>  <exports>  (240) 
['/opt/xchem-fragalysis-2/maxwin/openbind-hippo/a71ev2a/cycle_01/bulkdock/openbind_a71ev2a_c1_elab_chemspace.sdf', '/opt/xchem-fragalysis-2/maxwin/openbind-hippo/a71ev2a/cycle_01/syndirella/elabs/openbind_a71ev2a_c1_elab_chemspace_filtered.sdf']

>  <HIPPO Compound ID>  (240) 
292631

>  <gnina_score>  (240) 
5.455

$$$$
SOVKJKVVSRIWIJ-UHFFFAOYSA-N-P308-P15-P308-601501
     RDKit          3D

 21 23  0  0  0  0  0  0  0  0999 V2000
    9.6201    8.8263   23.2291 C   0  0  0  0  0  0  0  0  0  0  0  0
    8.7232    9.7585   23.8287 O   0  0  0  0  0  0  0  0  0  0  0  0
    9.3075   10.7734   24.5096 C   0  0  0  0  0  0  0  0  0  0  0  0
   10.5020   10.9724   24.6538 O   0  0  0  0  0  0  0  0  0  0  0  0
    8.2148   11.6071   25.0617 C   0  0  0  0  0  0  0  0  0  0  0  0
    7.0831   10.9639   25.5961 C   0  0  0  0  0  0  0  0  0  0  0  0
    6.1010   11.7244   26.2184 C   0  0  0  0  0  0  0  0  0  0  0  0
    5.0120   11.1265   27.0670 C   0  0  0  0  0  0  0  0  0  0  0  0
    3.7953   11.9500   27.4441 C   0  0  0  0  0  0  0  0  0  0  0  0
    4.8523   11.6975   28.4678 C   0  0  0  0  0  0  0  0  0  0  0  0
    6.1712   13.0716   26.2208 N   0  0  0  0  0  0  0  0  0  0  0  0
    7.2505   13.6662   25.6977 C   0  0  0  0  0  0  0  0  0  0  0  0
    8.3307   12.9974   25.1352 C   0  0  0  0  0  0  0  0  0  0  0  0
    9.4980   13.7217   24.7610 N   0  0  0  0  0  0  0  0  0  0  0  0
   10.0616   14.3775   25.9150 N   0  0  0  0  0  0  0  0  0  0  0  0
    9.1943   14.6166   23.6043 C   0  0  2  0  0  0  0  0  0  0  0  0
    8.9046   13.8531   22.3301 C   0  0  0  0  0  0  0  0  0  0  0  0
    9.2598   14.8431   21.2309 C   0  0  0  0  0  0  0  0  0  0  0  0
    9.9975   15.9127   21.8247 O   0  0  0  0  0  0  0  0  0  0  0  0
   10.3535   15.5061   23.1545 C   0  0  2  0  0  0  0  0  0  0  0  0
   11.7218   14.8463   23.0735 C   0  0  0  0  0  0  0  0  0  0  0  0
  1  2  1  0
  2  3  1  0
  3  4  2  0
  3  5  1  0
  5  6  2  0
  6  7  1  0
  7  8  1  0
  8  9  1  0
  9 10  1  0
  7 11  2  0
 11 12  1  0
 12 13  2  0
 13 14  1  0
 14 15  1  0
 16 14  1  1
 16 17  1  0
 17 18  1  0
 18 19  1  0
 19 20  1  0
 20 21  1  6
 13  5  1  0
 20 16  1  0
 10  8  1  0
M  END
>  <distance_score>  (241) 
1.493256

>  <smiles>  (241) 
COC(=O)c1cc(C2CC2)ncc1N(N)C1CCOC1C

>  <fragmenstein_error>  (241) 


>  <fragmenstein_runtime>  (241) 
4.153767

>  <gnina_score_min>  (241) 
5.166

>  <orig_smiles>  (241) 
COC(=O)c1cc(C2CC2)ncc1N(N)C1CCOC1C

>  <fragmenstein_mode>  (241) 
expansion

>  <rmsd(smina/fragmenstein)>  (241) 
0.899

>  <inspiration_score>  (241) 
None

>  <name>  (241) 
SOVKJKVVSRIWIJ-UHFFFAOYSA-N-P308-P15-P308-601501

>  <ref_pdb>  (241) 
A0528a

>  <ref_mols>  (241) 
A4331a,A0514a

>  <subsites>  (241) 
None

>  <tags>  (241) 
openbind_a71ev2a_c1_elabs_filtered,fragmenstein_placed,a71ev2a_c1_elab_bulkdock_input,openbind_a71ev2a_c1_elab_chemspace_filtered_scored

>  <inchikey>  (241) 
SOVKJKVVSRIWIJ-UHFFFAOYSA-N

>  <scratch_subdir>  (241) 
/opt/xchem-fragalysis-2/maxwin/BulkDock/SCRATCH/601501/SOVKJKVVSRIWIJ-UHFFFAOYSA-N-P308-P15-P308-601501

>  <smina_score_min>  (241) 
-6.173

>  <energy_score>  (241) 
-32.09618

>  <Energy>  (241) 
121.242757

>  <fragmenstein_outcome>  (241) 
too moved

>  <alias>  (241) 
SOVKJKVVSRIWIJ-UHFFFAOYSA-N-P308-P15-P308-601501

>  <HIPPO Pose ID>  (241) 
501845

>  <exports>  (241) 
['/opt/xchem-fragalysis-2/maxwin/openbind-hippo/a71ev2a/cycle_01/bulkdock/openbind_a71ev2a_c1_elab_chemspace.sdf', '/opt/xchem-fragalysis-2/maxwin/openbind-hippo/a71ev2a/cycle_01/syndirella/elabs/openbind_a71ev2a_c1_elab_chemspace_filtered.sdf']

>  <HIPPO Compound ID>  (241) 
292636

>  <gnina_score>  (241) 
5.401

$$$$
OMUFBPMYWYJCPQ-UHFFFAOYSA-N-P308-P15-P308-601501
     RDKit          3D

 21 23  0  0  0  0  0  0  0  0999 V2000
    9.4502    8.5893   23.0613 C   0  0  0  0  0  0  0  0  0  0  0  0
    8.6163    9.5219   23.7375 O   0  0  0  0  0  0  0  0  0  0  0  0
    9.2983   10.4490   24.4466 C   0  0  0  0  0  0  0  0  0  0  0  0
   10.5039   10.5072   24.6250 O   0  0  0  0  0  0  0  0  0  0  0  0
    8.3085   11.4198   24.9501 C   0  0  0  0  0  0  0  0  0  0  0  0
    7.1642   10.9087   25.5847 C   0  0  0  0  0  0  0  0  0  0  0  0
    6.2345   11.7895   26.1163 C   0  0  0  0  0  0  0  0  0  0  0  0
    5.1132   11.3428   27.0156 C   0  0  0  0  0  0  0  0  0  0  0  0
    3.9168   12.2388   27.2550 C   0  0  0  0  0  0  0  0  0  0  0  0
    4.9469   12.0903   28.3283 C   0  0  0  0  0  0  0  0  0  0  0  0
    6.3765   13.1202   25.9422 N   0  0  0  0  0  0  0  0  0  0  0  0
    7.4602   13.5846   25.2978 C   0  0  0  0  0  0  0  0  0  0  0  0
    8.4937   12.7973   24.8130 C   0  0  0  0  0  0  0  0  0  0  0  0
    9.6002   13.4591   24.2657 N   0  0  0  0  0  0  0  0  0  0  0  0
   10.8896   13.1464   24.7557 N   0  0  0  0  0  0  0  0  0  0  0  0
    9.4574   13.8548   22.8450 C   0  0  0  0  0  0  0  0  0  0  0  0
   10.0662   15.2145   22.6574 C   0  0  2  0  0  0  0  0  0  0  0  0
    9.4967   16.2342   21.7116 C   0  0  0  0  0  0  0  0  0  0  0  0
   10.8412   15.6173   21.3982 C   0  0  0  0  0  0  0  0  0  0  0  0
   12.1265   16.3276   21.6891 C   0  0  0  0  0  0  0  0  0  0  0  0
   10.8741   14.8515   20.1161 C   0  0  0  0  0  0  0  0  0  0  0  0
  1  2  1  0
  2  3  1  0
  3  4  2  0
  3  5  1  0
  5  6  2  0
  6  7  1  0
  7  8  1  0
  8  9  1  0
  9 10  1  0
  7 11  2  0
 11 12  1  0
 12 13  2  0
 13 14  1  0
 14 15  1  0
 14 16  1  0
 17 16  1  6
 17 18  1  0
 18 19  1  0
 19 20  1  0
 19 21  1  0
 13  5  1  0
 19 17  1  0
 10  8  1  0
M  END
>  <distance_score>  (242) 
1.299467

>  <smiles>  (242) 
COC(=O)c1cc(C2CC2)ncc1N(N)CC1CC1(C)C

>  <fragmenstein_error>  (242) 


>  <fragmenstein_runtime>  (242) 
5.068648

>  <gnina_score_min>  (242) 
5.084

>  <orig_smiles>  (242) 
COC(=O)c1cc(C2CC2)ncc1N(N)CC1CC1(C)C

>  <fragmenstein_mode>  (242) 
expansion

>  <rmsd(smina/fragmenstein)>  (242) 
1.275

>  <inspiration_score>  (242) 
None

>  <name>  (242) 
OMUFBPMYWYJCPQ-UHFFFAOYSA-N-P308-P15-P308-601501

>  <ref_pdb>  (242) 
A0528a

>  <ref_mols>  (242) 
A4331a,A0514a

>  <subsites>  (242) 
None

>  <tags>  (242) 
openbind_a71ev2a_c1_elabs_filtered,fragmenstein_placed,a71ev2a_c1_elab_bulkdock_input,openbind_a71ev2a_c1_elab_chemspace_filtered_scored

>  <inchikey>  (242) 
OMUFBPMYWYJCPQ-UHFFFAOYSA-N

>  <scratch_subdir>  (242) 
/opt/xchem-fragalysis-2/maxwin/BulkDock/SCRATCH/601501/OMUFBPMYWYJCPQ-UHFFFAOYSA-N-P308-P15-P308-601501

>  <smina_score_min>  (242) 
-6.482

>  <energy_score>  (242) 
-25.304451

>  <Energy>  (242) 
123.989869

>  <fragmenstein_outcome>  (242) 
too moved

>  <alias>  (242) 
OMUFBPMYWYJCPQ-UHFFFAOYSA-N-P308-P15-P308-601501

>  <HIPPO Pose ID>  (242) 
501847

>  <exports>  (242) 
['/opt/xchem-fragalysis-2/maxwin/openbind-hippo/a71ev2a/cycle_01/bulkdock/openbind_a71ev2a_c1_elab_chemspace.sdf', '/opt/xchem-fragalysis-2/maxwin/openbind-hippo/a71ev2a/cycle_01/syndirella/elabs/openbind_a71ev2a_c1_elab_chemspace_filtered.sdf']

>  <HIPPO Compound ID>  (242) 
292637

>  <gnina_score>  (242) 
5.679

$$$$
FUSKJAVSOWUFSQ-UHFFFAOYSA-N-P308-P15-P308-601501
     RDKit          3D

 21 23  0  0  0  0  0  0  0  0999 V2000
    9.3442    8.5903   23.0707 C   0  0  0  0  0  0  0  0  0  0  0  0
    8.5088    9.4864   23.7984 O   0  0  0  0  0  0  0  0  0  0  0  0
    9.1929   10.4681   24.4263 C   0  0  0  0  0  0  0  0  0  0  0  0
   10.4045   10.5915   24.4785 O   0  0  0  0  0  0  0  0  0  0  0  0
    8.2213   11.4063   25.0267 C   0  0  0  0  0  0  0  0  0  0  0  0
    7.0788   10.8652   25.6404 C   0  0  0  0  0  0  0  0  0  0  0  0
    6.1689   11.7131   26.2576 C   0  0  0  0  0  0  0  0  0  0  0  0
    4.9996   11.2146   27.0586 C   0  0  0  0  0  0  0  0  0  0  0  0
    4.8082   11.7380   28.4669 C   0  0  0  0  0  0  0  0  0  0  0  0
    3.8707   12.1759   27.3882 C   0  0  0  0  0  0  0  0  0  0  0  0
    6.3471   13.0504   26.2309 N   0  0  0  0  0  0  0  0  0  0  0  0
    7.4153   13.5501   25.5959 C   0  0  0  0  0  0  0  0  0  0  0  0
    8.4086   12.7919   24.9916 C   0  0  0  0  0  0  0  0  0  0  0  0
    9.4578   13.5119   24.3799 N   0  0  0  0  0  0  0  0  0  0  0  0
   10.7844   13.1413   24.6196 N   0  0  0  0  0  0  0  0  0  0  0  0
    9.2690   14.1150   23.1687 C   0  0  0  0  0  0  0  0  0  0  0  0
    8.1894   14.1458   22.3049 C   0  0  0  0  0  0  0  0  0  0  0  0
    8.4897   14.8802   21.1956 N   0  0  0  0  0  0  0  0  0  0  0  0
    9.6975   15.3872   21.3587 N   0  0  0  0  0  0  0  0  0  0  0  0
   10.1596   14.9606   22.5486 N   0  0  0  0  0  0  0  0  0  0  0  0
   11.3801   15.5203   23.0570 C   0  0  0  0  0  0  0  0  0  0  0  0
  1  2  1  0
  2  3  1  0
  3  4  2  0
  3  5  1  0
  5  6  2  0
  6  7  1  0
  7  8  1  0
  8  9  1  0
  9 10  1  0
  7 11  2  0
 11 12  1  0
 12 13  2  0
 13 14  1  0
 14 15  1  0
 14 16  1  0
 16 17  2  0
 17 18  1  0
 18 19  2  0
 19 20  1  0
 20 21  1  0
 13  5  1  0
 20 16  1  0
 10  8  1  0
M  END
>  <distance_score>  (243) 
1.548877

>  <smiles>  (243) 
COC(=O)c1cc(C2CC2)ncc1N(N)c1cnnn1C

>  <fragmenstein_error>  (243) 


>  <fragmenstein_runtime>  (243) 
4.150949

>  <gnina_score_min>  (243) 
5.092

>  <orig_smiles>  (243) 
COC(=O)c1cc(C2CC2)ncc1N(N)c1cnnn1C

>  <fragmenstein_mode>  (243) 
expansion

>  <rmsd(smina/fragmenstein)>  (243) 
1.038

>  <inspiration_score>  (243) 
None

>  <name>  (243) 
FUSKJAVSOWUFSQ-UHFFFAOYSA-N-P308-P15-P308-601501

>  <ref_pdb>  (243) 
A0528a

>  <ref_mols>  (243) 
A4331a,A0514a

>  <subsites>  (243) 
None

>  <tags>  (243) 
openbind_a71ev2a_c1_elabs_filtered,fragmenstein_placed,a71ev2a_c1_elab_bulkdock_input,openbind_a71ev2a_c1_elab_chemspace_filtered_scored

>  <inchikey>  (243) 
FUSKJAVSOWUFSQ-UHFFFAOYSA-N

>  <scratch_subdir>  (243) 
/opt/xchem-fragalysis-2/maxwin/BulkDock/SCRATCH/601501/FUSKJAVSOWUFSQ-UHFFFAOYSA-N-P308-P15-P308-601501

>  <smina_score_min>  (243) 
-6.058

>  <energy_score>  (243) 
-38.406126

>  <Energy>  (243) 
70.389434

>  <fragmenstein_outcome>  (243) 
too moved

>  <alias>  (243) 
FUSKJAVSOWUFSQ-UHFFFAOYSA-N-P308-P15-P308-601501

>  <HIPPO Pose ID>  (243) 
501849

>  <exports>  (243) 
['/opt/xchem-fragalysis-2/maxwin/openbind-hippo/a71ev2a/cycle_01/bulkdock/openbind_a71ev2a_c1_elab_chemspace.sdf', '/opt/xchem-fragalysis-2/maxwin/openbind-hippo/a71ev2a/cycle_01/syndirella/elabs/openbind_a71ev2a_c1_elab_chemspace_filtered.sdf']

>  <HIPPO Compound ID>  (243) 
292638

>  <gnina_score>  (243) 
5.437

$$$$
XOJNCIHWOGBMKH-UHFFFAOYSA-N-P308-P15-P308-601501
     RDKit          3D

 21 23  0  0  0  0  0  0  0  0999 V2000
    9.5085    8.3685   23.4690 C   0  0  0  0  0  0  0  0  0  0  0  0
    8.7274    9.2017   24.3167 O   0  0  0  0  0  0  0  0  0  0  0  0
    8.7415   10.4796   23.8794 C   0  0  0  0  0  0  0  0  0  0  0  0
    9.2944   10.8679   22.8626 O   0  0  0  0  0  0  0  0  0  0  0  0
    8.0114   11.3683   24.8005 C   0  0  0  0  0  0  0  0  0  0  0  0
    6.9068   10.8666   25.5028 C   0  0  0  0  0  0  0  0  0  0  0  0
    6.1560   11.7347   26.2836 C   0  0  0  0  0  0  0  0  0  0  0  0
    5.0167   11.2750   27.1516 C   0  0  0  0  0  0  0  0  0  0  0  0
    3.8216   12.1798   27.3623 C   0  0  0  0  0  0  0  0  0  0  0  0
    4.8027   11.9886   28.4749 C   0  0  0  0  0  0  0  0  0  0  0  0
    6.4589   13.0520   26.3443 N   0  0  0  0  0  0  0  0  0  0  0  0
    7.5235   13.5067   25.6672 C   0  0  0  0  0  0  0  0  0  0  0  0
    8.3646   12.7199   24.8994 C   0  0  0  0  0  0  0  0  0  0  0  0
    9.4780   13.3579   24.3113 N   0  0  0  0  0  0  0  0  0  0  0  0
   10.7207   12.6421   24.3732 N   0  0  0  0  0  0  0  0  0  0  0  0
    9.1306   13.9284   22.9853 C   0  0  0  0  0  0  0  0  0  0  0  0
    9.5787   15.3917   22.8551 C   0  0  2  0  0  0  0  0  0  0  0  0
    9.9761   15.6839   21.4157 C   0  0  0  0  0  0  0  0  0  0  0  0
   11.4267   15.2123   21.3576 C   0  0  0  0  0  0  0  0  0  0  0  0
   11.9029   15.1340   22.7206 O   0  0  0  0  0  0  0  0  0  0  0  0
   10.8883   15.7190   23.5427 C   0  0  0  0  0  0  0  0  0  0  0  0
  1  2  1  0
  2  3  1  0
  3  4  2  0
  3  5  1  0
  5  6  2  0
  6  7  1  0
  7  8  1  0
  8  9  1  0
  9 10  1  0
  7 11  2  0
 11 12  1  0
 12 13  2  0
 13 14  1  0
 14 15  1  0
 14 16  1  0
 17 16  1  6
 17 18  1  0
 18 19  1  0
 19 20  1  0
 20 21  1  0
 13  5  1  0
 21 17  1  0
 10  8  1  0
M  END
>  <distance_score>  (244) 
1.254181

>  <smiles>  (244) 
COC(=O)c1cc(C2CC2)ncc1N(N)CC1CCOC1

>  <fragmenstein_error>  (244) 


>  <fragmenstein_runtime>  (244) 
3.731516

>  <gnina_score_min>  (244) 
5.112

>  <orig_smiles>  (244) 
COC(=O)c1cc(C2CC2)ncc1N(N)CC1CCOC1

>  <fragmenstein_mode>  (244) 
expansion

>  <rmsd(smina/fragmenstein)>  (244) 
1.352

>  <inspiration_score>  (244) 
None

>  <name>  (244) 
XOJNCIHWOGBMKH-UHFFFAOYSA-N-P308-P15-P308-601501

>  <ref_pdb>  (244) 
A0528a

>  <ref_mols>  (244) 
A4331a,A0514a

>  <subsites>  (244) 
None

>  <tags>  (244) 
openbind_a71ev2a_c1_elabs_filtered,fragmenstein_placed,a71ev2a_c1_elab_bulkdock_input,openbind_a71ev2a_c1_elab_chemspace_filtered_scored

>  <inchikey>  (244) 
XOJNCIHWOGBMKH-UHFFFAOYSA-N

>  <scratch_subdir>  (244) 
/opt/xchem-fragalysis-2/maxwin/BulkDock/SCRATCH/601501/XOJNCIHWOGBMKH-UHFFFAOYSA-N-P308-P15-P308-601501

>  <smina_score_min>  (244) 
-6.014

>  <energy_score>  (244) 
-44.342568

>  <Energy>  (244) 
98.608945

>  <fragmenstein_outcome>  (244) 
too moved

>  <alias>  (244) 
XOJNCIHWOGBMKH-UHFFFAOYSA-N-P308-P15-P308-601501

>  <HIPPO Pose ID>  (244) 
501859

>  <exports>  (244) 
['/opt/xchem-fragalysis-2/maxwin/openbind-hippo/a71ev2a/cycle_01/bulkdock/openbind_a71ev2a_c1_elab_chemspace.sdf', '/opt/xchem-fragalysis-2/maxwin/openbind-hippo/a71ev2a/cycle_01/syndirella/elabs/openbind_a71ev2a_c1_elab_chemspace_filtered.sdf']

>  <HIPPO Compound ID>  (244) 
292643

>  <gnina_score>  (244) 
5.244

$$$$
TVWYFCKSLCGQKH-UHFFFAOYSA-N-P308-P15-P308-601501
     RDKit          3D

 21 23  0  0  0  0  0  0  0  0999 V2000
    9.5971    8.5858   23.5119 C   0  0  0  0  0  0  0  0  0  0  0  0
    8.7929    9.3949   24.3685 O   0  0  0  0  0  0  0  0  0  0  0  0
    8.7749   10.6960   23.9919 C   0  0  0  0  0  0  0  0  0  0  0  0
    9.3551   11.1632   23.0288 O   0  0  0  0  0  0  0  0  0  0  0  0
    7.9316   11.4822   24.9138 C   0  0  0  0  0  0  0  0  0  0  0  0
    6.8333   10.8832   25.5455 C   0  0  0  0  0  0  0  0  0  0  0  0
    6.0269   11.6609   26.3669 C   0  0  0  0  0  0  0  0  0  0  0  0
    4.9212   11.0939   27.2130 C   0  0  0  0  0  0  0  0  0  0  0  0
    3.7074   11.9438   27.5292 C   0  0  0  0  0  0  0  0  0  0  0  0
    4.7235   11.6910   28.5959 C   0  0  0  0  0  0  0  0  0  0  0  0
    6.2554   12.9849   26.5151 N   0  0  0  0  0  0  0  0  0  0  0  0
    7.3146   13.5359   25.9108 C   0  0  0  0  0  0  0  0  0  0  0  0
    8.2203   12.8329   25.1342 C   0  0  0  0  0  0  0  0  0  0  0  0
    9.3898   13.4732   24.6405 N   0  0  0  0  0  0  0  0  0  0  0  0
   10.1147   14.1547   25.6717 N   0  0  0  0  0  0  0  0  0  0  0  0
    8.9872   14.3032   23.4686 C   0  0  0  0  0  0  0  0  0  0  0  0
   10.1445   14.4898   22.4952 C   0  0  0  0  0  0  0  0  0  0  0  0
   11.2827   15.3903   22.9796 C   0  0  0  0  0  0  0  0  0  0  0  0
   11.8560   16.0453   21.7251 C   0  0  0  0  0  0  0  0  0  0  0  0
   10.9959   15.5679   20.5617 C   0  0  0  0  0  0  0  0  0  0  0  0
    9.6842   15.1843   21.2176 C   0  0  0  0  0  0  0  0  0  0  0  0
  1  2  1  0
  2  3  1  0
  3  4  2  0
  3  5  1  0
  5  6  2  0
  6  7  1  0
  7  8  1  0
  8  9  1  0
  9 10  1  0
  7 11  2  0
 11 12  1  0
 12 13  2  0
 13 14  1  0
 14 15  1  0
 14 16  1  0
 16 17  1  0
 17 18  1  0
 18 19  1  0
 19 20  1  0
 20 21  1  0
 13  5  1  0
 21 17  1  0
 10  8  1  0
M  END
>  <distance_score>  (245) 
1.761265

>  <smiles>  (245) 
COC(=O)c1cc(C2CC2)ncc1N(N)CC1CCCC1

>  <fragmenstein_error>  (245) 


>  <fragmenstein_runtime>  (245) 
3.736772

>  <gnina_score_min>  (245) 
5.147

>  <orig_smiles>  (245) 
COC(=O)c1cc(C2CC2)ncc1N(N)CC1CCCC1

>  <fragmenstein_mode>  (245) 
expansion

>  <rmsd(smina/fragmenstein)>  (245) 
1.186

>  <inspiration_score>  (245) 
None

>  <name>  (245) 
TVWYFCKSLCGQKH-UHFFFAOYSA-N-P308-P15-P308-601501

>  <ref_pdb>  (245) 
A0528a

>  <ref_mols>  (245) 
A4331a,A0514a

>  <subsites>  (245) 
None

>  <tags>  (245) 
openbind_a71ev2a_c1_elabs_filtered,fragmenstein_placed,a71ev2a_c1_elab_bulkdock_input,openbind_a71ev2a_c1_elab_chemspace_filtered_scored

>  <inchikey>  (245) 
TVWYFCKSLCGQKH-UHFFFAOYSA-N

>  <scratch_subdir>  (245) 
/opt/xchem-fragalysis-2/maxwin/BulkDock/SCRATCH/601501/TVWYFCKSLCGQKH-UHFFFAOYSA-N-P308-P15-P308-601501

>  <smina_score_min>  (245) 
-6.096

>  <energy_score>  (245) 
-30.709613

>  <Energy>  (245) 
97.766205

>  <fragmenstein_outcome>  (245) 
too moved

>  <alias>  (245) 
TVWYFCKSLCGQKH-UHFFFAOYSA-N-P308-P15-P308-601501

>  <HIPPO Pose ID>  (245) 
501861

>  <exports>  (245) 
['/opt/xchem-fragalysis-2/maxwin/openbind-hippo/a71ev2a/cycle_01/bulkdock/openbind_a71ev2a_c1_elab_chemspace.sdf', '/opt/xchem-fragalysis-2/maxwin/openbind-hippo/a71ev2a/cycle_01/syndirella/elabs/openbind_a71ev2a_c1_elab_chemspace_filtered.sdf']

>  <HIPPO Compound ID>  (245) 
292644

>  <gnina_score>  (245) 
5.478

$$$$
MBGHLLKVLHPVKS-UHFFFAOYSA-N-P308-P15-P308-601501
     RDKit          3D

 21 23  0  0  0  0  0  0  0  0999 V2000
    9.3441    8.5036   23.0224 C   0  0  0  0  0  0  0  0  0  0  0  0
    8.5356    9.4095   23.7603 O   0  0  0  0  0  0  0  0  0  0  0  0
    9.2563   10.2792   24.5074 C   0  0  0  0  0  0  0  0  0  0  0  0
   10.4633   10.2610   24.6817 O   0  0  0  0  0  0  0  0  0  0  0  0
    8.3037   11.2767   25.0382 C   0  0  0  0  0  0  0  0  0  0  0  0
    7.1000   10.8425   25.6067 C   0  0  0  0  0  0  0  0  0  0  0  0
    6.2629   11.7811   26.1934 C   0  0  0  0  0  0  0  0  0  0  0  0
    5.0588   11.3959   27.0100 C   0  0  0  0  0  0  0  0  0  0  0  0
    3.9017   12.3595   27.1601 C   0  0  0  0  0  0  0  0  0  0  0  0
    4.8316   12.1445   28.3119 C   0  0  0  0  0  0  0  0  0  0  0  0
    6.5674   13.0986   26.1551 N   0  0  0  0  0  0  0  0  0  0  0  0
    7.7182   13.4918   25.5838 C   0  0  0  0  0  0  0  0  0  0  0  0
    8.6383   12.6313   25.0172 C   0  0  0  0  0  0  0  0  0  0  0  0
    9.8186   13.1008   24.4377 N   0  0  0  0  0  0  0  0  0  0  0  0
   10.7287   13.7419   25.3115 N   0  0  0  0  0  0  0  0  0  0  0  0
    9.6753   13.5526   23.0320 C   0  0  0  0  0  0  0  0  0  0  0  0
    9.6284   15.0857   22.8752 C   0  0  2  0  0  0  0  0  0  0  0  0
    9.4516   15.5057   21.4253 C   0  0  0  0  0  0  0  0  0  0  0  0
   10.8677   15.4994   20.9074 C   0  0  0  0  0  0  0  0  0  0  0  0
   11.6520   15.9815   22.1090 C   0  0  0  0  0  0  0  0  0  0  0  0
   10.8967   15.6500   23.2877 O   0  0  0  0  0  0  0  0  0  0  0  0
  1  2  1  0
  2  3  1  0
  3  4  2  0
  3  5  1  0
  5  6  2  0
  6  7  1  0
  7  8  1  0
  8  9  1  0
  9 10  1  0
  7 11  2  0
 11 12  1  0
 12 13  2  0
 13 14  1  0
 14 15  1  0
 14 16  1  0
 17 16  1  6
 17 18  1  0
 18 19  1  0
 19 20  1  0
 20 21  1  0
 13  5  1  0
 21 17  1  0
 10  8  1  0
M  END
>  <distance_score>  (246) 
1.329849

>  <smiles>  (246) 
COC(=O)c1cc(C2CC2)ncc1N(N)CC1CCCO1

>  <fragmenstein_error>  (246) 


>  <fragmenstein_runtime>  (246) 
3.918264

>  <gnina_score_min>  (246) 
4.99

>  <orig_smiles>  (246) 
COC(=O)c1cc(C2CC2)ncc1N(N)CC1CCCO1

>  <fragmenstein_mode>  (246) 
expansion

>  <rmsd(smina/fragmenstein)>  (246) 
1.32

>  <inspiration_score>  (246) 
None

>  <name>  (246) 
MBGHLLKVLHPVKS-UHFFFAOYSA-N-P308-P15-P308-601501

>  <ref_pdb>  (246) 
A0528a

>  <ref_mols>  (246) 
A4331a,A0514a

>  <subsites>  (246) 
None

>  <tags>  (246) 
openbind_a71ev2a_c1_elabs_filtered,fragmenstein_placed,a71ev2a_c1_elab_bulkdock_input,openbind_a71ev2a_c1_elab_chemspace_filtered_scored

>  <inchikey>  (246) 
MBGHLLKVLHPVKS-UHFFFAOYSA-N

>  <scratch_subdir>  (246) 
/opt/xchem-fragalysis-2/maxwin/BulkDock/SCRATCH/601501/MBGHLLKVLHPVKS-UHFFFAOYSA-N-P308-P15-P308-601501

>  <smina_score_min>  (246) 
-6.33

>  <energy_score>  (246) 
-44.652784

>  <Energy>  (246) 
124.585182

>  <fragmenstein_outcome>  (246) 
too moved

>  <alias>  (246) 
MBGHLLKVLHPVKS-UHFFFAOYSA-N-P308-P15-P308-601501

>  <HIPPO Pose ID>  (246) 
501863

>  <exports>  (246) 
['/opt/xchem-fragalysis-2/maxwin/openbind-hippo/a71ev2a/cycle_01/bulkdock/openbind_a71ev2a_c1_elab_chemspace.sdf', '/opt/xchem-fragalysis-2/maxwin/openbind-hippo/a71ev2a/cycle_01/syndirella/elabs/openbind_a71ev2a_c1_elab_chemspace_filtered.sdf']

>  <HIPPO Compound ID>  (246) 
292645

>  <gnina_score>  (246) 
5.396

$$$$
DYFVMUMPTGMQNZ-UHFFFAOYSA-N-P308-P15-P308-601501
     RDKit          3D

 21 22  0  0  0  0  0  0  0  0999 V2000
    9.2447    8.6311   23.1367 C   0  0  0  0  0  0  0  0  0  0  0  0
    8.4559    9.5729   23.8622 O   0  0  0  0  0  0  0  0  0  0  0  0
    9.1896   10.4521   24.5824 C   0  0  0  0  0  0  0  0  0  0  0  0
   10.4029   10.4265   24.7270 O   0  0  0  0  0  0  0  0  0  0  0  0
    8.2837   11.4822   25.1468 C   0  0  0  0  0  0  0  0  0  0  0  0
    7.0196   11.0958   25.6291 C   0  0  0  0  0  0  0  0  0  0  0  0
    6.1810   12.0668   26.1654 C   0  0  0  0  0  0  0  0  0  0  0  0
    4.8073   11.8291   26.6956 C   0  0  0  0  0  0  0  0  0  0  0  0
    4.4704   10.9064   27.8296 C   0  0  0  0  0  0  0  0  0  0  0  0
    4.5248   12.3801   28.0833 C   0  0  0  0  0  0  0  0  0  0  0  0
    6.5576   13.3593   26.2266 N   0  0  0  0  0  0  0  0  0  0  0  0
    7.7462   13.7124   25.7333 C   0  0  0  0  0  0  0  0  0  0  0  0
    8.6652   12.8302   25.1885 C   0  0  0  0  0  0  0  0  0  0  0  0
    9.8225   13.4141   24.6445 N   0  0  0  0  0  0  0  0  0  0  0  0
   11.0812   12.9981   25.1120 N   0  0  0  0  0  0  0  0  0  0  0  0
    9.6699   13.6849   23.2038 C   0  0  0  0  0  0  0  0  0  0  0  0
    9.9572   15.1478   22.9375 C   0  0  0  0  0  0  0  0  0  0  0  0
    9.8091   15.4516   21.1998 S   0  0  0  0  0  0  0  0  0  0  0  0
   11.1163   14.6091   20.6054 N   0  0  0  0  0  0  0  0  0  0  0  0
    8.6177   14.7829   20.7335 O   0  0  0  0  0  0  0  0  0  0  0  0
   10.0826   16.8383   20.9133 O   0  0  0  0  0  0  0  0  0  0  0  0
  1  2  1  0
  2  3  1  0
  3  4  2  0
  3  5  1  0
  5  6  2  0
  6  7  1  0
  7  8  1  0
  8  9  1  0
  9 10  1  0
  7 11  2  0
 11 12  1  0
 12 13  2  0
 13 14  1  0
 14 15  1  0
 14 16  1  0
 16 17  1  0
 17 18  1  0
 18 19  1  0
 18 20  2  0
 18 21  2  0
 13  5  1  0
 10  8  1  0
M  END
>  <distance_score>  (247) 
1.62877

>  <smiles>  (247) 
COC(=O)c1cc(C2CC2)ncc1N(N)CCS(N)(=O)=O

>  <fragmenstein_error>  (247) 


>  <fragmenstein_runtime>  (247) 
2.95105

>  <gnina_score_min>  (247) 
5.06

>  <orig_smiles>  (247) 
COC(=O)c1cc(C2CC2)ncc1N(N)CCS(N)(=O)=O

>  <fragmenstein_mode>  (247) 
expansion

>  <rmsd(smina/fragmenstein)>  (247) 
1.6

>  <inspiration_score>  (247) 
None

>  <name>  (247) 
DYFVMUMPTGMQNZ-UHFFFAOYSA-N-P308-P15-P308-601501

>  <ref_pdb>  (247) 
A0528a

>  <ref_mols>  (247) 
A4331a,A0514a

>  <subsites>  (247) 
None

>  <tags>  (247) 
openbind_a71ev2a_c1_elabs_filtered,fragmenstein_placed,a71ev2a_c1_elab_bulkdock_input,openbind_a71ev2a_c1_elab_chemspace_filtered_scored

>  <inchikey>  (247) 
DYFVMUMPTGMQNZ-UHFFFAOYSA-N

>  <scratch_subdir>  (247) 
/opt/xchem-fragalysis-2/maxwin/BulkDock/SCRATCH/601501/DYFVMUMPTGMQNZ-UHFFFAOYSA-N-P308-P15-P308-601501

>  <smina_score_min>  (247) 
-6.164

>  <energy_score>  (247) 
-61.802301

>  <Energy>  (247) 
-17.138424

>  <fragmenstein_outcome>  (247) 
too moved

>  <alias>  (247) 
DYFVMUMPTGMQNZ-UHFFFAOYSA-N-P308-P15-P308-601501

>  <HIPPO Pose ID>  (247) 
501869

>  <exports>  (247) 
['/opt/xchem-fragalysis-2/maxwin/openbind-hippo/a71ev2a/cycle_01/bulkdock/openbind_a71ev2a_c1_elab_chemspace.sdf', '/opt/xchem-fragalysis-2/maxwin/openbind-hippo/a71ev2a/cycle_01/syndirella/elabs/openbind_a71ev2a_c1_elab_chemspace_filtered.sdf']

>  <HIPPO Compound ID>  (247) 
292648

>  <gnina_score>  (247) 
5.497

$$$$
GNBFRSDSSGPXFU-UHFFFAOYSA-N-P308-P15-P308-601501
     RDKit          3D

 21 23  0  0  0  0  0  0  0  0999 V2000
    9.5912    8.5488   23.1313 C   0  0  0  0  0  0  0  0  0  0  0  0
    8.7073    9.4026   23.8402 O   0  0  0  0  0  0  0  0  0  0  0  0
    9.3250   10.4147   24.4822 C   0  0  0  0  0  0  0  0  0  0  0  0
   10.5188   10.5881   24.6682 O   0  0  0  0  0  0  0  0  0  0  0  0
    8.2692   11.3481   24.9000 C   0  0  0  0  0  0  0  0  0  0  0  0
    7.1457   10.8583   25.5748 C   0  0  0  0  0  0  0  0  0  0  0  0
    6.2188   11.7636   26.0673 C   0  0  0  0  0  0  0  0  0  0  0  0
    5.1199   11.3597   27.0133 C   0  0  0  0  0  0  0  0  0  0  0  0
    3.9315   12.2674   27.2452 C   0  0  0  0  0  0  0  0  0  0  0  0
    4.9869   12.1589   28.2989 C   0  0  0  0  0  0  0  0  0  0  0  0
    6.3501   13.0863   25.8161 N   0  0  0  0  0  0  0  0  0  0  0  0
    7.3929   13.5190   25.0885 C   0  0  0  0  0  0  0  0  0  0  0  0
    8.4104   12.7049   24.6255 C   0  0  0  0  0  0  0  0  0  0  0  0
    9.5942   13.2510   24.0904 N   0  0  0  0  0  0  0  0  0  0  0  0
    9.5155   14.1683   23.0706 C   0  0  0  0  0  0  0  0  0  0  0  0
    9.1569   13.9403   21.8444 N   0  0  0  0  0  0  0  0  0  0  0  0
    9.2445   15.1359   21.1708 N   0  0  0  0  0  0  0  0  0  0  0  0
   10.3616   15.2822   20.2181 C   0  0  0  0  0  0  0  0  0  0  0  0
    9.2426   16.2466   22.1324 C   0  0  1  0  0  0  0  0  0  0  0  0
    7.7919   16.6223   22.4555 C   0  0  0  0  0  0  0  0  0  0  0  0
    9.9235   15.5922   23.3216 C   0  0  0  0  0  0  0  0  0  0  0  0
  1  2  1  0
  2  3  1  0
  3  4  2  0
  3  5  1  0
  5  6  2  0
  6  7  1  0
  7  8  1  0
  8  9  1  0
  9 10  1  0
  7 11  2  0
 11 12  1  0
 12 13  2  0
 13 14  1  0
 14 15  1  0
 15 16  2  0
 16 17  1  0
 17 18  1  0
 17 19  1  0
 19 20  1  1
 19 21  1  0
 13  5  1  0
 21 15  1  0
 10  8  1  0
M  END
>  <distance_score>  (248) 
1.652962

>  <smiles>  (248) 
COC(=O)c1cc(C2CC2)ncc1NC1=NN(C)C(C)C1

>  <fragmenstein_error>  (248) 


>  <fragmenstein_runtime>  (248) 
3.980057

>  <gnina_score_min>  (248) 
5.356

>  <orig_smiles>  (248) 
COC(=O)c1cc(C2CC2)ncc1NC1=NN(C)C(C)C1

>  <fragmenstein_mode>  (248) 
expansion

>  <rmsd(smina/fragmenstein)>  (248) 
1.514

>  <inspiration_score>  (248) 
None

>  <name>  (248) 
GNBFRSDSSGPXFU-UHFFFAOYSA-N-P308-P15-P308-601501

>  <ref_pdb>  (248) 
A0528a

>  <ref_mols>  (248) 
A4331a,A0514a

>  <subsites>  (248) 
None

>  <tags>  (248) 
openbind_a71ev2a_c1_elabs_filtered,fragmenstein_placed,a71ev2a_c1_elab_bulkdock_input,openbind_a71ev2a_c1_elab_chemspace_filtered_scored

>  <inchikey>  (248) 
GNBFRSDSSGPXFU-UHFFFAOYSA-N

>  <scratch_subdir>  (248) 
/opt/xchem-fragalysis-2/maxwin/BulkDock/SCRATCH/601501/GNBFRSDSSGPXFU-UHFFFAOYSA-N-P308-P15-P308-601501

>  <smina_score_min>  (248) 
-5.597

>  <energy_score>  (248) 
-26.028961

>  <Energy>  (248) 
65.609456

>  <fragmenstein_outcome>  (248) 
too moved

>  <alias>  (248) 
GNBFRSDSSGPXFU-UHFFFAOYSA-N-P308-P15-P308-601501

>  <HIPPO Pose ID>  (248) 
501877

>  <exports>  (248) 
['/opt/xchem-fragalysis-2/maxwin/openbind-hippo/a71ev2a/cycle_01/bulkdock/openbind_a71ev2a_c1_elab_chemspace.sdf', '/opt/xchem-fragalysis-2/maxwin/openbind-hippo/a71ev2a/cycle_01/syndirella/elabs/openbind_a71ev2a_c1_elab_chemspace_filtered.sdf']

>  <HIPPO Compound ID>  (248) 
292652

>  <gnina_score>  (248) 
5.385

$$$$
DPYYHQKIKOWDIW-UHFFFAOYSA-N-P308-P15-P308-601501
     RDKit          3D

 21 22  0  0  0  0  0  0  0  0999 V2000
    9.5804    8.5052   23.5098 C   0  0  0  0  0  0  0  0  0  0  0  0
    8.7287    9.2546   24.3722 O   0  0  0  0  0  0  0  0  0  0  0  0
    8.6204   10.5453   23.9798 C   0  0  0  0  0  0  0  0  0  0  0  0
    9.1174   11.0288   22.9751 O   0  0  0  0  0  0  0  0  0  0  0  0
    7.7931   11.3106   24.9305 C   0  0  0  0  0  0  0  0  0  0  0  0
    6.7117   10.7234   25.5904 C   0  0  0  0  0  0  0  0  0  0  0  0
    5.9292   11.5217   26.4173 C   0  0  0  0  0  0  0  0  0  0  0  0
    4.8407   10.9767   27.2986 C   0  0  0  0  0  0  0  0  0  0  0  0
    3.6389   11.8394   27.6263 C   0  0  0  0  0  0  0  0  0  0  0  0
    4.6770   11.5993   28.6748 C   0  0  0  0  0  0  0  0  0  0  0  0
    6.1654   12.8488   26.5420 N   0  0  0  0  0  0  0  0  0  0  0  0
    7.2174   13.3826   25.9157 C   0  0  0  0  0  0  0  0  0  0  0  0
    8.0900   12.6602   25.1254 C   0  0  0  0  0  0  0  0  0  0  0  0
    9.2495   13.2547   24.5955 N   0  0  0  0  0  0  0  0  0  0  0  0
   10.2005   13.5768   25.6060 N   0  0  0  0  0  0  0  0  0  0  0  0
    8.8946   14.2708   23.5810 C   0  0  0  0  0  0  0  0  0  0  0  0
    9.9727   14.4186   22.5361 C   0  0  0  0  0  0  0  0  0  0  0  0
   11.4335   15.1598   23.2135 S   0  0  0  0  0  0  0  0  0  0  0  0
   12.1946   15.8487   21.7776 C   0  0  0  0  0  0  0  0  0  0  0  0
   11.0334   16.2475   24.0887 O   0  0  0  0  0  0  0  0  0  0  0  0
   12.2991   14.1133   23.7361 O   0  0  0  0  0  0  0  0  0  0  0  0
  1  2  1  0
  2  3  1  0
  3  4  2  0
  3  5  1  0
  5  6  2  0
  6  7  1  0
  7  8  1  0
  8  9  1  0
  9 10  1  0
  7 11  2  0
 11 12  1  0
 12 13  2  0
 13 14  1  0
 14 15  1  0
 14 16  1  0
 16 17  1  0
 17 18  1  0
 18 19  1  0
 18 20  2  0
 18 21  2  0
 13  5  1  0
 10  8  1  0
M  END
>  <distance_score>  (249) 
1.594614

>  <smiles>  (249) 
COC(=O)c1cc(C2CC2)ncc1N(N)CCS(C)(=O)=O

>  <fragmenstein_error>  (249) 


>  <fragmenstein_runtime>  (249) 
4.124624

>  <gnina_score_min>  (249) 
4.835

>  <orig_smiles>  (249) 
COC(=O)c1cc(C2CC2)ncc1N(N)CCS(C)(=O)=O

>  <fragmenstein_mode>  (249) 
expansion

>  <rmsd(smina/fragmenstein)>  (249) 
1.619

>  <inspiration_score>  (249) 
None

>  <name>  (249) 
DPYYHQKIKOWDIW-UHFFFAOYSA-N-P308-P15-P308-601501

>  <ref_pdb>  (249) 
A0528a

>  <ref_mols>  (249) 
A4331a,A0514a

>  <subsites>  (249) 
None

>  <tags>  (249) 
openbind_a71ev2a_c1_elabs_filtered,fragmenstein_placed,a71ev2a_c1_elab_bulkdock_input,openbind_a71ev2a_c1_elab_chemspace_filtered_scored

>  <inchikey>  (249) 
DPYYHQKIKOWDIW-UHFFFAOYSA-N

>  <scratch_subdir>  (249) 
/opt/xchem-fragalysis-2/maxwin/BulkDock/SCRATCH/601501/DPYYHQKIKOWDIW-UHFFFAOYSA-N-P308-P15-P308-601501

>  <smina_score_min>  (249) 
-6.415

>  <energy_score>  (249) 
-49.802738

>  <Energy>  (249) 
75.851755

>  <fragmenstein_outcome>  (249) 
too moved

>  <alias>  (249) 
DPYYHQKIKOWDIW-UHFFFAOYSA-N-P308-P15-P308-601501

>  <HIPPO Pose ID>  (249) 
501879

>  <exports>  (249) 
['/opt/xchem-fragalysis-2/maxwin/openbind-hippo/a71ev2a/cycle_01/bulkdock/openbind_a71ev2a_c1_elab_chemspace.sdf', '/opt/xchem-fragalysis-2/maxwin/openbind-hippo/a71ev2a/cycle_01/syndirella/elabs/openbind_a71ev2a_c1_elab_chemspace_filtered.sdf']

>  <HIPPO Compound ID>  (249) 
292653

>  <gnina_score>  (249) 
5.195

$$$$
BITIFNIBDBDQTC-UHFFFAOYSA-N-P308-P15-P308-601501
     RDKit          3D

 21 23  0  0  0  0  0  0  0  0999 V2000
    9.1702    8.6235   23.2526 C   0  0  0  0  0  0  0  0  0  0  0  0
    8.3471    9.6229   23.8522 O   0  0  0  0  0  0  0  0  0  0  0  0
    9.0542   10.5740   24.5028 C   0  0  0  0  0  0  0  0  0  0  0  0
   10.2458   10.5368   24.7647 O   0  0  0  0  0  0  0  0  0  0  0  0
    8.1443   11.7015   24.8057 C   0  0  0  0  0  0  0  0  0  0  0  0
    6.9089   11.4488   25.4054 C   0  0  0  0  0  0  0  0  0  0  0  0
    6.0761   12.5198   25.7090 C   0  0  0  0  0  0  0  0  0  0  0  0
    4.7630   12.3806   26.4141 C   0  0  0  0  0  0  0  0  0  0  0  0
    4.5470   11.5819   27.6672 C   0  0  0  0  0  0  0  0  0  0  0  0
    4.6506   13.0725   27.7601 C   0  0  0  0  0  0  0  0  0  0  0  0
    6.4084   13.7817   25.3747 N   0  0  0  0  0  0  0  0  0  0  0  0
    7.5764   13.9894   24.7503 C   0  0  0  0  0  0  0  0  0  0  0  0
    8.5206   13.0115   24.4993 C   0  0  0  0  0  0  0  0  0  0  0  0
    9.8317   13.3815   24.1416 N   0  0  0  0  0  0  0  0  0  0  0  0
   10.7684   13.1719   25.1852 N   0  0  0  0  0  0  0  0  0  0  0  0
   10.1940   14.2948   23.1061 C   0  0  0  0  0  0  0  0  0  0  0  0
   11.4641   14.8921   23.1138 C   0  0  0  0  0  0  0  0  0  0  0  0
   11.9449   15.6893   22.1358 N   0  0  0  0  0  0  0  0  0  0  0  0
   11.1073   15.8621   21.0988 C   0  0  0  0  0  0  0  0  0  0  0  0
    9.8392   15.3084   21.0739 C   0  0  0  0  0  0  0  0  0  0  0  0
    9.3452   14.5373   22.0767 N   0  0  0  0  0  0  0  0  0  0  0  0
  1  2  1  0
  2  3  1  0
  3  4  2  0
  3  5  1  0
  5  6  2  0
  6  7  1  0
  7  8  1  0
  8  9  1  0
  9 10  1  0
  7 11  2  0
 11 12  1  0
 12 13  2  0
 13 14  1  0
 14 15  1  0
 14 16  1  0
 16 17  2  0
 17 18  1  0
 18 19  2  0
 19 20  1  0
 20 21  2  0
 13  5  1  0
 21 16  1  0
 10  8  1  0
M  END
>  <distance_score>  (250) 
1.939395

>  <smiles>  (250) 
COC(=O)c1cc(C2CC2)ncc1N(N)c1cnccn1

>  <fragmenstein_error>  (250) 


>  <fragmenstein_runtime>  (250) 
5.151164

>  <gnina_score_min>  (250) 
5.242

>  <orig_smiles>  (250) 
COC(=O)c1cc(C2CC2)ncc1N(N)c1cnccn1

>  <fragmenstein_mode>  (250) 
expansion

>  <rmsd(smina/fragmenstein)>  (250) 
1.479

>  <inspiration_score>  (250) 
None

>  <name>  (250) 
BITIFNIBDBDQTC-UHFFFAOYSA-N-P308-P15-P308-601501

>  <ref_pdb>  (250) 
A0528a

>  <ref_mols>  (250) 
A4331a,A0514a

>  <subsites>  (250) 
None

>  <tags>  (250) 
openbind_a71ev2a_c1_elabs_filtered,fragmenstein_placed,a71ev2a_c1_elab_bulkdock_input,openbind_a71ev2a_c1_elab_chemspace_filtered_scored

>  <inchikey>  (250) 
BITIFNIBDBDQTC-UHFFFAOYSA-N

>  <scratch_subdir>  (250) 
/opt/xchem-fragalysis-2/maxwin/BulkDock/SCRATCH/601501/BITIFNIBDBDQTC-UHFFFAOYSA-N-P308-P15-P308-601501

>  <smina_score_min>  (250) 
-6.266

>  <energy_score>  (250) 
-30.597749

>  <Energy>  (250) 
132.0949

>  <fragmenstein_outcome>  (250) 
too moved

>  <alias>  (250) 
BITIFNIBDBDQTC-UHFFFAOYSA-N-P308-P15-P308-601501

>  <HIPPO Pose ID>  (250) 
501881

>  <exports>  (250) 
['/opt/xchem-fragalysis-2/maxwin/openbind-hippo/a71ev2a/cycle_01/bulkdock/openbind_a71ev2a_c1_elab_chemspace.sdf', '/opt/xchem-fragalysis-2/maxwin/openbind-hippo/a71ev2a/cycle_01/syndirella/elabs/openbind_a71ev2a_c1_elab_chemspace_filtered.sdf']

>  <HIPPO Compound ID>  (250) 
292654

>  <gnina_score>  (250) 
5.409

$$$$
QMAPQXROPSIKOO-UHFFFAOYSA-N-P308-P15-P308-601501
     RDKit          3D

 21 23  0  0  0  0  0  0  0  0999 V2000
    9.2152    8.6531   23.2663 C   0  0  0  0  0  0  0  0  0  0  0  0
    8.4177    9.6677   23.8719 O   0  0  0  0  0  0  0  0  0  0  0  0
    9.1523   10.6169   24.5062 C   0  0  0  0  0  0  0  0  0  0  0  0
   10.3525   10.5635   24.7132 O   0  0  0  0  0  0  0  0  0  0  0  0
    8.2330   11.7361   24.8283 C   0  0  0  0  0  0  0  0  0  0  0  0
    6.9943   11.4708   25.4211 C   0  0  0  0  0  0  0  0  0  0  0  0
    6.1398   12.5303   25.7083 C   0  0  0  0  0  0  0  0  0  0  0  0
    4.8122   12.3748   26.3835 C   0  0  0  0  0  0  0  0  0  0  0  0
    4.5773   11.5964   27.6455 C   0  0  0  0  0  0  0  0  0  0  0  0
    4.6514   13.0898   27.7127 C   0  0  0  0  0  0  0  0  0  0  0  0
    6.4578   13.7957   25.3737 N   0  0  0  0  0  0  0  0  0  0  0  0
    7.6342   14.0160   24.7709 C   0  0  0  0  0  0  0  0  0  0  0  0
    8.5877   13.0482   24.5152 C   0  0  0  0  0  0  0  0  0  0  0  0
    9.8863   13.4152   24.1320 N   0  0  0  0  0  0  0  0  0  0  0  0
   10.7566   13.4684   25.2735 N   0  0  0  0  0  0  0  0  0  0  0  0
   10.2367   14.2875   23.0561 C   0  0  0  0  0  0  0  0  0  0  0  0
    9.3819   14.4872   22.0382 N   0  0  0  0  0  0  0  0  0  0  0  0
    9.8413   15.2242   21.0065 C   0  0  0  0  0  0  0  0  0  0  0  0
   11.0957   15.7765   20.9550 C   0  0  0  0  0  0  0  0  0  0  0  0
   11.8787   15.5613   22.0547 C   0  0  0  0  0  0  0  0  0  0  0  0
   11.4762   14.8382   23.1132 N   0  0  0  0  0  0  0  0  0  0  0  0
  1  2  1  0
  2  3  1  0
  3  4  2  0
  3  5  1  0
  5  6  2  0
  6  7  1  0
  7  8  1  0
  8  9  1  0
  9 10  1  0
  7 11  2  0
 11 12  1  0
 12 13  2  0
 13 14  1  0
 14 15  1  0
 14 16  1  0
 16 17  2  0
 17 18  1  0
 18 19  2  0
 19 20  1  0
 20 21  2  0
 13  5  1  0
 21 16  1  0
 10  8  1  0
M  END
>  <distance_score>  (251) 
1.608049

>  <smiles>  (251) 
COC(=O)c1cc(C2CC2)ncc1N(N)c1ncccn1

>  <fragmenstein_error>  (251) 


>  <fragmenstein_runtime>  (251) 
5.563114

>  <gnina_score_min>  (251) 
5.079

>  <orig_smiles>  (251) 
COC(=O)c1cc(C2CC2)ncc1N(N)c1ncccn1

>  <fragmenstein_mode>  (251) 
expansion

>  <rmsd(smina/fragmenstein)>  (251) 
1.337

>  <inspiration_score>  (251) 
None

>  <name>  (251) 
QMAPQXROPSIKOO-UHFFFAOYSA-N-P308-P15-P308-601501

>  <ref_pdb>  (251) 
A0528a

>  <ref_mols>  (251) 
A4331a,A0514a

>  <subsites>  (251) 
None

>  <tags>  (251) 
openbind_a71ev2a_c1_elabs_filtered,fragmenstein_placed,a71ev2a_c1_elab_bulkdock_input,openbind_a71ev2a_c1_elab_chemspace_filtered_scored

>  <inchikey>  (251) 
QMAPQXROPSIKOO-UHFFFAOYSA-N

>  <scratch_subdir>  (251) 
/opt/xchem-fragalysis-2/maxwin/BulkDock/SCRATCH/601501/QMAPQXROPSIKOO-UHFFFAOYSA-N-P308-P15-P308-601501

>  <smina_score_min>  (251) 
-6.192

>  <energy_score>  (251) 
-48.859254

>  <Energy>  (251) 
62.820467

>  <fragmenstein_outcome>  (251) 
too moved

>  <alias>  (251) 
QMAPQXROPSIKOO-UHFFFAOYSA-N-P308-P15-P308-601501

>  <HIPPO Pose ID>  (251) 
501883

>  <exports>  (251) 
['/opt/xchem-fragalysis-2/maxwin/openbind-hippo/a71ev2a/cycle_01/bulkdock/openbind_a71ev2a_c1_elab_chemspace.sdf', '/opt/xchem-fragalysis-2/maxwin/openbind-hippo/a71ev2a/cycle_01/syndirella/elabs/openbind_a71ev2a_c1_elab_chemspace_filtered.sdf']

>  <HIPPO Compound ID>  (251) 
292655

>  <gnina_score>  (251) 
5.413

$$$$
ULYRXWBJWDLZON-UHFFFAOYSA-N-P308-P15-P308-601501
     RDKit          3D

 21 23  0  0  0  0  0  0  0  0999 V2000
    9.3836    8.4829   23.0319 C   0  0  0  0  0  0  0  0  0  0  0  0
    8.5626    9.3944   23.7468 O   0  0  0  0  0  0  0  0  0  0  0  0
    9.2632   10.3058   24.4528 C   0  0  0  0  0  0  0  0  0  0  0  0
   10.4684   10.3390   24.6443 O   0  0  0  0  0  0  0  0  0  0  0  0
    8.3009   11.3235   24.9109 C   0  0  0  0  0  0  0  0  0  0  0  0
    7.1294   10.8916   25.5437 C   0  0  0  0  0  0  0  0  0  0  0  0
    6.2416   11.8413   26.0218 C   0  0  0  0  0  0  0  0  0  0  0  0
    5.1043   11.4804   26.9392 C   0  0  0  0  0  0  0  0  0  0  0  0
    3.9401   12.4251   27.1335 C   0  0  0  0  0  0  0  0  0  0  0  0
    4.9631   12.2894   28.2167 C   0  0  0  0  0  0  0  0  0  0  0  0
    6.4435   13.1570   25.7772 N   0  0  0  0  0  0  0  0  0  0  0  0
    7.5570   13.5437   25.1244 C   0  0  0  0  0  0  0  0  0  0  0  0
    8.5596   12.6839   24.7131 C   0  0  0  0  0  0  0  0  0  0  0  0
    9.7806   13.1911   24.2093 N   0  0  0  0  0  0  0  0  0  0  0  0
   10.9035   12.9469   25.0683 N   0  0  0  0  0  0  0  0  0  0  0  0
    9.9212   14.2193   23.3242 C   0  0  0  0  0  0  0  0  0  0  0  0
   10.8062   15.3101   23.4234 C   0  0  0  0  0  0  0  0  0  0  0  0
   10.8786   16.0171   22.2999 N   0  0  0  0  0  0  0  0  0  0  0  0
   10.0710   15.3522   21.4586 N   0  0  0  0  0  0  0  0  0  0  0  0
   10.1170   15.6775   20.0506 C   0  0  0  0  0  0  0  0  0  0  0  0
    9.3453   14.3621   22.0820 C   0  0  0  0  0  0  0  0  0  0  0  0
  1  2  1  0
  2  3  1  0
  3  4  2  0
  3  5  1  0
  5  6  2  0
  6  7  1  0
  7  8  1  0
  8  9  1  0
  9 10  1  0
  7 11  2  0
 11 12  1  0
 12 13  2  0
 13 14  1  0
 14 15  1  0
 14 16  1  0
 16 17  1  0
 17 18  2  0
 18 19  1  0
 19 20  1  0
 19 21  1  0
 13  5  1  0
 21 16  2  0
 10  8  1  0
M  END
>  <distance_score>  (252) 
1.61909

>  <smiles>  (252) 
COC(=O)c1cc(C2CC2)ncc1N(N)c1cnn(C)c1

>  <fragmenstein_error>  (252) 


>  <fragmenstein_runtime>  (252) 
4.881957

>  <gnina_score_min>  (252) 
5.202

>  <orig_smiles>  (252) 
COC(=O)c1cc(C2CC2)ncc1N(N)c1cnn(C)c1

>  <fragmenstein_mode>  (252) 
expansion

>  <rmsd(smina/fragmenstein)>  (252) 
1.282

>  <inspiration_score>  (252) 
None

>  <name>  (252) 
ULYRXWBJWDLZON-UHFFFAOYSA-N-P308-P15-P308-601501

>  <ref_pdb>  (252) 
A0528a

>  <ref_mols>  (252) 
A4331a,A0514a

>  <subsites>  (252) 
None

>  <tags>  (252) 
openbind_a71ev2a_c1_elabs_filtered,fragmenstein_placed,a71ev2a_c1_elab_bulkdock_input,openbind_a71ev2a_c1_elab_chemspace_filtered_scored

>  <inchikey>  (252) 
ULYRXWBJWDLZON-UHFFFAOYSA-N

>  <scratch_subdir>  (252) 
/opt/xchem-fragalysis-2/maxwin/BulkDock/SCRATCH/601501/ULYRXWBJWDLZON-UHFFFAOYSA-N-P308-P15-P308-601501

>  <smina_score_min>  (252) 
-6.341

>  <energy_score>  (252) 
-58.074538

>  <Energy>  (252) 
73.795253

>  <fragmenstein_outcome>  (252) 
too moved

>  <alias>  (252) 
ULYRXWBJWDLZON-UHFFFAOYSA-N-P308-P15-P308-601501

>  <HIPPO Pose ID>  (252) 
501887

>  <exports>  (252) 
['/opt/xchem-fragalysis-2/maxwin/openbind-hippo/a71ev2a/cycle_01/bulkdock/openbind_a71ev2a_c1_elab_chemspace.sdf', '/opt/xchem-fragalysis-2/maxwin/openbind-hippo/a71ev2a/cycle_01/syndirella/elabs/openbind_a71ev2a_c1_elab_chemspace_filtered.sdf']

>  <HIPPO Compound ID>  (252) 
292657

>  <gnina_score>  (252) 
5.457

$$$$
QHERRQLKYCHILU-UHFFFAOYSA-N-P308-P15-P308-601501
     RDKit          3D

 21 23  0  0  0  0  0  0  0  0999 V2000
    9.3850    8.4693   23.0231 C   0  0  0  0  0  0  0  0  0  0  0  0
    8.5558    9.3440   23.7709 O   0  0  0  0  0  0  0  0  0  0  0  0
    9.2482   10.2347   24.5129 C   0  0  0  0  0  0  0  0  0  0  0  0
   10.4463   10.2356   24.7468 O   0  0  0  0  0  0  0  0  0  0  0  0
    8.2793   11.2498   24.9615 C   0  0  0  0  0  0  0  0  0  0  0  0
    7.0920   10.8226   25.5668 C   0  0  0  0  0  0  0  0  0  0  0  0
    6.2014   11.7773   26.0306 C   0  0  0  0  0  0  0  0  0  0  0  0
    5.0677   11.4328   26.9582 C   0  0  0  0  0  0  0  0  0  0  0  0
    3.9114   12.3876   27.1519 C   0  0  0  0  0  0  0  0  0  0  0  0
    4.9426   12.2575   28.2280 C   0  0  0  0  0  0  0  0  0  0  0  0
    6.4032   13.0878   25.7680 N   0  0  0  0  0  0  0  0  0  0  0  0
    7.5230   13.4702   25.1275 C   0  0  0  0  0  0  0  0  0  0  0  0
    8.5459   12.6072   24.7771 C   0  0  0  0  0  0  0  0  0  0  0  0
    9.8001   13.1199   24.3790 N   0  0  0  0  0  0  0  0  0  0  0  0
   10.8659   12.8789   25.3010 N   0  0  0  0  0  0  0  0  0  0  0  0
    9.9829   14.1349   23.4805 C   0  0  0  0  0  0  0  0  0  0  0  0
   10.8144   15.2517   23.7567 C   0  0  0  0  0  0  0  0  0  0  0  0
   10.8885   15.9584   22.5891 C   0  0  0  0  0  0  0  0  0  0  0  0
   10.1869   15.2272   21.6883 N   0  0  0  0  0  0  0  0  0  0  0  0
   10.2388   15.4313   20.2698 C   0  0  0  0  0  0  0  0  0  0  0  0
    9.4809   14.2092   22.2387 N   0  0  0  0  0  0  0  0  0  0  0  0
  1  2  1  0
  2  3  1  0
  3  4  2  0
  3  5  1  0
  5  6  2  0
  6  7  1  0
  7  8  1  0
  8  9  1  0
  9 10  1  0
  7 11  2  0
 11 12  1  0
 12 13  2  0
 13 14  1  0
 14 15  1  0
 14 16  1  0
 16 17  1  0
 17 18  2  0
 18 19  1  0
 19 20  1  0
 19 21  1  0
 13  5  1  0
 21 16  2  0
 10  8  1  0
M  END
>  <distance_score>  (253) 
1.828545

>  <smiles>  (253) 
COC(=O)c1cc(C2CC2)ncc1N(N)c1ccn(C)n1

>  <fragmenstein_error>  (253) 


>  <fragmenstein_runtime>  (253) 
4.858257

>  <gnina_score_min>  (253) 
5.126

>  <orig_smiles>  (253) 
COC(=O)c1cc(C2CC2)ncc1N(N)c1ccn(C)n1

>  <fragmenstein_mode>  (253) 
expansion

>  <rmsd(smina/fragmenstein)>  (253) 
1.348

>  <inspiration_score>  (253) 
None

>  <name>  (253) 
QHERRQLKYCHILU-UHFFFAOYSA-N-P308-P15-P308-601501

>  <ref_pdb>  (253) 
A0528a

>  <ref_mols>  (253) 
A4331a,A0514a

>  <subsites>  (253) 
None

>  <tags>  (253) 
openbind_a71ev2a_c1_elabs_filtered,fragmenstein_placed,a71ev2a_c1_elab_bulkdock_input,openbind_a71ev2a_c1_elab_chemspace_filtered_scored

>  <inchikey>  (253) 
QHERRQLKYCHILU-UHFFFAOYSA-N

>  <scratch_subdir>  (253) 
/opt/xchem-fragalysis-2/maxwin/BulkDock/SCRATCH/601501/QHERRQLKYCHILU-UHFFFAOYSA-N-P308-P15-P308-601501

>  <smina_score_min>  (253) 
-6.357

>  <energy_score>  (253) 
-16.929515

>  <Energy>  (253) 
72.503892

>  <fragmenstein_outcome>  (253) 
too moved

>  <alias>  (253) 
QHERRQLKYCHILU-UHFFFAOYSA-N-P308-P15-P308-601501

>  <HIPPO Pose ID>  (253) 
501891

>  <exports>  (253) 
['/opt/xchem-fragalysis-2/maxwin/openbind-hippo/a71ev2a/cycle_01/bulkdock/openbind_a71ev2a_c1_elab_chemspace.sdf', '/opt/xchem-fragalysis-2/maxwin/openbind-hippo/a71ev2a/cycle_01/syndirella/elabs/openbind_a71ev2a_c1_elab_chemspace_filtered.sdf']

>  <HIPPO Compound ID>  (253) 
292659

>  <gnina_score>  (253) 
5.341

$$$$
WPQRLASIRMEZFL-UHFFFAOYSA-N-P308-P15-P308-601501
     RDKit          3D

 21 22  0  0  0  0  0  0  0  0999 V2000
    9.3972    8.6048   23.0606 C   0  0  0  0  0  0  0  0  0  0  0  0
    8.5848    9.5182   23.7891 O   0  0  0  0  0  0  0  0  0  0  0  0
    9.2905   10.4321   24.4981 C   0  0  0  0  0  0  0  0  0  0  0  0
   10.5050   10.4686   24.6181 O   0  0  0  0  0  0  0  0  0  0  0  0
    8.3211   11.3882   25.0805 C   0  0  0  0  0  0  0  0  0  0  0  0
    7.1360   10.8757   25.6343 C   0  0  0  0  0  0  0  0  0  0  0  0
    6.2290   11.7461   26.2244 C   0  0  0  0  0  0  0  0  0  0  0  0
    5.0248   11.2748   26.9901 C   0  0  0  0  0  0  0  0  0  0  0  0
    4.8099   11.7990   28.3947 C   0  0  0  0  0  0  0  0  0  0  0  0
    3.9114   12.2620   27.2931 C   0  0  0  0  0  0  0  0  0  0  0  0
    6.4432   13.0776   26.2094 N   0  0  0  0  0  0  0  0  0  0  0  0
    7.5629   13.5503   25.6435 C   0  0  0  0  0  0  0  0  0  0  0  0
    8.5620   12.7645   25.0915 C   0  0  0  0  0  0  0  0  0  0  0  0
    9.6717   13.4395   24.5617 N   0  0  0  0  0  0  0  0  0  0  0  0
   10.9393   13.0954   25.0797 N   0  0  0  0  0  0  0  0  0  0  0  0
    9.5312   13.7077   23.1152 C   0  0  0  0  0  0  0  0  0  0  0  0
    9.7759   15.1978   22.8667 C   0  0  0  0  0  0  0  0  0  0  0  0
    9.8567   15.5465   21.3768 C   0  0  0  0  0  0  0  0  0  0  0  0
   11.1706   15.0710   20.7530 C   0  0  0  0  0  0  0  0  0  0  0  0
    9.7387   17.0537   21.1596 C   0  0  0  0  0  0  0  0  0  0  0  0
    8.7620   14.9164   20.7176 O   0  0  0  0  0  0  0  0  0  0  0  0
  1  2  1  0
  2  3  1  0
  3  4  2  0
  3  5  1  0
  5  6  2  0
  6  7  1  0
  7  8  1  0
  8  9  1  0
  9 10  1  0
  7 11  2  0
 11 12  1  0
 12 13  2  0
 13 14  1  0
 14 15  1  0
 14 16  1  0
 16 17  1  0
 17 18  1  0
 18 19  1  0
 18 20  1  0
 18 21  1  0
 13  5  1  0
 10  8  1  0
M  END
>  <distance_score>  (254) 
1.447414

>  <smiles>  (254) 
COC(=O)c1cc(C2CC2)ncc1N(N)CCC(C)(C)O

>  <fragmenstein_error>  (254) 


>  <fragmenstein_runtime>  (254) 
5.670833

>  <gnina_score_min>  (254) 
4.575

>  <orig_smiles>  (254) 
COC(=O)c1cc(C2CC2)ncc1N(N)CCC(C)(C)O

>  <fragmenstein_mode>  (254) 
expansion

>  <rmsd(smina/fragmenstein)>  (254) 
1.708

>  <inspiration_score>  (254) 
None

>  <name>  (254) 
WPQRLASIRMEZFL-UHFFFAOYSA-N-P308-P15-P308-601501

>  <ref_pdb>  (254) 
A0528a

>  <ref_mols>  (254) 
A4331a,A0514a

>  <subsites>  (254) 
None

>  <tags>  (254) 
openbind_a71ev2a_c1_elabs_filtered,fragmenstein_placed,a71ev2a_c1_elab_bulkdock_input,openbind_a71ev2a_c1_elab_chemspace_filtered_scored

>  <inchikey>  (254) 
WPQRLASIRMEZFL-UHFFFAOYSA-N

>  <scratch_subdir>  (254) 
/opt/xchem-fragalysis-2/maxwin/BulkDock/SCRATCH/601501/WPQRLASIRMEZFL-UHFFFAOYSA-N-P308-P15-P308-601501

>  <smina_score_min>  (254) 
-6.065

>  <energy_score>  (254) 
-44.207061

>  <Energy>  (254) 
98.291316

>  <fragmenstein_outcome>  (254) 
too moved

>  <alias>  (254) 
WPQRLASIRMEZFL-UHFFFAOYSA-N-P308-P15-P308-601501

>  <HIPPO Pose ID>  (254) 
501893

>  <exports>  (254) 
['/opt/xchem-fragalysis-2/maxwin/openbind-hippo/a71ev2a/cycle_01/bulkdock/openbind_a71ev2a_c1_elab_chemspace.sdf', '/opt/xchem-fragalysis-2/maxwin/openbind-hippo/a71ev2a/cycle_01/syndirella/elabs/openbind_a71ev2a_c1_elab_chemspace_filtered.sdf']

>  <HIPPO Compound ID>  (254) 
292660

>  <gnina_score>  (254) 
5.333

$$$$
HGLSBOSZPNYHKF-UHFFFAOYSA-N-P308-P15-P308-601501
     RDKit          3D

 21 22  0  0  0  0  0  0  0  0999 V2000
    9.3822    8.6038   23.0865 C   0  0  0  0  0  0  0  0  0  0  0  0
    8.5373    9.4975   23.8050 O   0  0  0  0  0  0  0  0  0  0  0  0
    9.2088   10.4615   24.4758 C   0  0  0  0  0  0  0  0  0  0  0  0
   10.4213   10.5809   24.5538 O   0  0  0  0  0  0  0  0  0  0  0  0
    8.2084   11.3823   25.0649 C   0  0  0  0  0  0  0  0  0  0  0  0
    7.0492   10.8342   25.6386 C   0  0  0  0  0  0  0  0  0  0  0  0
    6.1380   11.6761   26.2645 C   0  0  0  0  0  0  0  0  0  0  0  0
    4.9991   11.1709   27.1077 C   0  0  0  0  0  0  0  0  0  0  0  0
    3.8075   12.0626   27.3938 C   0  0  0  0  0  0  0  0  0  0  0  0
    4.8140   11.8179   28.4707 C   0  0  0  0  0  0  0  0  0  0  0  0
    6.3141   13.0142   26.2537 N   0  0  0  0  0  0  0  0  0  0  0  0
    7.4148   13.5179   25.6802 C   0  0  0  0  0  0  0  0  0  0  0  0
    8.4164   12.7650   25.0907 C   0  0  0  0  0  0  0  0  0  0  0  0
    9.5080   13.4739   24.5632 N   0  0  0  0  0  0  0  0  0  0  0  0
   10.7697   13.1801   25.1514 N   0  0  0  0  0  0  0  0  0  0  0  0
    9.4453   13.6078   23.0919 C   0  0  0  0  0  0  0  0  0  0  0  0
    9.5968   15.0844   22.6540 C   0  0  0  0  0  0  0  0  0  0  0  0
    8.3489   15.8986   23.0442 C   0  0  0  0  0  0  0  0  0  0  0  0
    9.7027   15.1137   21.1206 C   0  0  0  0  0  0  0  0  0  0  0  0
   10.8435   15.7546   23.2614 C   0  0  0  0  0  0  0  0  0  0  0  0
   12.0230   14.9680   23.0950 O   0  0  0  0  0  0  0  0  0  0  0  0
  1  2  1  0
  2  3  1  0
  3  4  2  0
  3  5  1  0
  5  6  2  0
  6  7  1  0
  7  8  1  0
  8  9  1  0
  9 10  1  0
  7 11  2  0
 11 12  1  0
 12 13  2  0
 13 14  1  0
 14 15  1  0
 14 16  1  0
 16 17  1  0
 17 18  1  0
 17 19  1  0
 17 20  1  0
 20 21  1  0
 13  5  1  0
 10  8  1  0
M  END
>  <distance_score>  (255) 
1.603987

>  <smiles>  (255) 
COC(=O)c1cc(C2CC2)ncc1N(N)CC(C)(C)CO

>  <fragmenstein_error>  (255) 


>  <fragmenstein_runtime>  (255) 
4.965423

>  <gnina_score_min>  (255) 
4.801

>  <orig_smiles>  (255) 
COC(=O)c1cc(C2CC2)ncc1N(N)CC(C)(C)CO

>  <fragmenstein_mode>  (255) 
expansion

>  <rmsd(smina/fragmenstein)>  (255) 
1.972

>  <inspiration_score>  (255) 
None

>  <name>  (255) 
HGLSBOSZPNYHKF-UHFFFAOYSA-N-P308-P15-P308-601501

>  <ref_pdb>  (255) 
A0528a

>  <ref_mols>  (255) 
A4331a,A0514a

>  <subsites>  (255) 
None

>  <tags>  (255) 
openbind_a71ev2a_c1_elabs_filtered,fragmenstein_placed,a71ev2a_c1_elab_bulkdock_input,openbind_a71ev2a_c1_elab_chemspace_filtered_scored

>  <inchikey>  (255) 
HGLSBOSZPNYHKF-UHFFFAOYSA-N

>  <scratch_subdir>  (255) 
/opt/xchem-fragalysis-2/maxwin/BulkDock/SCRATCH/601501/HGLSBOSZPNYHKF-UHFFFAOYSA-N-P308-P15-P308-601501

>  <smina_score_min>  (255) 
-5.867

>  <energy_score>  (255) 
-38.792198

>  <Energy>  (255) 
102.030271

>  <fragmenstein_outcome>  (255) 
too moved

>  <alias>  (255) 
HGLSBOSZPNYHKF-UHFFFAOYSA-N-P308-P15-P308-601501

>  <HIPPO Pose ID>  (255) 
501895

>  <exports>  (255) 
['/opt/xchem-fragalysis-2/maxwin/openbind-hippo/a71ev2a/cycle_01/bulkdock/openbind_a71ev2a_c1_elab_chemspace.sdf', '/opt/xchem-fragalysis-2/maxwin/openbind-hippo/a71ev2a/cycle_01/syndirella/elabs/openbind_a71ev2a_c1_elab_chemspace_filtered.sdf']

>  <HIPPO Compound ID>  (255) 
292661

>  <gnina_score>  (255) 
5.357

$$$$
VVAWZXJBJGSAKM-UHFFFAOYSA-N-P308-P15-P308-601501
     RDKit          3D

 21 22  0  0  0  0  0  0  0  0999 V2000
    9.3989    8.5812   23.0538 C   0  0  0  0  0  0  0  0  0  0  0  0
    8.5690    9.4979   23.7549 O   0  0  0  0  0  0  0  0  0  0  0  0
    9.2549   10.3900   24.5056 C   0  0  0  0  0  0  0  0  0  0  0  0
   10.4604   10.4097   24.6978 O   0  0  0  0  0  0  0  0  0  0  0  0
    8.2756   11.3563   25.0421 C   0  0  0  0  0  0  0  0  0  0  0  0
    7.1044   10.8513   25.6288 C   0  0  0  0  0  0  0  0  0  0  0  0
    6.1967   11.7357   26.1942 C   0  0  0  0  0  0  0  0  0  0  0  0
    5.0484   11.2870   27.0565 C   0  0  0  0  0  0  0  0  0  0  0  0
    3.8643   12.2011   27.2909 C   0  0  0  0  0  0  0  0  0  0  0  0
    4.8651   12.0040   28.3838 C   0  0  0  0  0  0  0  0  0  0  0  0
    6.3864   13.0681   26.0953 N   0  0  0  0  0  0  0  0  0  0  0  0
    7.4943   13.5299   25.4973 C   0  0  0  0  0  0  0  0  0  0  0  0
    8.5051   12.7326   24.9865 C   0  0  0  0  0  0  0  0  0  0  0  0
    9.6263   13.3802   24.4557 N   0  0  0  0  0  0  0  0  0  0  0  0
   10.8970   13.0818   24.9822 N   0  0  0  0  0  0  0  0  0  0  0  0
    9.5186   13.7080   23.0221 C   0  0  0  0  0  0  0  0  0  0  0  0
    9.4204   15.2215   22.8671 C   0  0  0  0  0  0  0  0  0  0  0  0
    9.5501   15.6688   21.4099 C   0  0  0  0  0  0  0  0  0  0  0  0
   10.8243   15.2912   20.7790 N   0  0  0  0  0  0  0  0  0  0  0  0
   10.8206   15.6884   19.3674 C   0  0  0  0  0  0  0  0  0  0  0  0
   11.9706   15.9110   21.4508 C   0  0  0  0  0  0  0  0  0  0  0  0
  1  2  1  0
  2  3  1  0
  3  4  2  0
  3  5  1  0
  5  6  2  0
  6  7  1  0
  7  8  1  0
  8  9  1  0
  9 10  1  0
  7 11  2  0
 11 12  1  0
 12 13  2  0
 13 14  1  0
 14 15  1  0
 14 16  1  0
 16 17  1  0
 17 18  1  0
 18 19  1  0
 19 20  1  0
 19 21  1  0
 13  5  1  0
 10  8  1  0
M  END
>  <distance_score>  (256) 
1.252116

>  <smiles>  (256) 
COC(=O)c1cc(C2CC2)ncc1N(N)CCCN(C)C

>  <fragmenstein_error>  (256) 


>  <fragmenstein_runtime>  (256) 
4.49065

>  <gnina_score_min>  (256) 
4.931

>  <orig_smiles>  (256) 
COC(=O)c1cc(C2CC2)ncc1N(N)CCCN(C)C

>  <fragmenstein_mode>  (256) 
expansion

>  <rmsd(smina/fragmenstein)>  (256) 
1.255

>  <inspiration_score>  (256) 
None

>  <name>  (256) 
VVAWZXJBJGSAKM-UHFFFAOYSA-N-P308-P15-P308-601501

>  <ref_pdb>  (256) 
A0528a

>  <ref_mols>  (256) 
A4331a,A0514a

>  <subsites>  (256) 
None

>  <tags>  (256) 
openbind_a71ev2a_c1_elabs_filtered,fragmenstein_placed,a71ev2a_c1_elab_bulkdock_input,openbind_a71ev2a_c1_elab_chemspace_filtered_scored

>  <inchikey>  (256) 
VVAWZXJBJGSAKM-UHFFFAOYSA-N

>  <scratch_subdir>  (256) 
/opt/xchem-fragalysis-2/maxwin/BulkDock/SCRATCH/601501/VVAWZXJBJGSAKM-UHFFFAOYSA-N-P308-P15-P308-601501

>  <smina_score_min>  (256) 
-5.758

>  <energy_score>  (256) 
-50.401874

>  <Energy>  (256) 
94.303059

>  <fragmenstein_outcome>  (256) 
too moved

>  <alias>  (256) 
VVAWZXJBJGSAKM-UHFFFAOYSA-N-P308-P15-P308-601501

>  <HIPPO Pose ID>  (256) 
501899

>  <exports>  (256) 
['/opt/xchem-fragalysis-2/maxwin/openbind-hippo/a71ev2a/cycle_01/bulkdock/openbind_a71ev2a_c1_elab_chemspace.sdf', '/opt/xchem-fragalysis-2/maxwin/openbind-hippo/a71ev2a/cycle_01/syndirella/elabs/openbind_a71ev2a_c1_elab_chemspace_filtered.sdf']

>  <HIPPO Compound ID>  (256) 
292663

>  <gnina_score>  (256) 
5.509

$$$$
ZZXTUOWPBSTRMM-UHFFFAOYSA-N-P308-P15-P308-601501
     RDKit          3D

 21 23  0  0  0  0  0  0  0  0999 V2000
    9.2147    8.5962   23.1550 C   0  0  0  0  0  0  0  0  0  0  0  0
    8.3615    9.4840   23.8758 O   0  0  0  0  0  0  0  0  0  0  0  0
    9.0386   10.4052   24.5963 C   0  0  0  0  0  0  0  0  0  0  0  0
   10.2466   10.4416   24.7821 O   0  0  0  0  0  0  0  0  0  0  0  0
    8.0719   11.3937   25.1269 C   0  0  0  0  0  0  0  0  0  0  0  0
    6.8727   10.9655   25.7179 C   0  0  0  0  0  0  0  0  0  0  0  0
    6.0343   11.9218   26.2809 C   0  0  0  0  0  0  0  0  0  0  0  0
    4.7115   11.6687   26.9178 C   0  0  0  0  0  0  0  0  0  0  0  0
    4.4428   10.6797   28.0085 C   0  0  0  0  0  0  0  0  0  0  0  0
    4.5668   12.1314   28.3563 C   0  0  0  0  0  0  0  0  0  0  0  0
    6.3630   13.2283   26.2855 N   0  0  0  0  0  0  0  0  0  0  0  0
    7.4761   13.6160   25.6629 C   0  0  0  0  0  0  0  0  0  0  0  0
    8.3644   12.7592   25.0336 C   0  0  0  0  0  0  0  0  0  0  0  0
    9.4553   13.2667   24.3024 N   0  0  0  0  0  0  0  0  0  0  0  0
   10.7002   13.2180   24.9729 N   0  0  0  0  0  0  0  0  0  0  0  0
    9.1222   14.4763   23.5204 C   0  0  0  0  0  0  0  0  0  0  0  0
   10.0409   14.6242   22.3192 C   0  0  2  0  0  0  0  0  0  0  0  0
   11.3289   15.3785   22.6447 C   0  0  0  0  0  0  0  0  0  0  0  0
   12.0188   15.6024   21.3138 C   0  0  0  0  0  0  0  0  0  0  0  0
   10.6894   15.9458   20.1293 S   0  0  0  0  0  0  0  0  0  0  0  0
    9.3555   15.4507   21.2367 C   0  0  0  0  0  0  0  0  0  0  0  0
  1  2  1  0
  2  3  1  0
  3  4  2  0
  3  5  1  0
  5  6  2  0
  6  7  1  0
  7  8  1  0
  8  9  1  0
  9 10  1  0
  7 11  2  0
 11 12  1  0
 12 13  2  0
 13 14  1  0
 14 15  1  0
 14 16  1  0
 17 16  1  1
 17 18  1  0
 18 19  1  0
 19 20  1  0
 20 21  1  0
 13  5  1  0
 21 17  1  0
 10  8  1  0
M  END
>  <distance_score>  (257) 
1.473453

>  <smiles>  (257) 
COC(=O)c1cc(C2CC2)ncc1N(N)CC1CCSC1

>  <fragmenstein_error>  (257) 


>  <fragmenstein_runtime>  (257) 
3.401486

>  <gnina_score_min>  (257) 
5.34

>  <orig_smiles>  (257) 
COC(=O)c1cc(C2CC2)ncc1N(N)CC1CCSC1

>  <fragmenstein_mode>  (257) 
expansion

>  <rmsd(smina/fragmenstein)>  (257) 
1.183

>  <inspiration_score>  (257) 
None

>  <name>  (257) 
ZZXTUOWPBSTRMM-UHFFFAOYSA-N-P308-P15-P308-601501

>  <ref_pdb>  (257) 
A0528a

>  <ref_mols>  (257) 
A4331a,A0514a

>  <subsites>  (257) 
None

>  <tags>  (257) 
openbind_a71ev2a_c1_elabs_filtered,fragmenstein_placed,a71ev2a_c1_elab_bulkdock_input,openbind_a71ev2a_c1_elab_chemspace_filtered_scored

>  <inchikey>  (257) 
ZZXTUOWPBSTRMM-UHFFFAOYSA-N

>  <scratch_subdir>  (257) 
/opt/xchem-fragalysis-2/maxwin/BulkDock/SCRATCH/601501/ZZXTUOWPBSTRMM-UHFFFAOYSA-N-P308-P15-P308-601501

>  <smina_score_min>  (257) 
-5.393

>  <energy_score>  (257) 
-56.181301

>  <Energy>  (257) 
91.632146

>  <fragmenstein_outcome>  (257) 
too moved

>  <alias>  (257) 
ZZXTUOWPBSTRMM-UHFFFAOYSA-N-P308-P15-P308-601501

>  <HIPPO Pose ID>  (257) 
501901

>  <exports>  (257) 
['/opt/xchem-fragalysis-2/maxwin/openbind-hippo/a71ev2a/cycle_01/bulkdock/openbind_a71ev2a_c1_elab_chemspace.sdf', '/opt/xchem-fragalysis-2/maxwin/openbind-hippo/a71ev2a/cycle_01/syndirella/elabs/openbind_a71ev2a_c1_elab_chemspace_filtered.sdf']

>  <HIPPO Compound ID>  (257) 
292664

>  <gnina_score>  (257) 
5.653

$$$$
GUWJEUWNTPLYKC-UHFFFAOYSA-N-P308-P15-P308-601501
     RDKit          3D

 21 22  0  0  0  0  0  0  0  0999 V2000
   10.7418   15.9142   20.1460 C   0  0  0  0  0  0  0  0  0  0  0  0
    9.5847   15.7266   21.1166 C   0  0  0  0  0  0  0  0  0  0  0  0
   10.0155   14.8622   22.3074 C   0  0  0  0  0  0  0  0  0  0  0  0
   10.7246   15.7046   23.3815 C   0  0  0  0  0  0  0  0  0  0  0  0
   11.7026   14.8921   24.2080 C   0  0  0  0  0  0  0  0  0  0  0  0
    8.7870   14.1356   22.8806 C   0  0  0  0  0  0  0  0  0  0  0  0
    9.2088   12.9557   23.6831 N   0  0  0  0  0  0  0  0  0  0  0  0
    9.7956   11.9260   22.9063 N   0  0  0  0  0  0  0  0  0  0  0  0
    8.2609   12.5405   24.6577 C   0  0  0  0  0  0  0  0  0  0  0  0
    7.5329   13.4773   25.3753 C   0  0  0  0  0  0  0  0  0  0  0  0
    6.4713   13.2083   26.1494 N   0  0  0  0  0  0  0  0  0  0  0  0
    6.0472   11.9348   26.2498 C   0  0  0  0  0  0  0  0  0  0  0  0
    4.7349   11.7971   26.9454 C   0  0  0  0  0  0  0  0  0  0  0  0
    4.4493   10.8744   28.0889 C   0  0  0  0  0  0  0  0  0  0  0  0
    4.6630   12.3333   28.3612 C   0  0  0  0  0  0  0  0  0  0  0  0
    6.7965   10.8947   25.7256 C   0  0  0  0  0  0  0  0  0  0  0  0
    7.9491   11.2110   24.9931 C   0  0  0  0  0  0  0  0  0  0  0  0
    8.8672   10.1184   24.6280 C   0  0  0  0  0  0  0  0  0  0  0  0
   10.0692   10.1383   24.8585 O   0  0  0  0  0  0  0  0  0  0  0  0
    8.1927    9.1756   23.9373 O   0  0  0  0  0  0  0  0  0  0  0  0
    9.0679    8.3667   23.1570 C   0  0  0  0  0  0  0  0  0  0  0  0
  1  2  1  0
  2  3  1  0
  3  4  1  0
  4  5  1  0
  3  6  1  0
  6  7  1  0
  7  8  1  0
  7  9  1  0
  9 10  2  0
 10 11  1  0
 11 12  2  0
 12 13  1  0
 13 14  1  0
 14 15  1  0
 12 16  1  0
 16 17  2  0
 17 18  1  0
 18 19  2  0
 18 20  1  0
 20 21  1  0
 17  9  1  0
 15 13  1  0
M  END
>  <distance_score>  (258) 
1.573119

>  <smiles>  (258) 
CCC(CC)CN(N)c1cnc(C2CC2)cc1C(=O)OC

>  <fragmenstein_error>  (258) 


>  <fragmenstein_runtime>  (258) 
6.670627

>  <gnina_score_min>  (258) 
5.207

>  <orig_smiles>  (258) 
CCC(CC)CN(N)c1cnc(C2CC2)cc1C(=O)OC

>  <fragmenstein_mode>  (258) 
expansion

>  <rmsd(smina/fragmenstein)>  (258) 
1.407

>  <inspiration_score>  (258) 
None

>  <name>  (258) 
GUWJEUWNTPLYKC-UHFFFAOYSA-N-P308-P15-P308-601501

>  <ref_pdb>  (258) 
A0528a

>  <ref_mols>  (258) 
A4331a,A0514a

>  <subsites>  (258) 
None

>  <tags>  (258) 
openbind_a71ev2a_c1_elabs_filtered,fragmenstein_placed,a71ev2a_c1_elab_bulkdock_input,openbind_a71ev2a_c1_elab_chemspace_filtered_scored

>  <inchikey>  (258) 
GUWJEUWNTPLYKC-UHFFFAOYSA-N

>  <scratch_subdir>  (258) 
/opt/xchem-fragalysis-2/maxwin/BulkDock/SCRATCH/601501/GUWJEUWNTPLYKC-UHFFFAOYSA-N-P308-P15-P308-601501

>  <smina_score_min>  (258) 
-6.012

>  <energy_score>  (258) 
-34.610281

>  <Energy>  (258) 
103.410116

>  <fragmenstein_outcome>  (258) 
too moved

>  <alias>  (258) 
GUWJEUWNTPLYKC-UHFFFAOYSA-N-P308-P15-P308-601501

>  <HIPPO Pose ID>  (258) 
501905

>  <exports>  (258) 
['/opt/xchem-fragalysis-2/maxwin/openbind-hippo/a71ev2a/cycle_01/bulkdock/openbind_a71ev2a_c1_elab_chemspace.sdf', '/opt/xchem-fragalysis-2/maxwin/openbind-hippo/a71ev2a/cycle_01/syndirella/elabs/openbind_a71ev2a_c1_elab_chemspace_filtered.sdf']

>  <HIPPO Compound ID>  (258) 
292666

>  <gnina_score>  (258) 
5.369

$$$$
MJUXATAEFLRMTG-UHFFFAOYSA-N-P308-P15-P308-601501
     RDKit          3D

 21 22  0  0  0  0  0  0  0  0999 V2000
    9.4493    8.6269   23.0655 C   0  0  0  0  0  0  0  0  0  0  0  0
    8.6442    9.5617   23.7741 O   0  0  0  0  0  0  0  0  0  0  0  0
    9.3521   10.4471   24.5179 C   0  0  0  0  0  0  0  0  0  0  0  0
   10.5608   10.4525   24.6788 O   0  0  0  0  0  0  0  0  0  0  0  0
    8.3816   11.4206   25.0711 C   0  0  0  0  0  0  0  0  0  0  0  0
    7.1537   10.9441   25.5590 C   0  0  0  0  0  0  0  0  0  0  0  0
    6.2784   11.8357   26.1620 C   0  0  0  0  0  0  0  0  0  0  0  0
    5.0665   11.3916   26.9354 C   0  0  0  0  0  0  0  0  0  0  0  0
    3.9043   12.3400   27.1409 C   0  0  0  0  0  0  0  0  0  0  0  0
    4.8258   12.0519   28.2825 C   0  0  0  0  0  0  0  0  0  0  0  0
    6.5553   13.1574   26.1916 N   0  0  0  0  0  0  0  0  0  0  0  0
    7.7336   13.5910   25.7156 C   0  0  0  0  0  0  0  0  0  0  0  0
    8.7149   12.7749   25.1814 C   0  0  0  0  0  0  0  0  0  0  0  0
    9.9624   13.2944   24.8070 N   0  0  0  0  0  0  0  0  0  0  0  0
   10.6501   14.0656   25.7738 N   0  0  0  0  0  0  0  0  0  0  0  0
   10.0697   13.6366   23.3757 C   0  0  0  0  0  0  0  0  0  0  0  0
    9.8562   15.1359   23.1056 C   0  0  0  0  0  0  0  0  0  0  0  0
    9.7452   15.4944   21.6078 C   0  0  0  0  0  0  0  0  0  0  0  0
   10.9595   14.9897   20.8160 C   0  0  0  0  0  0  0  0  0  0  0  0
    8.4386   14.9306   21.0640 C   0  0  0  0  0  0  0  0  0  0  0  0
    9.6974   17.0129   21.4115 C   0  0  0  0  0  0  0  0  0  0  0  0
  1  2  1  0
  2  3  1  0
  3  4  2  0
  3  5  1  0
  5  6  2  0
  6  7  1  0
  7  8  1  0
  8  9  1  0
  9 10  1  0
  7 11  2  0
 11 12  1  0
 12 13  2  0
 13 14  1  0
 14 15  1  0
 14 16  1  0
 16 17  1  0
 17 18  1  0
 18 19  1  0
 18 20  1  0
 18 21  1  0
 13  5  1  0
 10  8  1  0
M  END
>  <distance_score>  (259) 
1.302806

>  <smiles>  (259) 
COC(=O)c1cc(C2CC2)ncc1N(N)CCC(C)(C)C

>  <fragmenstein_error>  (259) 


>  <fragmenstein_runtime>  (259) 
6.847519

>  <gnina_score_min>  (259) 
5.068

>  <orig_smiles>  (259) 
COC(=O)c1cc(C2CC2)ncc1N(N)CCC(C)(C)C

>  <fragmenstein_mode>  (259) 
expansion

>  <rmsd(smina/fragmenstein)>  (259) 
1.25

>  <inspiration_score>  (259) 
None

>  <name>  (259) 
MJUXATAEFLRMTG-UHFFFAOYSA-N-P308-P15-P308-601501

>  <ref_pdb>  (259) 
A0528a

>  <ref_mols>  (259) 
A4331a,A0514a

>  <subsites>  (259) 
None

>  <tags>  (259) 
openbind_a71ev2a_c1_elabs_filtered,fragmenstein_placed,a71ev2a_c1_elab_bulkdock_input,openbind_a71ev2a_c1_elab_chemspace_filtered_scored

>  <inchikey>  (259) 
MJUXATAEFLRMTG-UHFFFAOYSA-N

>  <scratch_subdir>  (259) 
/opt/xchem-fragalysis-2/maxwin/BulkDock/SCRATCH/601501/MJUXATAEFLRMTG-UHFFFAOYSA-N-P308-P15-P308-601501

>  <smina_score_min>  (259) 
-5.836

>  <energy_score>  (259) 
-45.325783

>  <Energy>  (259) 
109.181088

>  <fragmenstein_outcome>  (259) 
too moved

>  <alias>  (259) 
MJUXATAEFLRMTG-UHFFFAOYSA-N-P308-P15-P308-601501

>  <HIPPO Pose ID>  (259) 
501911

>  <exports>  (259) 
['/opt/xchem-fragalysis-2/maxwin/openbind-hippo/a71ev2a/cycle_01/bulkdock/openbind_a71ev2a_c1_elab_chemspace.sdf', '/opt/xchem-fragalysis-2/maxwin/openbind-hippo/a71ev2a/cycle_01/syndirella/elabs/openbind_a71ev2a_c1_elab_chemspace_filtered.sdf']

>  <HIPPO Compound ID>  (259) 
292669

>  <gnina_score>  (259) 
5.619

$$$$
GQFPIWGIFDREIJ-UHFFFAOYSA-N-P308-P15-P308-601501
     RDKit          3D

 21 22  0  0  0  0  0  0  0  0999 V2000
    9.4496    8.6753   23.1158 C   0  0  0  0  0  0  0  0  0  0  0  0
    8.5396    9.5379   23.7897 O   0  0  0  0  0  0  0  0  0  0  0  0
    9.1361   10.5071   24.5207 C   0  0  0  0  0  0  0  0  0  0  0  0
   10.3320   10.6462   24.7236 O   0  0  0  0  0  0  0  0  0  0  0  0
    8.0678   11.3757   25.0587 C   0  0  0  0  0  0  0  0  0  0  0  0
    6.9713   10.7720   25.6898 C   0  0  0  0  0  0  0  0  0  0  0  0
    6.0262   11.5780   26.3072 C   0  0  0  0  0  0  0  0  0  0  0  0
    4.9566   11.0436   27.2185 C   0  0  0  0  0  0  0  0  0  0  0  0
    3.7411   11.8867   27.5471 C   0  0  0  0  0  0  0  0  0  0  0  0
    4.8132   11.7178   28.5737 C   0  0  0  0  0  0  0  0  0  0  0  0
    6.1136   12.9211   26.2287 N   0  0  0  0  0  0  0  0  0  0  0  0
    7.1410   13.4764   25.5747 C   0  0  0  0  0  0  0  0  0  0  0  0
    8.1697   12.7685   24.9747 C   0  0  0  0  0  0  0  0  0  0  0  0
    9.2421   13.4239   24.3456 N   0  0  0  0  0  0  0  0  0  0  0  0
   10.4189   13.4859   25.1309 N   0  0  0  0  0  0  0  0  0  0  0  0
    8.8910   14.6021   23.4807 C   0  0  2  0  0  0  0  0  0  0  0  0
    8.1048   14.1083   22.2641 C   0  0  0  0  0  0  0  0  0  0  0  0
   10.1067   15.4032   22.9856 C   0  0  0  0  0  0  0  0  0  0  0  0
   10.5626   16.2418   23.9515 F   0  0  0  0  0  0  0  0  0  0  0  0
    9.7670   16.1705   21.9212 F   0  0  0  0  0  0  0  0  0  0  0  0
   11.1397   14.6297   22.6051 F   0  0  0  0  0  0  0  0  0  0  0  0
  1  2  1  0
  2  3  1  0
  3  4  2  0
  3  5  1  0
  5  6  2  0
  6  7  1  0
  7  8  1  0
  8  9  1  0
  9 10  1  0
  7 11  2  0
 11 12  1  0
 12 13  2  0
 13 14  1  0
 14 15  1  0
 14 16  1  0
 16 17  1  6
 16 18  1  0
 18 19  1  0
 18 20  1  0
 18 21  1  0
 13  5  1  0
 10  8  1  0
M  END
>  <distance_score>  (260) 
1.55266

>  <smiles>  (260) 
COC(=O)c1cc(C2CC2)ncc1N(N)C(C)C(F)(F)F

>  <fragmenstein_error>  (260) 


>  <fragmenstein_runtime>  (260) 
5.33992

>  <gnina_score_min>  (260) 
5.09

>  <orig_smiles>  (260) 
COC(=O)c1cc(C2CC2)ncc1N(N)C(C)C(F)(F)F

>  <fragmenstein_mode>  (260) 
expansion

>  <rmsd(smina/fragmenstein)>  (260) 
1.157

>  <inspiration_score>  (260) 
None

>  <name>  (260) 
GQFPIWGIFDREIJ-UHFFFAOYSA-N-P308-P15-P308-601501

>  <ref_pdb>  (260) 
A0528a

>  <ref_mols>  (260) 
A4331a,A0514a

>  <subsites>  (260) 
None

>  <tags>  (260) 
openbind_a71ev2a_c1_elabs_filtered,fragmenstein_placed,a71ev2a_c1_elab_bulkdock_input,openbind_a71ev2a_c1_elab_chemspace_filtered_scored

>  <inchikey>  (260) 
GQFPIWGIFDREIJ-UHFFFAOYSA-N

>  <scratch_subdir>  (260) 
/opt/xchem-fragalysis-2/maxwin/BulkDock/SCRATCH/601501/GQFPIWGIFDREIJ-UHFFFAOYSA-N-P308-P15-P308-601501

>  <smina_score_min>  (260) 
-6.139

>  <energy_score>  (260) 
-32.023843

>  <Energy>  (260) 
154.520088

>  <fragmenstein_outcome>  (260) 
too moved

>  <alias>  (260) 
GQFPIWGIFDREIJ-UHFFFAOYSA-N-P308-P15-P308-601501

>  <HIPPO Pose ID>  (260) 
501915

>  <exports>  (260) 
['/opt/xchem-fragalysis-2/maxwin/openbind-hippo/a71ev2a/cycle_01/bulkdock/openbind_a71ev2a_c1_elab_chemspace.sdf', '/opt/xchem-fragalysis-2/maxwin/openbind-hippo/a71ev2a/cycle_01/syndirella/elabs/openbind_a71ev2a_c1_elab_chemspace_filtered.sdf']

>  <HIPPO Compound ID>  (260) 
292671

>  <gnina_score>  (260) 
5.421

$$$$
AETFGALWHHEGJO-UHFFFAOYSA-N-P308-P15-P308-601501
     RDKit          3D

 21 23  0  0  0  0  0  0  0  0999 V2000
    9.4184    8.5409   23.0013 C   0  0  0  0  0  0  0  0  0  0  0  0
    8.6360    9.4894   23.7101 O   0  0  0  0  0  0  0  0  0  0  0  0
    9.3674   10.3323   24.4745 C   0  0  0  0  0  0  0  0  0  0  0  0
   10.5698   10.2878   24.6758 O   0  0  0  0  0  0  0  0  0  0  0  0
    8.4340   11.3371   25.0174 C   0  0  0  0  0  0  0  0  0  0  0  0
    7.2091   10.9062   25.5471 C   0  0  0  0  0  0  0  0  0  0  0  0
    6.3828   11.8340   26.1621 C   0  0  0  0  0  0  0  0  0  0  0  0
    5.1097   11.4479   26.8609 C   0  0  0  0  0  0  0  0  0  0  0  0
    4.8297   12.0039   28.2405 C   0  0  0  0  0  0  0  0  0  0  0  0
    4.0397   12.5022   27.0712 C   0  0  0  0  0  0  0  0  0  0  0  0
    6.7400   13.1356   26.2261 N   0  0  0  0  0  0  0  0  0  0  0  0
    7.9072   13.5286   25.6847 C   0  0  0  0  0  0  0  0  0  0  0  0
    8.8091   12.6814   25.0666 C   0  0  0  0  0  0  0  0  0  0  0  0
   10.0067   13.1621   24.5002 N   0  0  0  0  0  0  0  0  0  0  0  0
   10.7961   13.9947   25.3246 N   0  0  0  0  0  0  0  0  0  0  0  0
    9.8530   13.4700   23.0502 C   0  0  0  0  0  0  0  0  0  0  0  0
   10.0277   14.9401   22.6262 C   0  0  0  0  0  0  0  0  0  0  0  0
    9.1248   15.8909   23.3885 C   0  0  0  0  0  0  0  0  0  0  0  0
    9.8388   15.1159   21.0884 C   0  0  0  0  0  0  0  0  0  0  0  0
   11.3653   15.0839   20.9271 C   0  0  0  0  0  0  0  0  0  0  0  0
   11.4816   15.4753   22.4064 C   0  0  0  0  0  0  0  0  0  0  0  0
  1  2  1  0
  2  3  1  0
  3  4  2  0
  3  5  1  0
  5  6  2  0
  6  7  1  0
  7  8  1  0
  8  9  1  0
  9 10  1  0
  7 11  2  0
 11 12  1  0
 12 13  2  0
 13 14  1  0
 14 15  1  0
 14 16  1  0
 16 17  1  0
 17 18  1  0
 17 19  1  0
 19 20  1  0
 20 21  1  0
 13  5  1  0
 21 17  1  0
 10  8  1  0
M  END
>  <distance_score>  (261) 
1.495936

>  <smiles>  (261) 
COC(=O)c1cc(C2CC2)ncc1N(N)CC1(C)CCC1

>  <fragmenstein_error>  (261) 


>  <fragmenstein_runtime>  (261) 
5.625559

>  <gnina_score_min>  (261) 
5.258

>  <orig_smiles>  (261) 
COC(=O)c1cc(C2CC2)ncc1N(N)CC1(C)CCC1

>  <fragmenstein_mode>  (261) 
expansion

>  <rmsd(smina/fragmenstein)>  (261) 
1.272

>  <inspiration_score>  (261) 
None

>  <name>  (261) 
AETFGALWHHEGJO-UHFFFAOYSA-N-P308-P15-P308-601501

>  <ref_pdb>  (261) 
A0528a

>  <ref_mols>  (261) 
A4331a,A0514a

>  <subsites>  (261) 
None

>  <tags>  (261) 
openbind_a71ev2a_c1_elabs_filtered,fragmenstein_placed,a71ev2a_c1_elab_bulkdock_input,openbind_a71ev2a_c1_elab_chemspace_filtered_scored

>  <inchikey>  (261) 
AETFGALWHHEGJO-UHFFFAOYSA-N

>  <scratch_subdir>  (261) 
/opt/xchem-fragalysis-2/maxwin/BulkDock/SCRATCH/601501/AETFGALWHHEGJO-UHFFFAOYSA-N-P308-P15-P308-601501

>  <smina_score_min>  (261) 
-5.929

>  <energy_score>  (261) 
-32.890302

>  <Energy>  (261) 
110.402337

>  <fragmenstein_outcome>  (261) 
too moved

>  <alias>  (261) 
AETFGALWHHEGJO-UHFFFAOYSA-N-P308-P15-P308-601501

>  <HIPPO Pose ID>  (261) 
501917

>  <exports>  (261) 
['/opt/xchem-fragalysis-2/maxwin/openbind-hippo/a71ev2a/cycle_01/bulkdock/openbind_a71ev2a_c1_elab_chemspace.sdf', '/opt/xchem-fragalysis-2/maxwin/openbind-hippo/a71ev2a/cycle_01/syndirella/elabs/openbind_a71ev2a_c1_elab_chemspace_filtered.sdf']

>  <HIPPO Compound ID>  (261) 
292672

>  <gnina_score>  (261) 
5.717

$$$$
KQERYPVOULVVEB-UHFFFAOYSA-N-P308-P15-P308-601501
     RDKit          3D

 21 23  0  0  0  0  0  0  0  0999 V2000
    9.4729    8.7428   23.1548 C   0  0  0  0  0  0  0  0  0  0  0  0
    8.5767    9.6084   23.8455 O   0  0  0  0  0  0  0  0  0  0  0  0
    9.1836   10.5959   24.5479 C   0  0  0  0  0  0  0  0  0  0  0  0
   10.3850   10.7649   24.6709 O   0  0  0  0  0  0  0  0  0  0  0  0
    8.1198   11.4381   25.1415 C   0  0  0  0  0  0  0  0  0  0  0  0
    6.9843   10.8177   25.6875 C   0  0  0  0  0  0  0  0  0  0  0  0
    6.0372   11.5961   26.3430 C   0  0  0  0  0  0  0  0  0  0  0  0
    4.9354   11.0185   27.1877 C   0  0  0  0  0  0  0  0  0  0  0  0
    3.7238   11.8594   27.5402 C   0  0  0  0  0  0  0  0  0  0  0  0
    4.7655   11.6060   28.5799 C   0  0  0  0  0  0  0  0  0  0  0  0
    6.1489   12.9398   26.3737 N   0  0  0  0  0  0  0  0  0  0  0  0
    7.2264   13.5154   25.8316 C   0  0  0  0  0  0  0  0  0  0  0  0
    8.2690   12.8240   25.2293 C   0  0  0  0  0  0  0  0  0  0  0  0
    9.3785   13.5414   24.6976 N   0  0  0  0  0  0  0  0  0  0  0  0
    9.8451   14.5632   25.6023 N   0  0  0  0  0  0  0  0  0  0  0  0
    8.9595   13.9989   23.3359 C   0  0  0  0  0  0  0  0  0  0  0  0
   10.0085   14.6702   22.5086 C   0  0  0  0  0  0  0  0  0  0  0  0
   11.3652   14.8143   22.7173 C   0  0  0  0  0  0  0  0  0  0  0  0
   11.9936   15.5258   21.6600 C   0  0  0  0  0  0  0  0  0  0  0  0
   11.1143   15.8221   20.6444 C   0  0  0  0  0  0  0  0  0  0  0  0
    9.5189   15.3838   21.0330 S   0  0  0  0  0  0  0  0  0  0  0  0
  1  2  1  0
  2  3  1  0
  3  4  2  0
  3  5  1  0
  5  6  2  0
  6  7  1  0
  7  8  1  0
  8  9  1  0
  9 10  1  0
  7 11  2  0
 11 12  1  0
 12 13  2  0
 13 14  1  0
 14 15  1  0
 14 16  1  0
 16 17  1  0
 17 18  2  0
 18 19  1  0
 19 20  2  0
 20 21  1  0
 13  5  1  0
 21 17  1  0
 10  8  1  0
M  END
>  <distance_score>  (262) 
1.382719

>  <smiles>  (262) 
COC(=O)c1cc(C2CC2)ncc1N(N)Cc1cccs1

>  <fragmenstein_error>  (262) 


>  <fragmenstein_runtime>  (262) 
2.875819

>  <gnina_score_min>  (262) 
5.518

>  <orig_smiles>  (262) 
COC(=O)c1cc(C2CC2)ncc1N(N)Cc1cccs1

>  <fragmenstein_mode>  (262) 
expansion

>  <rmsd(smina/fragmenstein)>  (262) 
1.024

>  <inspiration_score>  (262) 
None

>  <name>  (262) 
KQERYPVOULVVEB-UHFFFAOYSA-N-P308-P15-P308-601501

>  <ref_pdb>  (262) 
A0528a

>  <ref_mols>  (262) 
A4331a,A0514a

>  <subsites>  (262) 
None

>  <tags>  (262) 
openbind_a71ev2a_c1_elabs_filtered,fragmenstein_placed,a71ev2a_c1_elab_bulkdock_input,openbind_a71ev2a_c1_elab_chemspace_filtered_scored

>  <inchikey>  (262) 
KQERYPVOULVVEB-UHFFFAOYSA-N

>  <scratch_subdir>  (262) 
/opt/xchem-fragalysis-2/maxwin/BulkDock/SCRATCH/601501/KQERYPVOULVVEB-UHFFFAOYSA-N-P308-P15-P308-601501

>  <smina_score_min>  (262) 
-5.744

>  <energy_score>  (262) 
-43.487728

>  <Energy>  (262) 
111.359821

>  <fragmenstein_outcome>  (262) 
too moved

>  <alias>  (262) 
KQERYPVOULVVEB-UHFFFAOYSA-N-P308-P15-P308-601501

>  <HIPPO Pose ID>  (262) 
501919

>  <exports>  (262) 
['/opt/xchem-fragalysis-2/maxwin/openbind-hippo/a71ev2a/cycle_01/bulkdock/openbind_a71ev2a_c1_elab_chemspace.sdf', '/opt/xchem-fragalysis-2/maxwin/openbind-hippo/a71ev2a/cycle_01/syndirella/elabs/openbind_a71ev2a_c1_elab_chemspace_filtered.sdf']

>  <HIPPO Compound ID>  (262) 
292673

>  <gnina_score>  (262) 
5.622

$$$$
HEHLXZLMNHXABI-UHFFFAOYSA-N-P308-P15-P308-601501
     RDKit          3D

 21 23  0  0  0  0  0  0  0  0999 V2000
    9.5232    8.6949   23.1806 C   0  0  0  0  0  0  0  0  0  0  0  0
    8.6726    9.6717   23.7707 O   0  0  0  0  0  0  0  0  0  0  0  0
    9.3266   10.6636   24.4236 C   0  0  0  0  0  0  0  0  0  0  0  0
   10.5251   10.7309   24.6369 O   0  0  0  0  0  0  0  0  0  0  0  0
    8.2946   11.6553   24.7979 C   0  0  0  0  0  0  0  0  0  0  0  0
    7.1601   11.2070   25.4715 C   0  0  0  0  0  0  0  0  0  0  0  0
    6.2183   12.1299   25.9036 C   0  0  0  0  0  0  0  0  0  0  0  0
    5.1284   11.7278   26.8612 C   0  0  0  0  0  0  0  0  0  0  0  0
    3.9375   12.6227   27.1038 C   0  0  0  0  0  0  0  0  0  0  0  0
    5.0095   12.5263   28.1452 C   0  0  0  0  0  0  0  0  0  0  0  0
    6.3211   13.4335   25.5694 N   0  0  0  0  0  0  0  0  0  0  0  0
    7.4100   13.8372   24.8951 C   0  0  0  0  0  0  0  0  0  0  0  0
    8.4668   13.0160   24.5424 C   0  0  0  0  0  0  0  0  0  0  0  0
    9.7247   13.5684   24.2387 N   0  0  0  0  0  0  0  0  0  0  0  0
   10.5360   13.5556   25.3912 N   0  0  0  0  0  0  0  0  0  0  0  0
   10.1148   14.3816   23.1530 C   0  0  0  0  0  0  0  0  0  0  0  0
    9.3545   14.5967   22.0184 C   0  0  0  0  0  0  0  0  0  0  0  0
    9.7657   15.2987   20.9386 N   0  0  0  0  0  0  0  0  0  0  0  0
   10.9971   15.8254   21.0143 C   0  0  0  0  0  0  0  0  0  0  0  0
   11.8273   15.7183   22.0551 N   0  0  0  0  0  0  0  0  0  0  0  0
   11.3599   14.9955   23.0872 C   0  0  0  0  0  0  0  0  0  0  0  0
  1  2  1  0
  2  3  1  0
  3  4  2  0
  3  5  1  0
  5  6  2  0
  6  7  1  0
  7  8  1  0
  8  9  1  0
  9 10  1  0
  7 11  2  0
 11 12  1  0
 12 13  2  0
 13 14  1  0
 14 15  1  0
 14 16  1  0
 16 17  2  0
 17 18  1  0
 18 19  2  0
 19 20  1  0
 20 21  2  0
 13  5  1  0
 21 16  1  0
 10  8  1  0
M  END
>  <distance_score>  (263) 
1.864421

>  <smiles>  (263) 
COC(=O)c1cc(C2CC2)ncc1N(N)c1cncnc1

>  <fragmenstein_error>  (263) 


>  <fragmenstein_runtime>  (263) 
7.645939

>  <gnina_score_min>  (263) 
5.254

>  <orig_smiles>  (263) 
COC(=O)c1cc(C2CC2)ncc1N(N)c1cncnc1

>  <fragmenstein_mode>  (263) 
expansion

>  <rmsd(smina/fragmenstein)>  (263) 
1.086

>  <inspiration_score>  (263) 
None

>  <name>  (263) 
HEHLXZLMNHXABI-UHFFFAOYSA-N-P308-P15-P308-601501

>  <ref_pdb>  (263) 
A0528a

>  <ref_mols>  (263) 
A4331a,A0514a

>  <subsites>  (263) 
None

>  <tags>  (263) 
openbind_a71ev2a_c1_elabs_filtered,fragmenstein_placed,a71ev2a_c1_elab_bulkdock_input,openbind_a71ev2a_c1_elab_chemspace_filtered_scored

>  <inchikey>  (263) 
HEHLXZLMNHXABI-UHFFFAOYSA-N

>  <scratch_subdir>  (263) 
/opt/xchem-fragalysis-2/maxwin/BulkDock/SCRATCH/601501/HEHLXZLMNHXABI-UHFFFAOYSA-N-P308-P15-P308-601501

>  <smina_score_min>  (263) 
-6.339

>  <energy_score>  (263) 
-52.545364

>  <Energy>  (263) 
92.42704

>  <fragmenstein_outcome>  (263) 
too moved

>  <alias>  (263) 
HEHLXZLMNHXABI-UHFFFAOYSA-N-P308-P15-P308-601501

>  <HIPPO Pose ID>  (263) 
501927

>  <exports>  (263) 
['/opt/xchem-fragalysis-2/maxwin/openbind-hippo/a71ev2a/cycle_01/bulkdock/openbind_a71ev2a_c1_elab_chemspace.sdf', '/opt/xchem-fragalysis-2/maxwin/openbind-hippo/a71ev2a/cycle_01/syndirella/elabs/openbind_a71ev2a_c1_elab_chemspace_filtered.sdf']

>  <HIPPO Compound ID>  (263) 
292677

>  <gnina_score>  (263) 
5.537

$$$$
YAZRHMQCCRPOBD-UHFFFAOYSA-N-P308-P15-P308-601501
     RDKit          3D

 21 23  0  0  0  0  0  0  0  0999 V2000
    9.2352    8.7995   23.2947 C   0  0  0  0  0  0  0  0  0  0  0  0
    8.4026    9.8507   23.7877 O   0  0  0  0  0  0  0  0  0  0  0  0
    9.0903   10.8578   24.3777 C   0  0  0  0  0  0  0  0  0  0  0  0
   10.2929   10.8765   24.5790 O   0  0  0  0  0  0  0  0  0  0  0  0
    8.1291   11.9296   24.7533 C   0  0  0  0  0  0  0  0  0  0  0  0
    6.9539   11.5186   25.4047 C   0  0  0  0  0  0  0  0  0  0  0  0
    6.0294   12.4675   25.8114 C   0  0  0  0  0  0  0  0  0  0  0  0
    4.7712   12.1748   26.5651 C   0  0  0  0  0  0  0  0  0  0  0  0
    4.6162   11.1601   27.6568 C   0  0  0  0  0  0  0  0  0  0  0  0
    4.7710   12.6046   28.0204 C   0  0  0  0  0  0  0  0  0  0  0  0
    6.2181   13.7677   25.5459 N   0  0  0  0  0  0  0  0  0  0  0  0
    7.3291   14.1302   24.8871 C   0  0  0  0  0  0  0  0  0  0  0  0
    8.3715   13.2963   24.5031 C   0  0  0  0  0  0  0  0  0  0  0  0
    9.5965   13.8101   24.0153 N   0  0  0  0  0  0  0  0  0  0  0  0
   10.6903   13.4280   24.8390 N   0  0  0  0  0  0  0  0  0  0  0  0
    9.6616   15.2220   23.4902 C   0  0  0  0  0  0  0  0  0  0  0  0
    9.0807   15.3186   22.0744 C   0  0  0  0  0  0  0  0  0  0  0  0
   10.0760   14.8351   21.0309 C   0  0  0  0  0  0  0  0  0  0  0  0
   11.3207   15.5126   21.1473 O   0  0  0  0  0  0  0  0  0  0  0  0
   11.9417   15.2344   22.3936 C   0  0  0  0  0  0  0  0  0  0  0  0
   11.0861   15.7984   23.5045 C   0  0  0  0  0  0  0  0  0  0  0  0
  1  2  1  0
  2  3  1  0
  3  4  2  0
  3  5  1  0
  5  6  2  0
  6  7  1  0
  7  8  1  0
  8  9  1  0
  9 10  1  0
  7 11  2  0
 11 12  1  0
 12 13  2  0
 13 14  1  0
 14 15  1  0
 14 16  1  0
 16 17  1  0
 17 18  1  0
 18 19  1  0
 19 20  1  0
 20 21  1  0
 13  5  1  0
 21 16  1  0
 10  8  1  0
M  END
>  <distance_score>  (264) 
1.58727

>  <smiles>  (264) 
COC(=O)c1cc(C2CC2)ncc1N(N)C1CCOCC1

>  <fragmenstein_error>  (264) 


>  <fragmenstein_runtime>  (264) 
6.616964

>  <gnina_score_min>  (264) 
4.907

>  <orig_smiles>  (264) 
COC(=O)c1cc(C2CC2)ncc1N(N)C1CCOCC1

>  <fragmenstein_mode>  (264) 
expansion

>  <rmsd(smina/fragmenstein)>  (264) 
1.766

>  <inspiration_score>  (264) 
None

>  <name>  (264) 
YAZRHMQCCRPOBD-UHFFFAOYSA-N-P308-P15-P308-601501

>  <ref_pdb>  (264) 
A0528a

>  <ref_mols>  (264) 
A4331a,A0514a

>  <subsites>  (264) 
None

>  <tags>  (264) 
openbind_a71ev2a_c1_elabs_filtered,fragmenstein_placed,a71ev2a_c1_elab_bulkdock_input,openbind_a71ev2a_c1_elab_chemspace_filtered_scored

>  <inchikey>  (264) 
YAZRHMQCCRPOBD-UHFFFAOYSA-N

>  <scratch_subdir>  (264) 
/opt/xchem-fragalysis-2/maxwin/BulkDock/SCRATCH/601501/YAZRHMQCCRPOBD-UHFFFAOYSA-N-P308-P15-P308-601501

>  <smina_score_min>  (264) 
-7.117

>  <energy_score>  (264) 
-42.411235

>  <Energy>  (264) 
87.672706

>  <fragmenstein_outcome>  (264) 
too moved

>  <alias>  (264) 
YAZRHMQCCRPOBD-UHFFFAOYSA-N-P308-P15-P308-601501

>  <HIPPO Pose ID>  (264) 
501935

>  <exports>  (264) 
['/opt/xchem-fragalysis-2/maxwin/openbind-hippo/a71ev2a/cycle_01/bulkdock/openbind_a71ev2a_c1_elab_chemspace.sdf', '/opt/xchem-fragalysis-2/maxwin/openbind-hippo/a71ev2a/cycle_01/syndirella/elabs/openbind_a71ev2a_c1_elab_chemspace_filtered.sdf']

>  <HIPPO Compound ID>  (264) 
292681

>  <gnina_score>  (264) 
5.321

$$$$
HAJQORSFGXGTLO-UHFFFAOYSA-N-P308-P15-P308-601501
     RDKit          3D

 21 22  0  0  0  0  0  0  0  0999 V2000
   12.1733   16.2360   21.4813 C   0  0  0  0  0  0  0  0  0  0  0  0
   11.5390   15.0968   20.7101 C   0  0  0  0  0  0  0  0  0  0  0  0
   10.4032   14.6017   21.4298 O   0  0  0  0  0  0  0  0  0  0  0  0
   10.6922   13.8761   22.5500 C   0  0  0  0  0  0  0  0  0  0  0  0
   11.8173   13.5980   22.9541 O   0  0  0  0  0  0  0  0  0  0  0  0
    9.3885   13.5646   23.2651 C   0  0  0  0  0  0  0  0  0  0  0  0
    9.5652   12.6708   24.4480 N   0  0  0  0  0  0  0  0  0  0  0  0
   10.5716   13.0096   25.4086 N   0  0  0  0  0  0  0  0  0  0  0  0
    8.3143   12.3670   25.0321 C   0  0  0  0  0  0  0  0  0  0  0  0
    7.5812   13.3610   25.6692 C   0  0  0  0  0  0  0  0  0  0  0  0
    6.4329   13.1676   26.3353 N   0  0  0  0  0  0  0  0  0  0  0  0
    5.9311   11.9173   26.4129 C   0  0  0  0  0  0  0  0  0  0  0  0
    4.7255   11.7089   27.2817 C   0  0  0  0  0  0  0  0  0  0  0  0
    3.5549   12.6536   27.1714 C   0  0  0  0  0  0  0  0  0  0  0  0
    4.4401   12.7145   28.3790 C   0  0  0  0  0  0  0  0  0  0  0  0
    6.5540   10.8671   25.7645 C   0  0  0  0  0  0  0  0  0  0  0  0
    7.7523   11.0872   25.0707 C   0  0  0  0  0  0  0  0  0  0  0  0
    8.3203    9.8735   24.4553 C   0  0  0  0  0  0  0  0  0  0  0  0
    7.9540    8.7593   24.8014 O   0  0  0  0  0  0  0  0  0  0  0  0
    9.1737   10.1460   23.4503 O   0  0  0  0  0  0  0  0  0  0  0  0
    9.6917    8.9696   22.8384 C   0  0  0  0  0  0  0  0  0  0  0  0
  1  2  1  0
  2  3  1  0
  3  4  1  0
  4  5  2  0
  4  6  1  0
  6  7  1  0
  7  8  1  0
  7  9  1  0
  9 10  2  0
 10 11  1  0
 11 12  2  0
 12 13  1  0
 13 14  1  0
 14 15  1  0
 12 16  1  0
 16 17  2  0
 17 18  1  0
 18 19  2  0
 18 20  1  0
 20 21  1  0
 17  9  1  0
 15 13  1  0
M  END
>  <distance_score>  (265) 
1.418024

>  <smiles>  (265) 
CCOC(=O)CN(N)c1cnc(C2CC2)cc1C(=O)OC

>  <fragmenstein_error>  (265) 


>  <fragmenstein_runtime>  (265) 
5.223899

>  <gnina_score_min>  (265) 
4.602

>  <orig_smiles>  (265) 
CCOC(=O)CN(N)c1cnc(C2CC2)cc1C(=O)OC

>  <fragmenstein_mode>  (265) 
expansion

>  <rmsd(smina/fragmenstein)>  (265) 
1.727

>  <inspiration_score>  (265) 
None

>  <name>  (265) 
HAJQORSFGXGTLO-UHFFFAOYSA-N-P308-P15-P308-601501

>  <ref_pdb>  (265) 
A0528a

>  <ref_mols>  (265) 
A4331a,A0514a

>  <subsites>  (265) 
None

>  <tags>  (265) 
openbind_a71ev2a_c1_elabs_filtered,fragmenstein_placed,a71ev2a_c1_elab_bulkdock_input,openbind_a71ev2a_c1_elab_chemspace_filtered_scored

>  <inchikey>  (265) 
HAJQORSFGXGTLO-UHFFFAOYSA-N

>  <scratch_subdir>  (265) 
/opt/xchem-fragalysis-2/maxwin/BulkDock/SCRATCH/601501/HAJQORSFGXGTLO-UHFFFAOYSA-N-P308-P15-P308-601501

>  <smina_score_min>  (265) 
-5.26

>  <energy_score>  (265) 
-28.523667

>  <Energy>  (265) 
130.794378

>  <fragmenstein_outcome>  (265) 
too moved

>  <alias>  (265) 
HAJQORSFGXGTLO-UHFFFAOYSA-N-P308-P15-P308-601501

>  <HIPPO Pose ID>  (265) 
501939

>  <exports>  (265) 
['/opt/xchem-fragalysis-2/maxwin/openbind-hippo/a71ev2a/cycle_01/bulkdock/openbind_a71ev2a_c1_elab_chemspace.sdf', '/opt/xchem-fragalysis-2/maxwin/openbind-hippo/a71ev2a/cycle_01/syndirella/elabs/openbind_a71ev2a_c1_elab_chemspace_filtered.sdf']

>  <HIPPO Compound ID>  (265) 
292683

>  <gnina_score>  (265) 
5.278

$$$$
YNZIKHTYFZQIOA-UHFFFAOYSA-N-P308-P15-P308-601501
     RDKit          3D

 21 23  0  0  0  0  0  0  0  0999 V2000
    9.6815    8.7934   23.2038 C   0  0  0  0  0  0  0  0  0  0  0  0
    8.8093    9.8137   23.6765 O   0  0  0  0  0  0  0  0  0  0  0  0
    9.3989   10.8207   24.3642 C   0  0  0  0  0  0  0  0  0  0  0  0
   10.5700   10.9202   24.6880 O   0  0  0  0  0  0  0  0  0  0  0  0
    8.3082   11.7452   24.7213 C   0  0  0  0  0  0  0  0  0  0  0  0
    7.2191   11.2152   25.4207 C   0  0  0  0  0  0  0  0  0  0  0  0
    6.2337   12.0659   25.9016 C   0  0  0  0  0  0  0  0  0  0  0  0
    5.1923   11.5880   26.8792 C   0  0  0  0  0  0  0  0  0  0  0  0
    3.9718   12.4259   27.1832 C   0  0  0  0  0  0  0  0  0  0  0  0
    5.0781   12.3490   28.1878 C   0  0  0  0  0  0  0  0  0  0  0  0
    6.2497   13.3776   25.5994 N   0  0  0  0  0  0  0  0  0  0  0  0
    7.2868   13.8522   24.8928 C   0  0  0  0  0  0  0  0  0  0  0  0
    8.3939   13.1142   24.4930 C   0  0  0  0  0  0  0  0  0  0  0  0
    9.6164   13.7540   24.1952 N   0  0  0  0  0  0  0  0  0  0  0  0
   10.0829   14.4819   25.3829 C   0  0  0  0  0  0  0  0  0  0  0  0
    9.8852   14.2154   22.8703 N   0  0  0  0  0  0  0  0  0  0  0  0
    9.1491   15.4472   22.5061 C   0  0  0  0  0  0  0  0  0  0  0  0
    9.6129   16.0141   21.1547 C   0  0  0  0  0  0  0  0  0  0  0  0
   11.0149   16.2846   21.1700 O   0  0  0  0  0  0  0  0  0  0  0  0
   11.7273   15.0682   21.3823 C   0  0  0  0  0  0  0  0  0  0  0  0
   11.3436   14.4650   22.7316 C   0  0  0  0  0  0  0  0  0  0  0  0
  1  2  1  0
  2  3  1  0
  3  4  2  0
  3  5  1  0
  5  6  2  0
  6  7  1  0
  7  8  1  0
  8  9  1  0
  9 10  1  0
  7 11  2  0
 11 12  1  0
 12 13  2  0
 13 14  1  0
 14 15  1  0
 14 16  1  0
 16 17  1  0
 17 18  1  0
 18 19  1  0
 19 20  1  0
 20 21  1  0
 13  5  1  0
 21 16  1  0
 10  8  1  0
M  END
>  <distance_score>  (266) 
1.971111

>  <smiles>  (266) 
COC(=O)c1cc(C2CC2)ncc1N(C)N1CCOCC1

>  <fragmenstein_error>  (266) 


>  <fragmenstein_runtime>  (266) 
6.460044

>  <gnina_score_min>  (266) 
5.038

>  <orig_smiles>  (266) 
COC(=O)c1cc(C2CC2)ncc1N(C)N1CCOCC1

>  <fragmenstein_mode>  (266) 
expansion

>  <rmsd(smina/fragmenstein)>  (266) 
1.051

>  <inspiration_score>  (266) 
None

>  <name>  (266) 
YNZIKHTYFZQIOA-UHFFFAOYSA-N-P308-P15-P308-601501

>  <ref_pdb>  (266) 
A0528a

>  <ref_mols>  (266) 
A4331a,A0514a

>  <subsites>  (266) 
None

>  <tags>  (266) 
openbind_a71ev2a_c1_elabs_filtered,fragmenstein_placed,a71ev2a_c1_elab_bulkdock_input,openbind_a71ev2a_c1_elab_chemspace_filtered_scored

>  <inchikey>  (266) 
YNZIKHTYFZQIOA-UHFFFAOYSA-N

>  <scratch_subdir>  (266) 
/opt/xchem-fragalysis-2/maxwin/BulkDock/SCRATCH/601501/YNZIKHTYFZQIOA-UHFFFAOYSA-N-P308-P15-P308-601501

>  <smina_score_min>  (266) 
-5.636

>  <energy_score>  (266) 
-36.20467

>  <Energy>  (266) 
143.68782

>  <fragmenstein_outcome>  (266) 
too moved

>  <alias>  (266) 
YNZIKHTYFZQIOA-UHFFFAOYSA-N-P308-P15-P308-601501

>  <HIPPO Pose ID>  (266) 
501947

>  <exports>  (266) 
['/opt/xchem-fragalysis-2/maxwin/openbind-hippo/a71ev2a/cycle_01/bulkdock/openbind_a71ev2a_c1_elab_chemspace.sdf', '/opt/xchem-fragalysis-2/maxwin/openbind-hippo/a71ev2a/cycle_01/syndirella/elabs/openbind_a71ev2a_c1_elab_chemspace_filtered.sdf']

>  <HIPPO Compound ID>  (266) 
292687

>  <gnina_score>  (266) 
5.229

$$$$
KQAFYFLLOUMQMZ-UHFFFAOYSA-N-P15-P15-P308-601501
     RDKit          3D

 21 23  0  0  0  0  0  0  0  0999 V2000
    9.3443    8.7884   22.9547 C   0  0  0  0  0  0  0  0  0  0  0  0
    8.4754    9.7406   23.5742 O   0  0  0  0  0  0  0  0  0  0  0  0
    9.0646   10.9418   23.7974 C   0  0  0  0  0  0  0  0  0  0  0  0
   10.2103   11.2147   23.4993 O   0  0  0  0  0  0  0  0  0  0  0  0
    8.1412   11.8283   24.5484 C   0  0  0  0  0  0  0  0  0  0  0  0
    7.3298   11.1876   25.5046 C   0  0  0  0  0  0  0  0  0  0  0  0
    6.5715   11.9210   26.4101 C   0  0  0  0  0  0  0  0  0  0  0  0
    5.6376   11.2662   27.3924 C   0  0  0  0  0  0  0  0  0  0  0  0
    4.2989   11.9088   27.6819 C   0  0  0  0  0  0  0  0  0  0  0  0
    5.3818   11.9580   28.7153 C   0  0  0  0  0  0  0  0  0  0  0  0
    6.6825   13.2560   26.4668 N   0  0  0  0  0  0  0  0  0  0  0  0
    7.3923   13.8482   25.5018 C   0  0  0  0  0  0  0  0  0  0  0  0
    8.0849   13.2193   24.4584 C   0  0  0  0  0  0  0  0  0  0  0  0
    8.4697   14.0916   23.3956 N   0  0  0  0  0  0  0  0  0  0  0  0
    7.2202   14.5257   22.7350 C   0  0  0  0  0  0  0  0  0  0  0  0
    9.6241   13.8539   22.5788 N   0  0  0  0  0  0  0  0  0  0  0  0
    9.6643   14.8229   21.4457 C   0  0  0  0  0  0  0  0  0  0  0  0
   10.9702   14.9399   20.6705 C   0  0  0  0  0  0  0  0  0  0  0  0
   12.1734   15.0513   21.5787 C   0  0  0  0  0  0  0  0  0  0  0  0
   12.1194   13.9621   22.6310 C   0  0  0  0  0  0  0  0  0  0  0  0
   10.8250   14.0052   23.4173 C   0  0  0  0  0  0  0  0  0  0  0  0
  1  2  1  0
  2  3  1  0
  3  4  2  0
  3  5  1  0
  5  6  2  0
  6  7  1  0
  7  8  1  0
  8  9  1  0
  9 10  1  0
  7 11  2  0
 11 12  1  0
 12 13  2  0
 13 14  1  0
 14 15  1  0
 14 16  1  0
 16 17  1  0
 17 18  1  0
 18 19  1  0
 19 20  1  0
 20 21  1  0
 13  5  1  0
 21 16  1  0
 10  8  1  0
M  END
>  <distance_score>  (267) 
1.60292

>  <smiles>  (267) 
COC(=O)c1cc(C2CC2)ncc1N(C)N1CCCCC1

>  <fragmenstein_error>  (267) 


>  <fragmenstein_runtime>  (267) 
7.78875

>  <gnina_score_min>  (267) 
5.107

>  <orig_smiles>  (267) 
COC(=O)c1cc(C2CC2)ncc1N(C)N1CCCCC1

>  <fragmenstein_mode>  (267) 
expansion

>  <rmsd(smina/fragmenstein)>  (267) 
0.974

>  <inspiration_score>  (267) 
None

>  <name>  (267) 
KQAFYFLLOUMQMZ-UHFFFAOYSA-N-P15-P15-P308-601501

>  <ref_pdb>  (267) 
A0528a

>  <ref_mols>  (267) 
A4331a,A0514a

>  <subsites>  (267) 
None

>  <tags>  (267) 
openbind_a71ev2a_c1_elabs_filtered,fragmenstein_placed,a71ev2a_c1_elab_bulkdock_input,openbind_a71ev2a_c1_elab_chemspace_filtered_scored

>  <inchikey>  (267) 
KQAFYFLLOUMQMZ-UHFFFAOYSA-N

>  <scratch_subdir>  (267) 
/opt/xchem-fragalysis-2/maxwin/BulkDock/SCRATCH/601501/KQAFYFLLOUMQMZ-UHFFFAOYSA-N-P15-P15-P308-601501

>  <smina_score_min>  (267) 
-6.19

>  <energy_score>  (267) 
-43.189611

>  <Energy>  (267) 
100.219053

>  <fragmenstein_outcome>  (267) 
too moved

>  <alias>  (267) 
KQAFYFLLOUMQMZ-UHFFFAOYSA-N-P15-P15-P308-601501

>  <HIPPO Pose ID>  (267) 
501948

>  <exports>  (267) 
['/opt/xchem-fragalysis-2/maxwin/openbind-hippo/a71ev2a/cycle_01/bulkdock/openbind_a71ev2a_c1_elab_chemspace.sdf', '/opt/xchem-fragalysis-2/maxwin/openbind-hippo/a71ev2a/cycle_01/syndirella/elabs/openbind_a71ev2a_c1_elab_chemspace_filtered.sdf']

>  <HIPPO Compound ID>  (267) 
292688

>  <gnina_score>  (267) 
5.108

$$$$
INCJOAKAPGBJCZ-UHFFFAOYSA-N-P308-P15-P308-601501
     RDKit          3D

 21 23  0  0  0  0  0  0  0  0999 V2000
    9.1122    8.6391   24.0364 C   0  0  0  0  0  0  0  0  0  0  0  0
    8.3798    9.7276   24.5957 O   0  0  0  0  0  0  0  0  0  0  0  0
    8.6345   10.8920   23.9563 C   0  0  0  0  0  0  0  0  0  0  0  0
    9.3769   11.0241   22.9996 O   0  0  0  0  0  0  0  0  0  0  0  0
    7.9091   12.0071   24.5990 C   0  0  0  0  0  0  0  0  0  0  0  0
    6.7051   11.7567   25.2563 C   0  0  0  0  0  0  0  0  0  0  0  0
    5.9919   12.8175   25.7940 C   0  0  0  0  0  0  0  0  0  0  0  0
    4.6750   12.6262   26.4787 C   0  0  0  0  0  0  0  0  0  0  0  0
    4.5169   11.7960   27.7223 C   0  0  0  0  0  0  0  0  0  0  0  0
    4.4889   13.2898   27.8271 C   0  0  0  0  0  0  0  0  0  0  0  0
    6.4400   14.0846   25.6935 N   0  0  0  0  0  0  0  0  0  0  0  0
    7.5994   14.2987   25.0506 C   0  0  0  0  0  0  0  0  0  0  0  0
    8.4010   13.3136   24.5040 C   0  0  0  0  0  0  0  0  0  0  0  0
    9.7082   13.6448   24.0886 N   0  0  0  0  0  0  0  0  0  0  0  0
   10.7327   12.9397   24.7473 N   0  0  0  0  0  0  0  0  0  0  0  0
   10.1187   14.5158   23.0433 C   0  0  0  0  0  0  0  0  0  0  0  0
   11.4381   14.9745   22.9707 C   0  0  0  0  0  0  0  0  0  0  0  0
   11.8357   15.7368   21.8927 C   0  0  0  0  0  0  0  0  0  0  0  0
   10.9927   16.0813   20.9064 N   0  0  0  0  0  0  0  0  0  0  0  0
    9.7007   15.6698   20.9641 N   0  0  0  0  0  0  0  0  0  0  0  0
    9.2854   14.9161   22.0085 C   0  0  0  0  0  0  0  0  0  0  0  0
  1  2  1  0
  2  3  1  0
  3  4  2  0
  3  5  1  0
  5  6  2  0
  6  7  1  0
  7  8  1  0
  8  9  1  0
  9 10  1  0
  7 11  2  0
 11 12  1  0
 12 13  2  0
 13 14  1  0
 14 15  1  0
 14 16  1  0
 16 17  2  0
 17 18  1  0
 18 19  2  0
 19 20  1  0
 20 21  2  0
 13  5  1  0
 21 16  1  0
 10  8  1  0
M  END
>  <distance_score>  (268) 
1.986713

>  <smiles>  (268) 
COC(=O)c1cc(C2CC2)ncc1N(N)c1ccnnc1

>  <fragmenstein_error>  (268) 


>  <fragmenstein_runtime>  (268) 
5.532084

>  <gnina_score_min>  (268) 
5.273

>  <orig_smiles>  (268) 
COC(=O)c1cc(C2CC2)ncc1N(N)c1ccnnc1

>  <fragmenstein_mode>  (268) 
expansion

>  <rmsd(smina/fragmenstein)>  (268) 
1.408

>  <inspiration_score>  (268) 
None

>  <name>  (268) 
INCJOAKAPGBJCZ-UHFFFAOYSA-N-P308-P15-P308-601501

>  <ref_pdb>  (268) 
A0528a

>  <ref_mols>  (268) 
A4331a,A0514a

>  <subsites>  (268) 
None

>  <tags>  (268) 
openbind_a71ev2a_c1_elabs_filtered,fragmenstein_placed,a71ev2a_c1_elab_bulkdock_input,openbind_a71ev2a_c1_elab_chemspace_filtered_scored

>  <inchikey>  (268) 
INCJOAKAPGBJCZ-UHFFFAOYSA-N

>  <scratch_subdir>  (268) 
/opt/xchem-fragalysis-2/maxwin/BulkDock/SCRATCH/601501/INCJOAKAPGBJCZ-UHFFFAOYSA-N-P308-P15-P308-601501

>  <smina_score_min>  (268) 
-6.785

>  <energy_score>  (268) 
-51.111967

>  <Energy>  (268) 
83.920351

>  <fragmenstein_outcome>  (268) 
too moved

>  <alias>  (268) 
INCJOAKAPGBJCZ-UHFFFAOYSA-N-P308-P15-P308-601501

>  <HIPPO Pose ID>  (268) 
501953

>  <exports>  (268) 
['/opt/xchem-fragalysis-2/maxwin/openbind-hippo/a71ev2a/cycle_01/bulkdock/openbind_a71ev2a_c1_elab_chemspace.sdf', '/opt/xchem-fragalysis-2/maxwin/openbind-hippo/a71ev2a/cycle_01/syndirella/elabs/openbind_a71ev2a_c1_elab_chemspace_filtered.sdf']

>  <HIPPO Compound ID>  (268) 
292690

>  <gnina_score>  (268) 
5.344

$$$$
BNBDXEBAHCKXCT-UHFFFAOYSA-N-P308-P15-P308-601501
     RDKit          3D

 21 22  0  0  0  0  0  0  0  0999 V2000
    9.2844    8.6013   23.1160 C   0  0  0  0  0  0  0  0  0  0  0  0
    8.5018    9.5730   23.8033 O   0  0  0  0  0  0  0  0  0  0  0  0
    9.2425   10.4362   24.5375 C   0  0  0  0  0  0  0  0  0  0  0  0
   10.4480   10.3798   24.7187 O   0  0  0  0  0  0  0  0  0  0  0  0
    8.3401   11.4899   25.0582 C   0  0  0  0  0  0  0  0  0  0  0  0
    7.0658   11.1439   25.5397 C   0  0  0  0  0  0  0  0  0  0  0  0
    6.2671   12.1438   26.0786 C   0  0  0  0  0  0  0  0  0  0  0  0
    4.8716   11.9518   26.5766 C   0  0  0  0  0  0  0  0  0  0  0  0
    4.4969   11.1097   27.7619 C   0  0  0  0  0  0  0  0  0  0  0  0
    4.5358   12.5979   27.9107 C   0  0  0  0  0  0  0  0  0  0  0  0
    6.7072   13.4177   26.1591 N   0  0  0  0  0  0  0  0  0  0  0  0
    7.9151   13.7274   25.6731 C   0  0  0  0  0  0  0  0  0  0  0  0
    8.7845   12.8189   25.0987 C   0  0  0  0  0  0  0  0  0  0  0  0
   10.0045   13.2388   24.5373 N   0  0  0  0  0  0  0  0  0  0  0  0
   10.8833   13.9995   25.3404 N   0  0  0  0  0  0  0  0  0  0  0  0
    9.8969   13.5819   23.0984 C   0  0  0  0  0  0  0  0  0  0  0  0
    9.5572   15.0459   22.8664 C   0  0  0  0  0  0  0  0  0  0  0  0
    9.4203   15.2953   21.3909 C   0  0  0  0  0  0  0  0  0  0  0  0
   10.5598   15.0114   20.7315 F   0  0  0  0  0  0  0  0  0  0  0  0
    8.4296   14.5312   20.8778 F   0  0  0  0  0  0  0  0  0  0  0  0
    9.1151   16.5857   21.1511 F   0  0  0  0  0  0  0  0  0  0  0  0
  1  2  1  0
  2  3  1  0
  3  4  2  0
  3  5  1  0
  5  6  2  0
  6  7  1  0
  7  8  1  0
  8  9  1  0
  9 10  1  0
  7 11  2  0
 11 12  1  0
 12 13  2  0
 13 14  1  0
 14 15  1  0
 14 16  1  0
 16 17  1  0
 17 18  1  0
 18 19  1  0
 18 20  1  0
 18 21  1  0
 13  5  1  0
 10  8  1  0
M  END
>  <distance_score>  (269) 
1.489547

>  <smiles>  (269) 
COC(=O)c1cc(C2CC2)ncc1N(N)CCC(F)(F)F

>  <fragmenstein_error>  (269) 


>  <fragmenstein_runtime>  (269) 
5.675366

>  <gnina_score_min>  (269) 
5.067

>  <orig_smiles>  (269) 
COC(=O)c1cc(C2CC2)ncc1N(N)CCC(F)(F)F

>  <fragmenstein_mode>  (269) 
expansion

>  <rmsd(smina/fragmenstein)>  (269) 
1.338

>  <inspiration_score>  (269) 
None

>  <name>  (269) 
BNBDXEBAHCKXCT-UHFFFAOYSA-N-P308-P15-P308-601501

>  <ref_pdb>  (269) 
A0528a

>  <ref_mols>  (269) 
A4331a,A0514a

>  <subsites>  (269) 
None

>  <tags>  (269) 
openbind_a71ev2a_c1_elabs_filtered,fragmenstein_placed,a71ev2a_c1_elab_bulkdock_input,openbind_a71ev2a_c1_elab_chemspace_filtered_scored

>  <inchikey>  (269) 
BNBDXEBAHCKXCT-UHFFFAOYSA-N

>  <scratch_subdir>  (269) 
/opt/xchem-fragalysis-2/maxwin/BulkDock/SCRATCH/601501/BNBDXEBAHCKXCT-UHFFFAOYSA-N-P308-P15-P308-601501

>  <smina_score_min>  (269) 
-5.94

>  <energy_score>  (269) 
-29.111889

>  <Energy>  (269) 
73.120198

>  <fragmenstein_outcome>  (269) 
too moved

>  <alias>  (269) 
BNBDXEBAHCKXCT-UHFFFAOYSA-N-P308-P15-P308-601501

>  <HIPPO Pose ID>  (269) 
501961

>  <exports>  (269) 
['/opt/xchem-fragalysis-2/maxwin/openbind-hippo/a71ev2a/cycle_01/bulkdock/openbind_a71ev2a_c1_elab_chemspace.sdf', '/opt/xchem-fragalysis-2/maxwin/openbind-hippo/a71ev2a/cycle_01/syndirella/elabs/openbind_a71ev2a_c1_elab_chemspace_filtered.sdf']

>  <HIPPO Compound ID>  (269) 
292694

>  <gnina_score>  (269) 
5.482

$$$$
KQEFTEXTEAQHDR-UHFFFAOYSA-N-P308-P15-P308-601501
     RDKit          3D

 21 23  0  0  0  0  0  0  0  0999 V2000
    9.5380    8.6598   23.2426 C   0  0  0  0  0  0  0  0  0  0  0  0
    8.6745    9.6284   23.8265 O   0  0  0  0  0  0  0  0  0  0  0  0
    9.3234   10.6445   24.4403 C   0  0  0  0  0  0  0  0  0  0  0  0
   10.5260   10.7513   24.6216 O   0  0  0  0  0  0  0  0  0  0  0  0
    8.3039   11.6523   24.8000 C   0  0  0  0  0  0  0  0  0  0  0  0
    7.1573   11.2350   25.4693 C   0  0  0  0  0  0  0  0  0  0  0  0
    6.2276   12.1825   25.8724 C   0  0  0  0  0  0  0  0  0  0  0  0
    5.0895   11.8013   26.7772 C   0  0  0  0  0  0  0  0  0  0  0  0
    5.0530   12.3696   28.1777 C   0  0  0  0  0  0  0  0  0  0  0  0
    4.0520   12.8313   27.1651 C   0  0  0  0  0  0  0  0  0  0  0  0
    6.3630   13.4804   25.5261 N   0  0  0  0  0  0  0  0  0  0  0  0
    7.4615   13.8508   24.8471 C   0  0  0  0  0  0  0  0  0  0  0  0
    8.5043   13.0049   24.5186 C   0  0  0  0  0  0  0  0  0  0  0  0
    9.7615   13.5220   24.1720 N   0  0  0  0  0  0  0  0  0  0  0  0
   10.6854   13.4230   25.2632 N   0  0  0  0  0  0  0  0  0  0  0  0
   10.1068   14.4053   23.1138 C   0  0  0  0  0  0  0  0  0  0  0  0
   11.3288   14.9991   23.1944 N   0  0  0  0  0  0  0  0  0  0  0  0
   11.7966   15.7303   22.1656 N   0  0  0  0  0  0  0  0  0  0  0  0
   11.0123   15.8443   21.0873 C   0  0  0  0  0  0  0  0  0  0  0  0
    9.7860   15.3045   20.9882 N   0  0  0  0  0  0  0  0  0  0  0  0
    9.3170   14.5737   22.0343 N   0  0  0  0  0  0  0  0  0  0  0  0
  1  2  1  0
  2  3  1  0
  3  4  2  0
  3  5  1  0
  5  6  2  0
  6  7  1  0
  7  8  1  0
  8  9  1  0
  9 10  1  0
  7 11  2  0
 11 12  1  0
 12 13  2  0
 13 14  1  0
 14 15  1  0
 14 16  1  0
 16 17  2  0
 17 18  1  0
 18 19  2  0
 19 20  1  0
 20 21  2  0
 13  5  1  0
 21 16  1  0
 10  8  1  0
M  END
>  <distance_score>  (270) 
1.984575

>  <smiles>  (270) 
COC(=O)c1cc(C2CC2)ncc1N(N)c1nncnn1

>  <fragmenstein_error>  (270) 


>  <fragmenstein_runtime>  (270) 
6.140537

>  <gnina_score_min>  (270) 
5.006

>  <orig_smiles>  (270) 
COC(=O)c1cc(C2CC2)ncc1N(N)c1nncnn1

>  <fragmenstein_mode>  (270) 
expansion

>  <rmsd(smina/fragmenstein)>  (270) 
1.203

>  <inspiration_score>  (270) 
None

>  <name>  (270) 
KQEFTEXTEAQHDR-UHFFFAOYSA-N-P308-P15-P308-601501

>  <ref_pdb>  (270) 
A0528a

>  <ref_mols>  (270) 
A4331a,A0514a

>  <subsites>  (270) 
None

>  <tags>  (270) 
openbind_a71ev2a_c1_elabs_filtered,fragmenstein_placed,a71ev2a_c1_elab_bulkdock_input,openbind_a71ev2a_c1_elab_chemspace_filtered_scored

>  <inchikey>  (270) 
KQEFTEXTEAQHDR-UHFFFAOYSA-N

>  <scratch_subdir>  (270) 
/opt/xchem-fragalysis-2/maxwin/BulkDock/SCRATCH/601501/KQEFTEXTEAQHDR-UHFFFAOYSA-N-P308-P15-P308-601501

>  <smina_score_min>  (270) 
-6.28

>  <energy_score>  (270) 
-51.343942

>  <Energy>  (270) 
155.318664

>  <fragmenstein_outcome>  (270) 
too moved

>  <alias>  (270) 
KQEFTEXTEAQHDR-UHFFFAOYSA-N-P308-P15-P308-601501

>  <HIPPO Pose ID>  (270) 
501963

>  <exports>  (270) 
['/opt/xchem-fragalysis-2/maxwin/openbind-hippo/a71ev2a/cycle_01/bulkdock/openbind_a71ev2a_c1_elab_chemspace.sdf', '/opt/xchem-fragalysis-2/maxwin/openbind-hippo/a71ev2a/cycle_01/syndirella/elabs/openbind_a71ev2a_c1_elab_chemspace_filtered.sdf']

>  <HIPPO Compound ID>  (270) 
292695

>  <gnina_score>  (270) 
5.399

$$$$
LXUMTLYATGDROJ-UHFFFAOYSA-N-P308-P15-P308-601501
     RDKit          3D

 21 23  0  0  0  0  0  0  0  0999 V2000
    9.6125    8.4596   23.4871 C   0  0  0  0  0  0  0  0  0  0  0  0
    8.8335    9.3076   24.3227 O   0  0  0  0  0  0  0  0  0  0  0  0
    8.8345   10.5868   23.8827 C   0  0  0  0  0  0  0  0  0  0  0  0
    9.3847   10.9844   22.8685 O   0  0  0  0  0  0  0  0  0  0  0  0
    8.0746   11.4523   24.8056 C   0  0  0  0  0  0  0  0  0  0  0  0
    6.9692   10.9209   25.4850 C   0  0  0  0  0  0  0  0  0  0  0  0
    6.1806   11.7689   26.2481 C   0  0  0  0  0  0  0  0  0  0  0  0
    5.0100   11.2870   27.0576 C   0  0  0  0  0  0  0  0  0  0  0  0
    4.8065   11.8308   28.4555 C   0  0  0  0  0  0  0  0  0  0  0  0
    3.8853   12.2609   27.3585 C   0  0  0  0  0  0  0  0  0  0  0  0
    6.4556   13.0906   26.3185 N   0  0  0  0  0  0  0  0  0  0  0  0
    7.5091   13.5790   25.6459 C   0  0  0  0  0  0  0  0  0  0  0  0
    8.3872   12.8151   24.8990 C   0  0  0  0  0  0  0  0  0  0  0  0
    9.5134   13.4350   24.3087 N   0  0  0  0  0  0  0  0  0  0  0  0
   10.7526   12.7736   24.4764 N   0  0  0  0  0  0  0  0  0  0  0  0
    9.4384   14.6885   23.5901 C   0  0  0  0  0  0  0  0  0  0  0  0
    8.5316   14.6160   22.3392 C   0  0  0  0  0  0  0  0  0  0  0  0
    9.5832   15.4947   21.6208 C   0  0  0  0  0  0  0  0  0  0  0  0
    9.3562   16.8251   21.6761 F   0  0  0  0  0  0  0  0  0  0  0  0
    9.8563   15.1943   20.3348 F   0  0  0  0  0  0  0  0  0  0  0  0
   10.6136   14.9656   22.6306 C   0  0  0  0  0  0  0  0  0  0  0  0
  1  2  1  0
  2  3  1  0
  3  4  2  0
  3  5  1  0
  5  6  2  0
  6  7  1  0
  7  8  1  0
  8  9  1  0
  9 10  1  0
  7 11  2  0
 11 12  1  0
 12 13  2  0
 13 14  1  0
 14 15  1  0
 14 16  1  0
 16 17  1  0
 17 18  1  0
 18 19  1  0
 18 20  1  0
 18 21  1  0
 13  5  1  0
 21 16  1  0
 10  8  1  0
M  END
>  <distance_score>  (271) 
1.52777

>  <smiles>  (271) 
COC(=O)c1cc(C2CC2)ncc1N(N)C1CC(F)(F)C1

>  <fragmenstein_error>  (271) 


>  <fragmenstein_runtime>  (271) 
5.685053

>  <gnina_score_min>  (271) 
4.895

>  <orig_smiles>  (271) 
COC(=O)c1cc(C2CC2)ncc1N(N)C1CC(F)(F)C1

>  <fragmenstein_mode>  (271) 
expansion

>  <rmsd(smina/fragmenstein)>  (271) 
1.858

>  <inspiration_score>  (271) 
None

>  <name>  (271) 
LXUMTLYATGDROJ-UHFFFAOYSA-N-P308-P15-P308-601501

>  <ref_pdb>  (271) 
A0528a

>  <ref_mols>  (271) 
A4331a,A0514a

>  <subsites>  (271) 
None

>  <tags>  (271) 
openbind_a71ev2a_c1_elabs_filtered,fragmenstein_placed,a71ev2a_c1_elab_bulkdock_input,openbind_a71ev2a_c1_elab_chemspace_filtered_scored

>  <inchikey>  (271) 
LXUMTLYATGDROJ-UHFFFAOYSA-N

>  <scratch_subdir>  (271) 
/opt/xchem-fragalysis-2/maxwin/BulkDock/SCRATCH/601501/LXUMTLYATGDROJ-UHFFFAOYSA-N-P308-P15-P308-601501

>  <smina_score_min>  (271) 
-6.749

>  <energy_score>  (271) 
-33.186146

>  <Energy>  (271) 
74.598095

>  <fragmenstein_outcome>  (271) 
too moved

>  <alias>  (271) 
LXUMTLYATGDROJ-UHFFFAOYSA-N-P308-P15-P308-601501

>  <HIPPO Pose ID>  (271) 
501967

>  <exports>  (271) 
['/opt/xchem-fragalysis-2/maxwin/openbind-hippo/a71ev2a/cycle_01/bulkdock/openbind_a71ev2a_c1_elab_chemspace.sdf', '/opt/xchem-fragalysis-2/maxwin/openbind-hippo/a71ev2a/cycle_01/syndirella/elabs/openbind_a71ev2a_c1_elab_chemspace_filtered.sdf']

>  <HIPPO Compound ID>  (271) 
292697

>  <gnina_score>  (271) 
5.375

$$$$
QIQZGZNOCGQESG-UHFFFAOYSA-N-P15-P15-P308-601501
     RDKit          3D

 21 22  0  0  0  0  0  0  0  0999 V2000
    9.2977    8.4557   22.9402 C   0  0  0  0  0  0  0  0  0  0  0  0
    8.4736    9.2512   23.7891 O   0  0  0  0  0  0  0  0  0  0  0  0
    8.9491   10.5065   23.9501 C   0  0  0  0  0  0  0  0  0  0  0  0
    9.9784   10.9254   23.4505 O   0  0  0  0  0  0  0  0  0  0  0  0
    8.0605   11.2975   24.8409 C   0  0  0  0  0  0  0  0  0  0  0  0
    6.9866   10.6883   25.5074 C   0  0  0  0  0  0  0  0  0  0  0  0
    6.2442   11.4308   26.4182 C   0  0  0  0  0  0  0  0  0  0  0  0
    5.1380   10.8466   27.2477 C   0  0  0  0  0  0  0  0  0  0  0  0
    5.0500   11.2161   28.7116 C   0  0  0  0  0  0  0  0  0  0  0  0
    4.0464   11.7755   27.7526 C   0  0  0  0  0  0  0  0  0  0  0  0
    6.5320   12.7279   26.6562 N   0  0  0  0  0  0  0  0  0  0  0  0
    7.5354   13.3041   25.9864 C   0  0  0  0  0  0  0  0  0  0  0  0
    8.3553   12.6470   25.0813 C   0  0  0  0  0  0  0  0  0  0  0  0
    9.4183   13.3381   24.4530 N   0  0  0  0  0  0  0  0  0  0  0  0
   10.1918   14.2008   25.2823 N   0  0  0  0  0  0  0  0  0  0  0  0
    9.0197   13.8218   23.0863 C   0  0  1  0  0  0  0  0  0  0  0  0
    7.8031   14.7574   23.1747 C   0  0  0  0  0  0  0  0  0  0  0  0
   10.2701   14.3354   22.3469 C   0  0  0  0  0  0  0  0  0  0  0  0
    9.9553   14.8326   20.9813 C   0  0  0  0  0  0  0  0  0  0  0  0
    8.8421   14.8680   20.4897 O   0  0  0  0  0  0  0  0  0  0  0  0
   11.0434   15.2281   20.3019 O   0  0  0  0  0  0  0  0  0  0  0  0
  1  2  1  0
  2  3  1  0
  3  4  2  0
  3  5  1  0
  5  6  2  0
  6  7  1  0
  7  8  1  0
  8  9  1  0
  9 10  1  0
  7 11  2  0
 11 12  1  0
 12 13  2  0
 13 14  1  0
 14 15  1  0
 14 16  1  0
 16 17  1  1
 16 18  1  0
 18 19  1  0
 19 20  2  0
 19 21  1  0
 13  5  1  0
 10  8  1  0
M  END
>  <distance_score>  (272) 
1.610956

>  <smiles>  (272) 
COC(=O)c1cc(C2CC2)ncc1N(N)C(C)CC(=O)O

>  <fragmenstein_error>  (272) 


>  <fragmenstein_runtime>  (272) 
4.986261

>  <gnina_score_min>  (272) 
5.224

>  <orig_smiles>  (272) 
COC(=O)c1cc(C2CC2)ncc1N(N)C(C)CC(=O)O

>  <fragmenstein_mode>  (272) 
expansion

>  <rmsd(smina/fragmenstein)>  (272) 
1.151

>  <inspiration_score>  (272) 
None

>  <name>  (272) 
QIQZGZNOCGQESG-UHFFFAOYSA-N-P15-P15-P308-601501

>  <ref_pdb>  (272) 
A0528a

>  <ref_mols>  (272) 
A4331a,A0514a

>  <subsites>  (272) 
None

>  <tags>  (272) 
openbind_a71ev2a_c1_elabs_filtered,fragmenstein_placed,a71ev2a_c1_elab_bulkdock_input,openbind_a71ev2a_c1_elab_chemspace_filtered_scored

>  <inchikey>  (272) 
QIQZGZNOCGQESG-UHFFFAOYSA-N

>  <scratch_subdir>  (272) 
/opt/xchem-fragalysis-2/maxwin/BulkDock/SCRATCH/601501/QIQZGZNOCGQESG-UHFFFAOYSA-N-P15-P15-P308-601501

>  <smina_score_min>  (272) 
-6.329

>  <energy_score>  (272) 
-45.992379

>  <Energy>  (272) 
64.293871

>  <fragmenstein_outcome>  (272) 
too moved

>  <alias>  (272) 
QIQZGZNOCGQESG-UHFFFAOYSA-N-P15-P15-P308-601501

>  <HIPPO Pose ID>  (272) 
501970

>  <exports>  (272) 
['/opt/xchem-fragalysis-2/maxwin/openbind-hippo/a71ev2a/cycle_01/bulkdock/openbind_a71ev2a_c1_elab_chemspace.sdf', '/opt/xchem-fragalysis-2/maxwin/openbind-hippo/a71ev2a/cycle_01/syndirella/elabs/openbind_a71ev2a_c1_elab_chemspace_filtered.sdf']

>  <HIPPO Compound ID>  (272) 
292699

>  <gnina_score>  (272) 
5.07

$$$$
HZRFJHDUCCNJLK-UHFFFAOYSA-N-P308-P15-P308-601501
     RDKit          3D

 21 23  0  0  0  0  0  0  0  0999 V2000
    9.1909    8.4323   23.8503 C   0  0  0  0  0  0  0  0  0  0  0  0
    8.4398    9.4273   24.5331 O   0  0  0  0  0  0  0  0  0  0  0  0
    8.5816   10.6360   23.9542 C   0  0  0  0  0  0  0  0  0  0  0  0
    9.2310   10.8734   22.9512 O   0  0  0  0  0  0  0  0  0  0  0  0
    7.9023   11.6554   24.7665 C   0  0  0  0  0  0  0  0  0  0  0  0
    6.6864   11.3325   25.3842 C   0  0  0  0  0  0  0  0  0  0  0  0
    5.9944   12.3327   26.0467 C   0  0  0  0  0  0  0  0  0  0  0  0
    4.6647   12.1405   26.6982 C   0  0  0  0  0  0  0  0  0  0  0  0
    4.4212   11.1899   27.8342 C   0  0  0  0  0  0  0  0  0  0  0  0
    4.5247   12.6570   28.1172 C   0  0  0  0  0  0  0  0  0  0  0  0
    6.4787   13.5914   26.1082 N   0  0  0  0  0  0  0  0  0  0  0  0
    7.6469   13.8721   25.5098 C   0  0  0  0  0  0  0  0  0  0  0  0
    8.4338   12.9464   24.8469 C   0  0  0  0  0  0  0  0  0  0  0  0
    9.7224   13.3613   24.4447 N   0  0  0  0  0  0  0  0  0  0  0  0
   10.8035   12.4485   24.5476 N   0  0  0  0  0  0  0  0  0  0  0  0
    9.9616   14.2218   23.4026 C   0  0  0  0  0  0  0  0  0  0  0  0
   11.0977   14.9984   23.2471 C   0  0  0  0  0  0  0  0  0  0  0  0
   11.2420   15.6702   22.0630 N   0  0  0  0  0  0  0  0  0  0  0  0
   10.2347   15.3822   21.2737 C   0  0  0  0  0  0  0  0  0  0  0  0
   10.1917   15.8109   19.8485 C   0  0  0  0  0  0  0  0  0  0  0  0
    8.9621   14.4784   22.0175 S   0  0  0  0  0  0  0  0  0  0  0  0
  1  2  1  0
  2  3  1  0
  3  4  2  0
  3  5  1  0
  5  6  2  0
  6  7  1  0
  7  8  1  0
  8  9  1  0
  9 10  1  0
  7 11  2  0
 11 12  1  0
 12 13  2  0
 13 14  1  0
 14 15  1  0
 14 16  1  0
 16 17  2  0
 17 18  1  0
 18 19  2  0
 19 20  1  0
 19 21  1  0
 13  5  1  0
 21 16  1  0
 10  8  1  0
M  END
>  <distance_score>  (273) 
1.641319

>  <smiles>  (273) 
COC(=O)c1cc(C2CC2)ncc1N(N)c1cnc(C)s1

>  <fragmenstein_error>  (273) 


>  <fragmenstein_runtime>  (273) 
4.76234

>  <gnina_score_min>  (273) 
5.388

>  <orig_smiles>  (273) 
COC(=O)c1cc(C2CC2)ncc1N(N)c1cnc(C)s1

>  <fragmenstein_mode>  (273) 
expansion

>  <rmsd(smina/fragmenstein)>  (273) 
1.334

>  <inspiration_score>  (273) 
None

>  <name>  (273) 
HZRFJHDUCCNJLK-UHFFFAOYSA-N-P308-P15-P308-601501

>  <ref_pdb>  (273) 
A0528a

>  <ref_mols>  (273) 
A4331a,A0514a

>  <subsites>  (273) 
None

>  <tags>  (273) 
openbind_a71ev2a_c1_elabs_filtered,fragmenstein_placed,a71ev2a_c1_elab_bulkdock_input,openbind_a71ev2a_c1_elab_chemspace_filtered_scored

>  <inchikey>  (273) 
HZRFJHDUCCNJLK-UHFFFAOYSA-N

>  <scratch_subdir>  (273) 
/opt/xchem-fragalysis-2/maxwin/BulkDock/SCRATCH/601501/HZRFJHDUCCNJLK-UHFFFAOYSA-N-P308-P15-P308-601501

>  <smina_score_min>  (273) 
-5.697

>  <energy_score>  (273) 
-111.930991

>  <Energy>  (273) 
83.723836

>  <fragmenstein_outcome>  (273) 
too moved

>  <alias>  (273) 
HZRFJHDUCCNJLK-UHFFFAOYSA-N-P308-P15-P308-601501

>  <HIPPO Pose ID>  (273) 
501973

>  <exports>  (273) 
['/opt/xchem-fragalysis-2/maxwin/openbind-hippo/a71ev2a/cycle_01/bulkdock/openbind_a71ev2a_c1_elab_chemspace.sdf', '/opt/xchem-fragalysis-2/maxwin/openbind-hippo/a71ev2a/cycle_01/syndirella/elabs/openbind_a71ev2a_c1_elab_chemspace_filtered.sdf']

>  <HIPPO Compound ID>  (273) 
292700

>  <gnina_score>  (273) 
5.453

$$$$
RATLKYKTFXNPCC-UHFFFAOYSA-N-P15-P15-P308-601501
     RDKit          3D

 21 22  0  0  0  0  0  0  0  0999 V2000
    9.2328    8.8182   23.1370 C   0  0  0  0  0  0  0  0  0  0  0  0
    8.4055    9.6562   23.9573 O   0  0  0  0  0  0  0  0  0  0  0  0
    8.8492   10.9294   24.0745 C   0  0  0  0  0  0  0  0  0  0  0  0
    9.8592   11.3654   23.5474 O   0  0  0  0  0  0  0  0  0  0  0  0
    7.9815   11.7332   24.9864 C   0  0  0  0  0  0  0  0  0  0  0  0
    7.0812   11.0544   25.8262 C   0  0  0  0  0  0  0  0  0  0  0  0
    6.3737   11.7718   26.7845 C   0  0  0  0  0  0  0  0  0  0  0  0
    5.5913   11.1579   27.8972 C   0  0  0  0  0  0  0  0  0  0  0  0
    4.5917   10.0676   27.7270 C   0  0  0  0  0  0  0  0  0  0  0  0
    4.1185   11.4820   27.9293 C   0  0  0  0  0  0  0  0  0  0  0  0
    6.4667   13.1106   26.8692 N   0  0  0  0  0  0  0  0  0  0  0  0
    7.2764   13.7525   26.0212 C   0  0  0  0  0  0  0  0  0  0  0  0
    8.0862   13.1401   25.0744 C   0  0  0  0  0  0  0  0  0  0  0  0
    8.9182   13.9943   24.3091 N   0  0  0  0  0  0  0  0  0  0  0  0
   10.3125   13.7466   24.4075 N   0  0  0  0  0  0  0  0  0  0  0  0
    8.2449   14.6493   23.0885 C   0  0  0  0  0  0  0  0  0  0  0  0
    7.2850   15.7731   23.5255 C   0  0  0  0  0  0  0  0  0  0  0  0
    7.3621   13.6516   22.3945 C   0  0  0  0  0  0  0  0  0  0  0  0
    9.2252   15.0634   21.9398 C   0  0  0  0  0  0  0  0  0  0  0  0
    8.8634   15.4508   20.8379 O   0  0  0  0  0  0  0  0  0  0  0  0
   10.5376   14.9168   22.2103 O   0  0  0  0  0  0  0  0  0  0  0  0
  1  2  1  0
  2  3  1  0
  3  4  2  0
  3  5  1  0
  5  6  2  0
  6  7  1  0
  7  8  1  0
  8  9  1  0
  9 10  1  0
  7 11  2  0
 11 12  1  0
 12 13  2  0
 13 14  1  0
 14 15  1  0
 14 16  1  0
 16 17  1  0
 16 18  1  0
 16 19  1  0
 19 20  2  0
 19 21  1  0
 13  5  1  0
 10  8  1  0
M  END
>  <distance_score>  (274) 
1.662001

>  <smiles>  (274) 
COC(=O)c1cc(C2CC2)ncc1N(N)C(C)(C)C(=O)O

>  <fragmenstein_error>  (274) 


>  <fragmenstein_runtime>  (274) 
4.79005

>  <gnina_score_min>  (274) 
4.957

>  <orig_smiles>  (274) 
COC(=O)c1cc(C2CC2)ncc1N(N)C(C)(C)C(=O)O

>  <fragmenstein_mode>  (274) 
expansion

>  <rmsd(smina/fragmenstein)>  (274) 
1.831

>  <inspiration_score>  (274) 
None

>  <name>  (274) 
RATLKYKTFXNPCC-UHFFFAOYSA-N-P15-P15-P308-601501

>  <ref_pdb>  (274) 
A0528a

>  <ref_mols>  (274) 
A4331a,A0514a

>  <subsites>  (274) 
None

>  <tags>  (274) 
openbind_a71ev2a_c1_elabs_filtered,fragmenstein_placed,a71ev2a_c1_elab_bulkdock_input,openbind_a71ev2a_c1_elab_chemspace_filtered_scored

>  <inchikey>  (274) 
RATLKYKTFXNPCC-UHFFFAOYSA-N

>  <scratch_subdir>  (274) 
/opt/xchem-fragalysis-2/maxwin/BulkDock/SCRATCH/601501/RATLKYKTFXNPCC-UHFFFAOYSA-N-P15-P15-P308-601501

>  <smina_score_min>  (274) 
-6.38

>  <energy_score>  (274) 
-43.103847

>  <Energy>  (274) 
135.847229

>  <fragmenstein_outcome>  (274) 
too moved

>  <alias>  (274) 
RATLKYKTFXNPCC-UHFFFAOYSA-N-P15-P15-P308-601501

>  <HIPPO Pose ID>  (274) 
501978

>  <exports>  (274) 
['/opt/xchem-fragalysis-2/maxwin/openbind-hippo/a71ev2a/cycle_01/bulkdock/openbind_a71ev2a_c1_elab_chemspace.sdf', '/opt/xchem-fragalysis-2/maxwin/openbind-hippo/a71ev2a/cycle_01/syndirella/elabs/openbind_a71ev2a_c1_elab_chemspace_filtered.sdf']

>  <HIPPO Compound ID>  (274) 
292703

>  <gnina_score>  (274) 
4.995

$$$$
RPYJVMKPRRIJEF-UHFFFAOYSA-N-P308-P15-P308-601501
     RDKit          3D

 21 22  0  0  0  0  0  0  0  0999 V2000
    9.1836    8.6874   23.2727 C   0  0  0  0  0  0  0  0  0  0  0  0
    8.3028    9.5640   23.9777 O   0  0  0  0  0  0  0  0  0  0  0  0
    8.9513   10.5530   24.6312 C   0  0  0  0  0  0  0  0  0  0  0  0
   10.1610   10.6790   24.7550 O   0  0  0  0  0  0  0  0  0  0  0  0
    7.9507   11.4923   25.1880 C   0  0  0  0  0  0  0  0  0  0  0  0
    6.8838   11.0073   25.9507 C   0  0  0  0  0  0  0  0  0  0  0  0
    6.0993   11.9228   26.6497 C   0  0  0  0  0  0  0  0  0  0  0  0
    5.1817   11.5866   27.7800 C   0  0  0  0  0  0  0  0  0  0  0  0
    4.2231   10.4486   27.7867 C   0  0  0  0  0  0  0  0  0  0  0  0
    3.7177   11.8562   27.5835 C   0  0  0  0  0  0  0  0  0  0  0  0
    6.2561   13.2509   26.4940 N   0  0  0  0  0  0  0  0  0  0  0  0
    7.2363   13.6880   25.7004 C   0  0  0  0  0  0  0  0  0  0  0  0
    8.1389   12.8688   25.0389 C   0  0  0  0  0  0  0  0  0  0  0  0
    9.2054   13.4140   24.3037 N   0  0  0  0  0  0  0  0  0  0  0  0
   10.4026   13.4689   25.0723 N   0  0  0  0  0  0  0  0  0  0  0  0
    8.8617   14.5590   23.4018 C   0  0  2  0  0  0  0  0  0  0  0  0
    7.6589   14.1743   22.5066 C   0  0  0  0  0  0  0  0  0  0  0  0
   10.0943   15.0422   22.5506 C   0  0  0  0  0  0  0  0  0  0  0  0
   11.0364   15.9075   23.4048 C   0  0  0  0  0  0  0  0  0  0  0  0
   10.9124   13.8778   21.9817 C   0  0  0  0  0  0  0  0  0  0  0  0
    9.6345   15.9174   21.3636 C   0  0  0  0  0  0  0  0  0  0  0  0
  1  2  1  0
  2  3  1  0
  3  4  2  0
  3  5  1  0
  5  6  2  0
  6  7  1  0
  7  8  1  0
  8  9  1  0
  9 10  1  0
  7 11  2  0
 11 12  1  0
 12 13  2  0
 13 14  1  0
 14 15  1  0
 14 16  1  0
 16 17  1  6
 16 18  1  0
 18 19  1  0
 18 20  1  0
 18 21  1  0
 13  5  1  0
 10  8  1  0
M  END
>  <distance_score>  (275) 
1.583796

>  <smiles>  (275) 
COC(=O)c1cc(C2CC2)ncc1N(N)C(C)C(C)(C)C

>  <fragmenstein_error>  (275) 


>  <fragmenstein_runtime>  (275) 
7.958445

>  <gnina_score_min>  (275) 
5.262

>  <orig_smiles>  (275) 
COC(=O)c1cc(C2CC2)ncc1N(N)C(C)C(C)(C)C

>  <fragmenstein_mode>  (275) 
expansion

>  <rmsd(smina/fragmenstein)>  (275) 
1.046

>  <inspiration_score>  (275) 
None

>  <name>  (275) 
RPYJVMKPRRIJEF-UHFFFAOYSA-N-P308-P15-P308-601501

>  <ref_pdb>  (275) 
A0528a

>  <ref_mols>  (275) 
A4331a,A0514a

>  <subsites>  (275) 
None

>  <tags>  (275) 
openbind_a71ev2a_c1_elabs_filtered,fragmenstein_placed,a71ev2a_c1_elab_bulkdock_input,openbind_a71ev2a_c1_elab_chemspace_filtered_scored

>  <inchikey>  (275) 
RPYJVMKPRRIJEF-UHFFFAOYSA-N

>  <scratch_subdir>  (275) 
/opt/xchem-fragalysis-2/maxwin/BulkDock/SCRATCH/601501/RPYJVMKPRRIJEF-UHFFFAOYSA-N-P308-P15-P308-601501

>  <smina_score_min>  (275) 
-6.167

>  <energy_score>  (275) 
-45.219512

>  <Energy>  (275) 
117.700472

>  <fragmenstein_outcome>  (275) 
too moved

>  <alias>  (275) 
RPYJVMKPRRIJEF-UHFFFAOYSA-N-P308-P15-P308-601501

>  <HIPPO Pose ID>  (275) 
501985

>  <exports>  (275) 
['/opt/xchem-fragalysis-2/maxwin/openbind-hippo/a71ev2a/cycle_01/bulkdock/openbind_a71ev2a_c1_elab_chemspace.sdf', '/opt/xchem-fragalysis-2/maxwin/openbind-hippo/a71ev2a/cycle_01/syndirella/elabs/openbind_a71ev2a_c1_elab_chemspace_filtered.sdf']

>  <HIPPO Compound ID>  (275) 
292706

>  <gnina_score>  (275) 
5.517

$$$$
FCFCTZBQIXCJMO-UHFFFAOYSA-N-P126-P126-P177-601502
     RDKit          3D

 22 25  0  0  0  0  0  0  0  0999 V2000
    9.3879    8.6621   23.1056 C   0  0  0  0  0  0  0  0  0  0  0  0
    9.2605    9.9570   23.7269 N   0  0  0  0  0  0  0  0  0  0  0  0
    9.9983   10.9621   23.2356 N   0  0  0  0  0  0  0  0  0  0  0  0
    9.6269   12.0287   23.9620 C   0  0  0  0  0  0  0  0  0  0  0  0
   10.1959   13.3383   23.6787 C   0  0  0  0  0  0  0  0  0  0  0  0
   10.2629   14.1796   24.4817 O   0  0  0  0  0  0  0  0  0  0  0  0
   10.5915   13.3434   22.1976 N   0  0  0  0  0  0  0  0  0  0  0  0
   11.2251   14.3266   21.4285 C   0  0  0  0  0  0  0  0  0  0  0  0
   10.2927   15.2806   20.6373 C   0  0  0  0  0  0  0  0  0  0  0  0
   10.3019   15.4733   19.2829 C   0  0  0  0  0  0  0  0  0  0  0  0
    9.5452   16.5719   19.0095 O   0  0  0  0  0  0  0  0  0  0  0  0
    9.0876   16.9535   20.2332 C   0  0  0  0  0  0  0  0  0  0  0  0
    9.4550   16.1743   21.2216 N   0  0  0  0  0  0  0  0  0  0  0  0
   12.5262   14.8883   21.9188 C   0  0  0  0  0  0  0  0  0  0  0  0
   12.5235   13.9420   20.7755 C   0  0  0  0  0  0  0  0  0  0  0  0
    8.6271   11.7097   24.9049 C   0  0  0  0  0  0  0  0  0  0  0  0
    7.8645   12.4318   25.8424 C   0  0  0  0  0  0  0  0  0  0  0  0
    6.8962   11.7506   26.5804 C   0  0  0  0  0  0  0  0  0  0  0  0
    5.8634   12.6916   27.8543 Br  0  0  0  0  0  0  0  0  0  0  0  0
    6.6814   10.3886   26.3973 C   0  0  0  0  0  0  0  0  0  0  0  0
    7.4337    9.6678   25.4652 C   0  0  0  0  0  0  0  0  0  0  0  0
    8.4011   10.3491   24.7253 C   0  0  0  0  0  0  0  0  0  0  0  0
  1  2  1  0
  2  3  1  0
  3  4  2  0
  4  5  1  0
  5  6  2  0
  5  7  1  0
  7  8  1  0
  8  9  1  0
  9 10  2  0
 10 11  1  0
 11 12  1  0
 12 13  2  0
  8 14  1  0
 14 15  1  0
  4 16  1  0
 16 17  2  0
 17 18  1  0
 18 19  1  0
 18 20  2  0
 20 21  1  0
 21 22  2  0
 22  2  1  0
 15  8  1  0
 22 16  1  0
 13  9  1  0
M  END
>  <distance_score>  (276) 
0.801461

>  <smiles>  (276) 
Cn1nc(C(=O)NC2(c3cocn3)CC2)c2cc(Br)ccc21

>  <fragmenstein_error>  (276) 


>  <fragmenstein_runtime>  (276) 
4.26124

>  <gnina_score_min>  (276) 
6.13

>  <orig_smiles>  (276) 
Cn1nc(C(=O)NC2(c3cocn3)CC2)c2cc(Br)ccc21

>  <fragmenstein_mode>  (276) 
expansion

>  <rmsd(smina/fragmenstein)>  (276) 
1.017

>  <inspiration_score>  (276) 
None

>  <name>  (276) 
FCFCTZBQIXCJMO-UHFFFAOYSA-N-P126-P126-P177-601502

>  <ref_pdb>  (276) 
A0514a

>  <ref_mols>  (276) 
A3403a,A2290a

>  <subsites>  (276) 
None

>  <tags>  (276) 
fragmenstein_placed,openbind_a71ev2a_c1_elabs_filtered,BulkDock Fragalysis export,a71ev2a_c1_elab_bulkdock_input,openbind_a71ev2a_c1_elab_chemspace_filtered_scored

>  <inchikey>  (276) 
FCFCTZBQIXCJMO-UHFFFAOYSA-N

>  <scratch_subdir>  (276) 
/opt/xchem-fragalysis-2/maxwin/BulkDock/SCRATCH/601502/FCFCTZBQIXCJMO-UHFFFAOYSA-N-P126-P126-P177-601502

>  <smina_score_min>  (276) 
-6.049

>  <energy_score>  (276) 
-18.208901

>  <Energy>  (276) 
67.771107

>  <fragmenstein_outcome>  (276) 
acceptable

>  <alias>  (276) 
FCFCTZBQIXCJMO-UHFFFAOYSA-N-P126-P126-P177-601502

>  <HIPPO Pose ID>  (276) 
502792

>  <exports>  (276) 
['/opt/xchem-fragalysis-2/maxwin/openbind-hippo/a71ev2a/cycle_01/bulkdock/openbind_a71ev2a_c1_elab_chemspace.sdf', '/opt/xchem-fragalysis-2/maxwin/openbind-hippo/a71ev2a/cycle_01/syndirella/elabs/openbind_a71ev2a_c1_elab_chemspace_filtered.sdf', '/opt/xchem-fragalysis-2/maxwin/BulkDock/OUTPUTS/a71ev2a_c1_elab_bulkdock_input_1GFT2LV.sdf']

>  <HIPPO Compound ID>  (276) 
299214

>  <gnina_score>  (276) 
5.952

$$$$
JHOWVHKEJBIEBL-UHFFFAOYSA-N-P126-P126-P177-601502
     RDKit          3D

 24 27  0  0  0  0  0  0  0  0999 V2000
   10.2816   14.2393   24.3900 O   0  0  0  0  0  0  0  0  0  0  0  0
   10.2992   13.3685   23.6170 C   0  0  0  0  0  0  0  0  0  0  0  0
   10.8285   13.3261   22.1775 N   0  0  0  0  0  0  0  0  0  0  0  0
   11.3496   14.3433   21.3695 C   0  0  0  0  0  0  0  0  0  0  0  0
   10.3297   15.2646   20.6477 C   0  0  0  0  0  0  0  0  0  0  0  0
   10.2857   15.5152   19.3023 C   0  0  0  0  0  0  0  0  0  0  0  0
    9.4944   16.6038   19.1019 O   0  0  0  0  0  0  0  0  0  0  0  0
    9.0547   16.9064   20.3536 C   0  0  0  0  0  0  0  0  0  0  0  0
    9.4610   16.0822   21.2901 N   0  0  0  0  0  0  0  0  0  0  0  0
   12.5795   13.9791   20.5828 C   0  0  0  0  0  0  0  0  0  0  0  0
   12.6881   14.9094   21.7357 C   0  0  0  0  0  0  0  0  0  0  0  0
    9.7605   12.0487   23.9060 C   0  0  0  0  0  0  0  0  0  0  0  0
   10.2043   11.0012   23.2018 N   0  0  0  0  0  0  0  0  0  0  0  0
    9.4793    9.9511   23.6408 N   0  0  0  0  0  0  0  0  0  0  0  0
    9.6118    8.6675   22.9406 C   0  0  0  0  0  0  0  0  0  0  0  0
   10.0417    8.8465   21.6680 F   0  0  0  0  0  0  0  0  0  0  0  0
    8.4276    8.0340   22.8759 F   0  0  0  0  0  0  0  0  0  0  0  0
   10.4958    7.8291   23.5219 F   0  0  0  0  0  0  0  0  0  0  0  0
    8.5787   10.3152   24.6254 C   0  0  0  0  0  0  0  0  0  0  0  0
    7.6117    9.6035   25.3392 C   0  0  0  0  0  0  0  0  0  0  0  0
    6.8102   10.2966   26.2525 C   0  0  0  0  0  0  0  0  0  0  0  0
    6.9664   11.6645   26.4486 C   0  0  0  0  0  0  0  0  0  0  0  0
    7.9336   12.3736   25.7340 C   0  0  0  0  0  0  0  0  0  0  0  0
    8.7502   11.6850   24.8173 C   0  0  0  0  0  0  0  0  0  0  0  0
  1  2  2  0
  2  3  1  0
  3  4  1  0
  4  5  1  0
  5  6  2  0
  6  7  1  0
  7  8  1  0
  8  9  2  0
  4 10  1  0
 10 11  1  0
  2 12  1  0
 12 13  2  0
 13 14  1  0
 14 15  1  0
 15 16  1  0
 15 17  1  0
 15 18  1  0
 14 19  1  0
 19 20  2  0
 20 21  1  0
 21 22  2  0
 22 23  1  0
 23 24  2  0
 11  4  1  0
 24 12  1  0
  9  5  1  0
 24 19  1  0
M  END
>  <distance_score>  (277) 
0.7484

>  <smiles>  (277) 
O=C(NC1(c2cocn2)CC1)c1nn(C(F)(F)F)c2ccccc12

>  <fragmenstein_error>  (277) 


>  <fragmenstein_runtime>  (277) 
2.64363

>  <gnina_score_min>  (277) 
6.033

>  <orig_smiles>  (277) 
O=C(NC1(c2cocn2)CC1)c1nn(C(F)(F)F)c2ccccc12

>  <fragmenstein_mode>  (277) 
expansion

>  <rmsd(smina/fragmenstein)>  (277) 
0.954

>  <inspiration_score>  (277) 
None

>  <name>  (277) 
JHOWVHKEJBIEBL-UHFFFAOYSA-N-P126-P126-P177-601502

>  <ref_pdb>  (277) 
A0514a

>  <ref_mols>  (277) 
A3403a,A2290a

>  <subsites>  (277) 
None

>  <tags>  (277) 
fragmenstein_placed,openbind_a71ev2a_c1_elabs_filtered,BulkDock Fragalysis export,a71ev2a_c1_elab_bulkdock_input,openbind_a71ev2a_c1_elab_chemspace_filtered_scored

>  <inchikey>  (277) 
JHOWVHKEJBIEBL-UHFFFAOYSA-N

>  <scratch_subdir>  (277) 
/opt/xchem-fragalysis-2/maxwin/BulkDock/SCRATCH/601502/JHOWVHKEJBIEBL-UHFFFAOYSA-N-P126-P126-P177-601502

>  <smina_score_min>  (277) 
-5.296

>  <energy_score>  (277) 
-9.624273

>  <Energy>  (277) 
145.918857

>  <fragmenstein_outcome>  (277) 
acceptable

>  <alias>  (277) 
JHOWVHKEJBIEBL-UHFFFAOYSA-N-P126-P126-P177-601502

>  <HIPPO Pose ID>  (277) 
502944

>  <exports>  (277) 
['/opt/xchem-fragalysis-2/maxwin/openbind-hippo/a71ev2a/cycle_01/bulkdock/openbind_a71ev2a_c1_elab_chemspace.sdf', '/opt/xchem-fragalysis-2/maxwin/openbind-hippo/a71ev2a/cycle_01/syndirella/elabs/openbind_a71ev2a_c1_elab_chemspace_filtered.sdf', '/opt/xchem-fragalysis-2/maxwin/BulkDock/OUTPUTS/a71ev2a_c1_elab_bulkdock_input_1GFT2LV.sdf']

>  <HIPPO Compound ID>  (277) 
299290

>  <gnina_score>  (277) 
5.983

$$$$
AODLDJIKCKWMCG-UHFFFAOYSA-N-P126-P126-P177-601502
     RDKit          3D

 25 28  0  0  0  0  0  0  0  0999 V2000
    5.4372   14.5687   28.4266 C   0  0  0  0  0  0  0  0  0  0  0  0
    6.2929   13.7860   27.5936 O   0  0  0  0  0  0  0  0  0  0  0  0
    5.9010   12.4959   27.4501 C   0  0  0  0  0  0  0  0  0  0  0  0
    4.9546   11.9693   28.0146 O   0  0  0  0  0  0  0  0  0  0  0  0
    6.8103   11.7755   26.5179 C   0  0  0  0  0  0  0  0  0  0  0  0
    6.6296   10.3996   26.3503 C   0  0  0  0  0  0  0  0  0  0  0  0
    7.4194    9.6673   25.4570 C   0  0  0  0  0  0  0  0  0  0  0  0
    8.3951   10.3453   24.7260 C   0  0  0  0  0  0  0  0  0  0  0  0
    8.6080   11.7089   24.8918 C   0  0  0  0  0  0  0  0  0  0  0  0
    7.8120   12.4409   25.7949 C   0  0  0  0  0  0  0  0  0  0  0  0
    9.6276   12.0229   23.9680 C   0  0  0  0  0  0  0  0  0  0  0  0
   10.1931   13.3332   23.6811 C   0  0  0  0  0  0  0  0  0  0  0  0
   10.2554   14.1763   24.4826 O   0  0  0  0  0  0  0  0  0  0  0  0
   10.5922   13.3367   22.2010 N   0  0  0  0  0  0  0  0  0  0  0  0
   11.2244   14.3209   21.4311 C   0  0  0  0  0  0  0  0  0  0  0  0
   10.2915   15.2743   20.6396 C   0  0  0  0  0  0  0  0  0  0  0  0
   10.3035   15.4704   19.2856 C   0  0  0  0  0  0  0  0  0  0  0  0
    9.5473   16.5699   19.0139 O   0  0  0  0  0  0  0  0  0  0  0  0
    9.0875   16.9482   20.2378 C   0  0  0  0  0  0  0  0  0  0  0  0
    9.4513   16.1652   21.2246 N   0  0  0  0  0  0  0  0  0  0  0  0
   12.5241   13.9397   20.7793 C   0  0  0  0  0  0  0  0  0  0  0  0
   12.5238   14.8853   21.9232 C   0  0  0  0  0  0  0  0  0  0  0  0
   10.0192   10.9508   23.2615 N   0  0  0  0  0  0  0  0  0  0  0  0
    9.2690    9.9489   23.7411 N   0  0  0  0  0  0  0  0  0  0  0  0
    9.3908    8.6572   23.1118 C   0  0  0  0  0  0  0  0  0  0  0  0
  1  2  1  0
  2  3  1  0
  3  4  2  0
  3  5  1  0
  5  6  2  0
  6  7  1  0
  7  8  2  0
  8  9  1  0
  9 10  2  0
  9 11  1  0
 11 12  1  0
 12 13  2  0
 12 14  1  0
 14 15  1  0
 15 16  1  0
 16 17  2  0
 17 18  1  0
 18 19  1  0
 19 20  2  0
 15 21  1  0
 21 22  1  0
 11 23  2  0
 23 24  1  0
 24 25  1  0
 10  5  1  0
 22 15  1  0
 24  8  1  0
 20 16  1  0
M  END
>  <distance_score>  (278) 
0.790797

>  <smiles>  (278) 
COC(=O)c1ccc2c(c1)c(C(=O)NC1(c3cocn3)CC1)nn2C

>  <fragmenstein_error>  (278) 


>  <fragmenstein_runtime>  (278) 
6.519305

>  <gnina_score_min>  (278) 
6.195

>  <orig_smiles>  (278) 
COC(=O)c1ccc2c(c1)c(C(=O)NC1(c3cocn3)CC1)nn2C

>  <fragmenstein_mode>  (278) 
expansion

>  <rmsd(smina/fragmenstein)>  (278) 
1.206

>  <inspiration_score>  (278) 
None

>  <name>  (278) 
AODLDJIKCKWMCG-UHFFFAOYSA-N-P126-P126-P177-601502

>  <ref_pdb>  (278) 
A0514a

>  <ref_mols>  (278) 
A3403a,A2290a

>  <subsites>  (278) 
None

>  <tags>  (278) 
fragmenstein_placed,openbind_a71ev2a_c1_elabs_filtered,BulkDock Fragalysis export,a71ev2a_c1_elab_bulkdock_input,openbind_a71ev2a_c1_elab_chemspace_filtered_scored

>  <inchikey>  (278) 
AODLDJIKCKWMCG-UHFFFAOYSA-N

>  <scratch_subdir>  (278) 
/opt/xchem-fragalysis-2/maxwin/BulkDock/SCRATCH/601502/AODLDJIKCKWMCG-UHFFFAOYSA-N-P126-P126-P177-601502

>  <smina_score_min>  (278) 
-5.851

>  <energy_score>  (278) 
-19.462889

>  <Energy>  (278) 
80.749618

>  <fragmenstein_outcome>  (278) 
acceptable

>  <alias>  (278) 
AODLDJIKCKWMCG-UHFFFAOYSA-N-P126-P126-P177-601502

>  <HIPPO Pose ID>  (278) 
503022

>  <exports>  (278) 
['/opt/xchem-fragalysis-2/maxwin/openbind-hippo/a71ev2a/cycle_01/bulkdock/openbind_a71ev2a_c1_elab_chemspace.sdf', '/opt/xchem-fragalysis-2/maxwin/openbind-hippo/a71ev2a/cycle_01/syndirella/elabs/openbind_a71ev2a_c1_elab_chemspace_filtered.sdf', '/opt/xchem-fragalysis-2/maxwin/BulkDock/OUTPUTS/a71ev2a_c1_elab_bulkdock_input_1GFT2LV.sdf']

>  <HIPPO Compound ID>  (278) 
299329

>  <gnina_score>  (278) 
6.039

$$$$
QFKKPCZXVOOIGL-UHFFFAOYSA-N-P126-P126-P177-601502
     RDKit          3D

 27 31  0  0  0  0  0  0  0  0999 V2000
    9.6584    8.2535   20.3232 O   0  0  0  0  0  0  0  0  0  0  0  0
    9.6735    8.4192   21.5268 C   0  0  0  0  0  0  0  0  0  0  0  0
    9.3664    7.4238   22.3833 N   0  0  0  0  0  0  0  0  0  0  0  0
   10.2862    7.6013   23.4166 C   0  0  0  0  0  0  0  0  0  0  0  0
   10.0758    9.0520   23.5839 C   0  0  2  0  0  0  0  0  0  0  0  0
    8.7004    9.1886   24.2081 C   0  0  0  0  0  0  0  0  0  0  0  0
    8.3971   10.5378   24.5291 N   0  0  0  0  0  0  0  0  0  0  0  0
    8.9747   11.4748   23.8033 N   0  0  0  0  0  0  0  0  0  0  0  0
    8.5662   12.6051   24.3722 C   0  0  0  0  0  0  0  0  0  0  0  0
    9.0848   13.8420   23.8603 C   0  0  0  0  0  0  0  0  0  0  0  0
    8.9090   14.8439   24.4273 O   0  0  0  0  0  0  0  0  0  0  0  0
    9.9215   13.5394   22.5977 N   0  0  0  0  0  0  0  0  0  0  0  0
   10.7743   14.3722   21.8417 C   0  0  0  0  0  0  0  0  0  0  0  0
   10.1148   15.3033   20.7827 C   0  0  0  0  0  0  0  0  0  0  0  0
   10.3330   15.2982   19.4297 C   0  0  0  0  0  0  0  0  0  0  0  0
    9.7095   16.3940   18.9062 O   0  0  0  0  0  0  0  0  0  0  0  0
    9.1493   16.9963   19.9867 C   0  0  0  0  0  0  0  0  0  0  0  0
    9.3237   16.3604   21.1180 N   0  0  0  0  0  0  0  0  0  0  0  0
   12.1647   13.8493   21.5248 C   0  0  0  0  0  0  0  0  0  0  0  0
   11.9862   14.9087   22.5484 C   0  0  0  0  0  0  0  0  0  0  0  0
    7.7163   12.3646   25.4718 C   0  0  0  0  0  0  0  0  0  0  0  0
    7.0344   13.1496   26.4092 C   0  0  0  0  0  0  0  0  0  0  0  0
    6.2210   12.5086   27.3468 C   0  0  0  0  0  0  0  0  0  0  0  0
    6.0796   11.1211   27.3502 C   0  0  0  0  0  0  0  0  0  0  0  0
    6.7596   10.3244   26.4313 C   0  0  0  0  0  0  0  0  0  0  0  0
    7.5861   10.9830   25.5207 C   0  0  0  0  0  0  0  0  0  0  0  0
   10.1039    9.4947   22.2254 O   0  0  0  0  0  0  0  0  0  0  0  0
  1  2  2  0
  2  3  1  0
  3  4  1  0
  4  5  1  0
  5  6  1  6
  6  7  1  0
  7  8  1  0
  8  9  2  0
  9 10  1  0
 10 11  2  0
 10 12  1  0
 12 13  1  0
 13 14  1  0
 14 15  2  0
 15 16  1  0
 16 17  1  0
 17 18  2  0
 13 19  1  0
 19 20  1  0
  9 21  1  0
 21 22  2  0
 22 23  1  0
 23 24  2  0
 24 25  1  0
 25 26  2  0
  5 27  1  0
 27  2  1  0
 26  7  1  0
 20 13  1  0
 26 21  1  0
 18 14  1  0
M  END
>  <distance_score>  (279) 
1.415719

>  <smiles>  (279) 
O=C1NCC(Cn2nc(C(=O)NC3(c4cocn4)CC3)c3ccccc32)O1

>  <fragmenstein_error>  (279) 


>  <fragmenstein_runtime>  (279) 
6.036636

>  <gnina_score_min>  (279) 
5.899

>  <orig_smiles>  (279) 
O=C1NCC(Cn2nc(C(=O)NC3(c4cocn4)CC3)c3ccccc32)O1

>  <fragmenstein_mode>  (279) 
expansion

>  <rmsd(smina/fragmenstein)>  (279) 
2.094

>  <inspiration_score>  (279) 
None

>  <name>  (279) 
QFKKPCZXVOOIGL-UHFFFAOYSA-N-P126-P126-P177-601502

>  <ref_pdb>  (279) 
A0514a

>  <ref_mols>  (279) 
A3403a,A2290a

>  <subsites>  (279) 
None

>  <tags>  (279) 
openbind_a71ev2a_c1_elabs_filtered,fragmenstein_placed,a71ev2a_c1_elab_bulkdock_input,openbind_a71ev2a_c1_elab_chemspace_filtered_scored

>  <inchikey>  (279) 
QFKKPCZXVOOIGL-UHFFFAOYSA-N

>  <scratch_subdir>  (279) 
/opt/xchem-fragalysis-2/maxwin/BulkDock/SCRATCH/601502/QFKKPCZXVOOIGL-UHFFFAOYSA-N-P126-P126-P177-601502

>  <smina_score_min>  (279) 
-2.141

>  <energy_score>  (279) 
-22.02513

>  <Energy>  (279) 
50.176635

>  <fragmenstein_outcome>  (279) 
too moved

>  <alias>  (279) 
QFKKPCZXVOOIGL-UHFFFAOYSA-N-P126-P126-P177-601502

>  <HIPPO Pose ID>  (279) 
503142

>  <exports>  (279) 
['/opt/xchem-fragalysis-2/maxwin/openbind-hippo/a71ev2a/cycle_01/bulkdock/openbind_a71ev2a_c1_elab_chemspace.sdf', '/opt/xchem-fragalysis-2/maxwin/openbind-hippo/a71ev2a/cycle_01/syndirella/elabs/openbind_a71ev2a_c1_elab_chemspace_filtered.sdf']

>  <HIPPO Compound ID>  (279) 
299389

>  <gnina_score>  (279) 
6.284

$$$$
LLDZPHCJSJZSFN-UHFFFAOYSA-N-P183-P126-P183-601502
     RDKit          3D

 22 24  0  0  0  0  0  0  0  0999 V2000
   12.4488   14.8277   23.0281 C   0  0  0  0  0  0  0  0  0  0  0  0
   11.9351   13.8642   22.0048 C   0  0  2  0  0  0  0  0  0  0  0  0
   11.8242   14.5003   20.6401 C   0  0  0  0  0  0  0  0  0  0  0  0
   10.6361   15.3169   20.3729 C   0  0  0  0  0  0  0  0  0  0  0  0
   10.2019   15.6974   19.1334 C   0  0  0  0  0  0  0  0  0  0  0  0
    9.2428   16.6382   19.2876 O   0  0  0  0  0  0  0  0  0  0  0  0
    9.1019   16.7379   20.6364 C   0  0  0  0  0  0  0  0  0  0  0  0
    9.8929   15.9491   21.3296 N   0  0  0  0  0  0  0  0  0  0  0  0
   10.8573   13.1007   22.5237 N   0  0  0  0  0  0  0  0  0  0  0  0
    9.8842   13.4014   23.6673 C   0  0  0  0  0  0  0  0  0  0  0  0
    9.7584   14.3571   24.3201 O   0  0  0  0  0  0  0  0  0  0  0  0
    9.1275   12.1818   23.9197 C   0  0  0  0  0  0  0  0  0  0  0  0
    9.4810   11.0356   23.3112 N   0  0  0  0  0  0  0  0  0  0  0  0
    8.8136   10.0930   23.9788 N   0  0  0  0  0  0  0  0  0  0  0  0
    9.1095    8.7199   23.6569 C   0  0  0  0  0  0  0  0  0  0  0  0
    7.9251   10.5991   24.9000 C   0  0  0  0  0  0  0  0  0  0  0  0
    6.9750   10.0083   25.7398 C   0  0  0  0  0  0  0  0  0  0  0  0
    6.2296   10.8383   26.5799 C   0  0  0  0  0  0  0  0  0  0  0  0
    6.4278   12.2110   26.5716 C   0  0  0  0  0  0  0  0  0  0  0  0
    5.7140   12.9763   27.4077 F   0  0  0  0  0  0  0  0  0  0  0  0
    7.3566   12.8060   25.7254 C   0  0  0  0  0  0  0  0  0  0  0  0
    8.1046   11.9797   24.8688 C   0  0  0  0  0  0  0  0  0  0  0  0
  2  1  1  1
  2  3  1  0
  3  4  1  0
  4  5  2  0
  5  6  1  0
  6  7  1  0
  7  8  2  0
  2  9  1  0
  9 10  1  0
 10 11  2  0
 10 12  1  0
 12 13  2  0
 13 14  1  0
 14 15  1  0
 14 16  1  0
 16 17  2  0
 17 18  1  0
 18 19  2  0
 19 20  1  0
 19 21  1  0
 21 22  2  0
  8  4  1  0
 22 12  1  0
 22 16  1  0
M  END
>  <distance_score>  (280) 
0.600622

>  <smiles>  (280) 
CC(Cc1cocn1)NC(=O)c1nn(C)c2ccc(F)cc12

>  <fragmenstein_error>  (280) 


>  <fragmenstein_runtime>  (280) 
2.35006

>  <gnina_score_min>  (280) 
5.826

>  <orig_smiles>  (280) 
CC(Cc1cocn1)NC(=O)c1nn(C)c2ccc(F)cc12

>  <fragmenstein_mode>  (280) 
expansion

>  <rmsd(smina/fragmenstein)>  (280) 
1.744

>  <inspiration_score>  (280) 
None

>  <name>  (280) 
LLDZPHCJSJZSFN-UHFFFAOYSA-N-P183-P126-P183-601502

>  <ref_pdb>  (280) 
A0514a

>  <ref_mols>  (280) 
A2290a,A3436a

>  <subsites>  (280) 
None

>  <tags>  (280) 
fragmenstein_placed,openbind_a71ev2a_c1_elabs_filtered,BulkDock Fragalysis export,a71ev2a_c1_elab_bulkdock_input,openbind_a71ev2a_c1_elab_chemspace_filtered_scored

>  <inchikey>  (280) 
LLDZPHCJSJZSFN-UHFFFAOYSA-N

>  <scratch_subdir>  (280) 
/opt/xchem-fragalysis-2/maxwin/BulkDock/SCRATCH/601502/LLDZPHCJSJZSFN-UHFFFAOYSA-N-P183-P126-P183-601502

>  <smina_score_min>  (280) 
-6.857

>  <energy_score>  (280) 
-7.378615

>  <Energy>  (280) 
79.058104

>  <fragmenstein_outcome>  (280) 
acceptable

>  <alias>  (280) 
LLDZPHCJSJZSFN-UHFFFAOYSA-N-P183-P126-P183-601502

>  <HIPPO Pose ID>  (280) 
503377

>  <exports>  (280) 
['/opt/xchem-fragalysis-2/maxwin/openbind-hippo/a71ev2a/cycle_01/bulkdock/openbind_a71ev2a_c1_elab_chemspace.sdf', '/opt/xchem-fragalysis-2/maxwin/openbind-hippo/a71ev2a/cycle_01/syndirella/elabs/openbind_a71ev2a_c1_elab_chemspace_filtered.sdf', '/opt/xchem-fragalysis-2/maxwin/BulkDock/OUTPUTS/a71ev2a_c1_elab_bulkdock_input_1GFT2LV.sdf', '/opt/xchem-fragalysis-2/maxwin/openbind-hippo/a71ev2a/cycle_01/syndirella/elabs/ASAP-0031281-001_elabs.sdf']

>  <HIPPO Compound ID>  (280) 
191887

>  <gnina_score>  (280) 
5.822

$$$$
SKWLCASPHPGKCF-UHFFFAOYSA-N-P183-P126-P183-601502
     RDKit          3D

 22 24  0  0  0  0  0  0  0  0999 V2000
   11.3920   14.8293   18.3288 C   0  0  0  0  0  0  0  0  0  0  0  0
   10.6544   15.3361   19.4768 C   0  0  0  0  0  0  0  0  0  0  0  0
    9.5478   16.1009   19.2720 O   0  0  0  0  0  0  0  0  0  0  0  0
    9.1794   16.4608   20.5334 C   0  0  0  0  0  0  0  0  0  0  0  0
    9.9261   15.9554   21.4878 N   0  0  0  0  0  0  0  0  0  0  0  0
   10.9121   15.2873   20.8199 C   0  0  0  0  0  0  0  0  0  0  0  0
   12.1185   14.7200   21.4623 C   0  0  0  0  0  0  0  0  0  0  0  0
   11.9948   14.5389   22.9540 C   0  0  0  0  0  0  0  0  0  0  0  0
   10.9886   13.5882   23.2850 N   0  0  0  0  0  0  0  0  0  0  0  0
    9.9442   13.5973   24.3923 C   0  0  0  0  0  0  0  0  0  0  0  0
    9.6799   14.4167   25.1726 O   0  0  0  0  0  0  0  0  0  0  0  0
    9.2347   12.3200   24.3396 C   0  0  0  0  0  0  0  0  0  0  0  0
    9.6878   11.2977   23.5903 N   0  0  0  0  0  0  0  0  0  0  0  0
    8.9547   10.2480   23.9915 N   0  0  0  0  0  0  0  0  0  0  0  0
    9.2994    8.9472   23.4645 C   0  0  0  0  0  0  0  0  0  0  0  0
    7.9917   10.5829   24.9179 C   0  0  0  0  0  0  0  0  0  0  0  0
    7.0366    9.8442   25.6210 C   0  0  0  0  0  0  0  0  0  0  0  0
    6.1834   10.5185   26.4980 C   0  0  0  0  0  0  0  0  0  0  0  0
    6.2770   11.8920   26.6542 C   0  0  0  0  0  0  0  0  0  0  0  0
    5.4530   12.5079   27.5121 F   0  0  0  0  0  0  0  0  0  0  0  0
    7.2257   12.6334   25.9634 C   0  0  0  0  0  0  0  0  0  0  0  0
    8.1018   11.9574   25.0947 C   0  0  0  0  0  0  0  0  0  0  0  0
  1  2  1  0
  2  3  1  0
  3  4  1  0
  4  5  2  0
  5  6  1  0
  6  7  1  0
  7  8  1  0
  8  9  1  0
  9 10  1  0
 10 11  2  0
 10 12  1  0
 12 13  2  0
 13 14  1  0
 14 15  1  0
 14 16  1  0
 16 17  2  0
 17 18  1  0
 18 19  2  0
 19 20  1  0
 19 21  1  0
 21 22  2  0
  6  2  2  0
 22 12  1  0
 22 16  1  0
M  END
>  <distance_score>  (281) 
0.712371

>  <smiles>  (281) 
Cc1ocnc1CCNC(=O)c1nn(C)c2ccc(F)cc12

>  <fragmenstein_error>  (281) 


>  <fragmenstein_runtime>  (281) 
3.585819

>  <gnina_score_min>  (281) 
5.823

>  <orig_smiles>  (281) 
Cc1ocnc1CCNC(=O)c1nn(C)c2ccc(F)cc12

>  <fragmenstein_mode>  (281) 
expansion

>  <rmsd(smina/fragmenstein)>  (281) 
0.3

>  <inspiration_score>  (281) 
None

>  <name>  (281) 
SKWLCASPHPGKCF-UHFFFAOYSA-N-P183-P126-P183-601502

>  <ref_pdb>  (281) 
A0514a

>  <ref_mols>  (281) 
A2290a,A3436a

>  <subsites>  (281) 
None

>  <tags>  (281) 
fragmenstein_placed,openbind_a71ev2a_c1_elabs_filtered,BulkDock Fragalysis export,a71ev2a_c1_elab_bulkdock_input,openbind_a71ev2a_c1_elab_chemspace_filtered_scored

>  <inchikey>  (281) 
SKWLCASPHPGKCF-UHFFFAOYSA-N

>  <scratch_subdir>  (281) 
/opt/xchem-fragalysis-2/maxwin/BulkDock/SCRATCH/601502/SKWLCASPHPGKCF-UHFFFAOYSA-N-P183-P126-P183-601502

>  <smina_score_min>  (281) 
-6.173

>  <energy_score>  (281) 
-22.255064

>  <Energy>  (281) 
69.027761

>  <fragmenstein_outcome>  (281) 
acceptable

>  <alias>  (281) 
SKWLCASPHPGKCF-UHFFFAOYSA-N-P183-P126-P183-601502

>  <HIPPO Pose ID>  (281) 
503379

>  <exports>  (281) 
['/opt/xchem-fragalysis-2/maxwin/openbind-hippo/a71ev2a/cycle_01/bulkdock/openbind_a71ev2a_c1_elab_chemspace.sdf', '/opt/xchem-fragalysis-2/maxwin/openbind-hippo/a71ev2a/cycle_01/syndirella/elabs/openbind_a71ev2a_c1_elab_chemspace_filtered.sdf', '/opt/xchem-fragalysis-2/maxwin/BulkDock/OUTPUTS/a71ev2a_c1_elab_bulkdock_input_1GFT2LV.sdf', '/opt/xchem-fragalysis-2/maxwin/openbind-hippo/a71ev2a/cycle_01/syndirella/elabs/ASAP-0031281-001_elabs.sdf']

>  <HIPPO Compound ID>  (281) 
250891

>  <gnina_score>  (281) 
5.731

$$$$
GRVBCAZAUPUKFZ-UHFFFAOYSA-N-P183-P126-P183-601502
     RDKit          3D

 22 24  0  0  0  0  0  0  0  0999 V2000
    8.4764   17.5901   20.4351 C   0  0  0  0  0  0  0  0  0  0  0  0
    9.4898   16.5567   20.2307 C   0  0  0  0  0  0  0  0  0  0  0  0
   10.2640   16.0214   21.1399 N   0  0  0  0  0  0  0  0  0  0  0  0
   11.0701   15.1776   20.4329 C   0  0  0  0  0  0  0  0  0  0  0  0
   12.2356   14.5585   21.0853 C   0  0  0  0  0  0  0  0  0  0  0  0
   12.1035   14.4981   22.5970 C   0  0  0  0  0  0  0  0  0  0  0  0
   11.1435   13.5315   23.0284 N   0  0  0  0  0  0  0  0  0  0  0  0
   10.1428   13.5726   24.1800 C   0  0  0  0  0  0  0  0  0  0  0  0
    9.9858   14.3668   25.0153 O   0  0  0  0  0  0  0  0  0  0  0  0
    9.3852   12.3164   24.1692 C   0  0  0  0  0  0  0  0  0  0  0  0
    9.8011   11.2590   23.4492 N   0  0  0  0  0  0  0  0  0  0  0  0
    9.0468   10.2399   23.8904 N   0  0  0  0  0  0  0  0  0  0  0  0
    9.3405    8.9167   23.3890 C   0  0  0  0  0  0  0  0  0  0  0  0
    8.1067   10.6232   24.8206 C   0  0  0  0  0  0  0  0  0  0  0  0
    7.1505    9.9225   25.5617 C   0  0  0  0  0  0  0  0  0  0  0  0
    6.3136   10.6406   26.4204 C   0  0  0  0  0  0  0  0  0  0  0  0
    6.4307   12.0211   26.5312 C   0  0  0  0  0  0  0  0  0  0  0  0
    5.2837   12.9569   27.7068 Br  0  0  0  0  0  0  0  0  0  0  0  0
    7.3941   12.7200   25.8058 C   0  0  0  0  0  0  0  0  0  0  0  0
    8.2505   12.0003   24.9505 C   0  0  0  0  0  0  0  0  0  0  0  0
   10.6890   15.1734   19.1145 C   0  0  0  0  0  0  0  0  0  0  0  0
    9.6614   16.0570   18.9730 O   0  0  0  0  0  0  0  0  0  0  0  0
  1  2  1  0
  2  3  2  0
  3  4  1  0
  4  5  1  0
  5  6  1  0
  6  7  1  0
  7  8  1  0
  8  9  2  0
  8 10  1  0
 10 11  2  0
 11 12  1  0
 12 13  1  0
 12 14  1  0
 14 15  2  0
 15 16  1  0
 16 17  2  0
 17 18  1  0
 17 19  1  0
 19 20  2  0
  4 21  2  0
 21 22  1  0
 22  2  1  0
 20 10  1  0
 20 14  1  0
M  END
>  <distance_score>  (282) 
0.529748

>  <smiles>  (282) 
Cc1nc(CCNC(=O)c2nn(C)c3ccc(Br)cc23)co1

>  <fragmenstein_error>  (282) 


>  <fragmenstein_runtime>  (282) 
2.29963

>  <gnina_score_min>  (282) 
6.132

>  <orig_smiles>  (282) 
Cc1nc(CCNC(=O)c2nn(C)c3ccc(Br)cc23)co1

>  <fragmenstein_mode>  (282) 
expansion

>  <rmsd(smina/fragmenstein)>  (282) 
0.454

>  <inspiration_score>  (282) 
None

>  <name>  (282) 
GRVBCAZAUPUKFZ-UHFFFAOYSA-N-P183-P126-P183-601502

>  <ref_pdb>  (282) 
A0514a

>  <ref_mols>  (282) 
A2290a,A3436a

>  <subsites>  (282) 
None

>  <tags>  (282) 
fragmenstein_placed,openbind_a71ev2a_c1_elabs_filtered,BulkDock Fragalysis export,a71ev2a_c1_elab_bulkdock_input,openbind_a71ev2a_c1_elab_chemspace_filtered_scored

>  <inchikey>  (282) 
GRVBCAZAUPUKFZ-UHFFFAOYSA-N

>  <scratch_subdir>  (282) 
/opt/xchem-fragalysis-2/maxwin/BulkDock/SCRATCH/601502/GRVBCAZAUPUKFZ-UHFFFAOYSA-N-P183-P126-P183-601502

>  <smina_score_min>  (282) 
-6.378

>  <energy_score>  (282) 
-4.497751

>  <Energy>  (282) 
70.550052

>  <fragmenstein_outcome>  (282) 
acceptable

>  <alias>  (282) 
GRVBCAZAUPUKFZ-UHFFFAOYSA-N-P183-P126-P183-601502

>  <HIPPO Pose ID>  (282) 
503385

>  <exports>  (282) 
['/opt/xchem-fragalysis-2/maxwin/openbind-hippo/a71ev2a/cycle_01/bulkdock/openbind_a71ev2a_c1_elab_chemspace.sdf', '/opt/xchem-fragalysis-2/maxwin/openbind-hippo/a71ev2a/cycle_01/syndirella/elabs/openbind_a71ev2a_c1_elab_chemspace_filtered.sdf', '/opt/xchem-fragalysis-2/maxwin/BulkDock/OUTPUTS/a71ev2a_c1_elab_bulkdock_input_1GFT2LV.sdf', '/opt/xchem-fragalysis-2/maxwin/openbind-hippo/a71ev2a/cycle_01/syndirella/elabs/ASAP-0031281-001_elabs.sdf']

>  <HIPPO Compound ID>  (282) 
289827

>  <gnina_score>  (282) 
5.9

$$$$
YIQBRUGGXMDKEY-UHFFFAOYSA-N-P183-P126-P183-601502
     RDKit          3D

 22 24  0  0  0  0  0  0  0  0999 V2000
   12.4556   14.8400   23.0075 C   0  0  0  0  0  0  0  0  0  0  0  0
   11.9274   13.8751   21.9927 C   0  0  2  0  0  0  0  0  0  0  0  0
   11.8087   14.5058   20.6272 C   0  0  0  0  0  0  0  0  0  0  0  0
   10.6241   15.3305   20.3704 C   0  0  0  0  0  0  0  0  0  0  0  0
   10.1758   15.7016   19.1334 C   0  0  0  0  0  0  0  0  0  0  0  0
    9.2287   16.6538   19.2901 O   0  0  0  0  0  0  0  0  0  0  0  0
    9.1052   16.7667   20.6393 C   0  0  0  0  0  0  0  0  0  0  0  0
    9.9004   15.9803   21.3304 N   0  0  0  0  0  0  0  0  0  0  0  0
   10.8484   13.1177   22.5205 N   0  0  0  0  0  0  0  0  0  0  0  0
    9.9350   13.3883   23.7205 C   0  0  0  0  0  0  0  0  0  0  0  0
    9.8677   14.3130   24.4255 O   0  0  0  0  0  0  0  0  0  0  0  0
    9.1524   12.1802   23.9441 C   0  0  0  0  0  0  0  0  0  0  0  0
    9.5114   11.0388   23.3315 N   0  0  0  0  0  0  0  0  0  0  0  0
    8.8253   10.0921   23.9725 N   0  0  0  0  0  0  0  0  0  0  0  0
    9.1187    8.7210   23.6383 C   0  0  0  0  0  0  0  0  0  0  0  0
    7.9350   10.5935   24.8950 C   0  0  0  0  0  0  0  0  0  0  0  0
    6.9822    9.9982   25.7265 C   0  0  0  0  0  0  0  0  0  0  0  0
    6.2295   10.8207   26.5686 C   0  0  0  0  0  0  0  0  0  0  0  0
    6.4227   12.1977   26.5726 C   0  0  0  0  0  0  0  0  0  0  0  0
    5.3969   13.2741   27.7403 Br  0  0  0  0  0  0  0  0  0  0  0  0
    7.3621   12.7952   25.7335 C   0  0  0  0  0  0  0  0  0  0  0  0
    8.1170   11.9732   24.8772 C   0  0  0  0  0  0  0  0  0  0  0  0
  2  1  1  1
  2  3  1  0
  3  4  1  0
  4  5  2  0
  5  6  1  0
  6  7  1  0
  7  8  2  0
  2  9  1  0
  9 10  1  0
 10 11  2  0
 10 12  1  0
 12 13  2  0
 13 14  1  0
 14 15  1  0
 14 16  1  0
 16 17  2  0
 17 18  1  0
 18 19  2  0
 19 20  1  0
 19 21  1  0
 21 22  2  0
  8  4  1  0
 22 12  1  0
 22 16  1  0
M  END
>  <distance_score>  (283) 
0.586429

>  <smiles>  (283) 
CC(Cc1cocn1)NC(=O)c1nn(C)c2ccc(Br)cc12

>  <fragmenstein_error>  (283) 


>  <fragmenstein_runtime>  (283) 
3.410667

>  <gnina_score_min>  (283) 
5.913

>  <orig_smiles>  (283) 
CC(Cc1cocn1)NC(=O)c1nn(C)c2ccc(Br)cc12

>  <fragmenstein_mode>  (283) 
expansion

>  <rmsd(smina/fragmenstein)>  (283) 
1.763

>  <inspiration_score>  (283) 
None

>  <name>  (283) 
YIQBRUGGXMDKEY-UHFFFAOYSA-N-P183-P126-P183-601502

>  <ref_pdb>  (283) 
A0514a

>  <ref_mols>  (283) 
A2290a,A3436a

>  <subsites>  (283) 
None

>  <tags>  (283) 
fragmenstein_placed,openbind_a71ev2a_c1_elabs_filtered,BulkDock Fragalysis export,a71ev2a_c1_elab_bulkdock_input,openbind_a71ev2a_c1_elab_chemspace_filtered_scored

>  <inchikey>  (283) 
YIQBRUGGXMDKEY-UHFFFAOYSA-N

>  <scratch_subdir>  (283) 
/opt/xchem-fragalysis-2/maxwin/BulkDock/SCRATCH/601502/YIQBRUGGXMDKEY-UHFFFAOYSA-N-P183-P126-P183-601502

>  <smina_score_min>  (283) 
-6.889

>  <energy_score>  (283) 
-26.324425

>  <Energy>  (283) 
82.00089

>  <fragmenstein_outcome>  (283) 
acceptable

>  <alias>  (283) 
YIQBRUGGXMDKEY-UHFFFAOYSA-N-P183-P126-P183-601502

>  <HIPPO Pose ID>  (283) 
503387

>  <exports>  (283) 
['/opt/xchem-fragalysis-2/maxwin/openbind-hippo/a71ev2a/cycle_01/bulkdock/openbind_a71ev2a_c1_elab_chemspace.sdf', '/opt/xchem-fragalysis-2/maxwin/openbind-hippo/a71ev2a/cycle_01/syndirella/elabs/openbind_a71ev2a_c1_elab_chemspace_filtered.sdf', '/opt/xchem-fragalysis-2/maxwin/BulkDock/OUTPUTS/a71ev2a_c1_elab_bulkdock_input_1GFT2LV.sdf', '/opt/xchem-fragalysis-2/maxwin/openbind-hippo/a71ev2a/cycle_01/syndirella/elabs/ASAP-0031281-001_elabs.sdf']

>  <HIPPO Compound ID>  (283) 
289828

>  <gnina_score>  (283) 
5.914

$$$$
YVHPJRWUHCQUON-UHFFFAOYSA-N-P183-P126-P183-601502
     RDKit          3D

 23 25  0  0  0  0  0  0  0  0999 V2000
    8.4048   17.5271   20.6636 C   0  0  0  0  0  0  0  0  0  0  0  0
    9.4443   16.5197   20.5061 C   0  0  0  0  0  0  0  0  0  0  0  0
   10.1504   15.9518   21.4545 N   0  0  0  0  0  0  0  0  0  0  0  0
   11.0571   15.2033   20.7789 C   0  0  0  0  0  0  0  0  0  0  0  0
   12.2269   14.5961   21.4341 C   0  0  0  0  0  0  0  0  0  0  0  0
   12.0873   14.4831   22.9339 C   0  0  0  0  0  0  0  0  0  0  0  0
   11.1030   13.5224   23.3024 N   0  0  0  0  0  0  0  0  0  0  0  0
   10.0173   13.5761   24.3695 C   0  0  0  0  0  0  0  0  0  0  0  0
    9.7931   14.3813   25.1774 O   0  0  0  0  0  0  0  0  0  0  0  0
    9.2781   12.3140   24.3043 C   0  0  0  0  0  0  0  0  0  0  0  0
    9.7270   11.2839   23.5626 N   0  0  0  0  0  0  0  0  0  0  0  0
    8.9810   10.2417   23.9616 N   0  0  0  0  0  0  0  0  0  0  0  0
    9.3082    8.9367   23.4324 C   0  0  0  0  0  0  0  0  0  0  0  0
    8.0230   10.5877   24.8888 C   0  0  0  0  0  0  0  0  0  0  0  0
    7.0693    9.8565   25.5999 C   0  0  0  0  0  0  0  0  0  0  0  0
    6.2153   10.5376   26.4719 C   0  0  0  0  0  0  0  0  0  0  0  0
    6.3080   11.9158   26.6203 C   0  0  0  0  0  0  0  0  0  0  0  0
    5.1362   12.8018   27.8098 Br  0  0  0  0  0  0  0  0  0  0  0  0
    7.2646   12.6475   25.9212 C   0  0  0  0  0  0  0  0  0  0  0  0
    8.1388   11.9624   25.0562 C   0  0  0  0  0  0  0  0  0  0  0  0
   10.7845   15.2674   19.4398 C   0  0  0  0  0  0  0  0  0  0  0  0
   11.4748   14.7474   18.2769 C   0  0  0  0  0  0  0  0  0  0  0  0
    9.7349   16.1058   19.2427 O   0  0  0  0  0  0  0  0  0  0  0  0
  1  2  1  0
  2  3  2  0
  3  4  1  0
  4  5  1  0
  5  6  1  0
  6  7  1  0
  7  8  1  0
  8  9  2  0
  8 10  1  0
 10 11  2  0
 11 12  1  0
 12 13  1  0
 12 14  1  0
 14 15  2  0
 15 16  1  0
 16 17  2  0
 17 18  1  0
 17 19  1  0
 19 20  2  0
  4 21  2  0
 21 22  1  0
 21 23  1  0
 23  2  1  0
 20 10  1  0
 20 14  1  0
M  END
>  <distance_score>  (284) 
0.67174

>  <smiles>  (284) 
Cc1nc(CCNC(=O)c2nn(C)c3ccc(Br)cc23)c(C)o1

>  <fragmenstein_error>  (284) 


>  <fragmenstein_runtime>  (284) 
3.194286

>  <gnina_score_min>  (284) 
6.081

>  <orig_smiles>  (284) 
Cc1nc(CCNC(=O)c2nn(C)c3ccc(Br)cc23)c(C)o1

>  <fragmenstein_mode>  (284) 
expansion

>  <rmsd(smina/fragmenstein)>  (284) 
0.424

>  <inspiration_score>  (284) 
None

>  <name>  (284) 
YVHPJRWUHCQUON-UHFFFAOYSA-N-P183-P126-P183-601502

>  <ref_pdb>  (284) 
A0514a

>  <ref_mols>  (284) 
A2290a,A3436a

>  <subsites>  (284) 
None

>  <tags>  (284) 
fragmenstein_placed,openbind_a71ev2a_c1_elabs_filtered,BulkDock Fragalysis export,a71ev2a_c1_elab_bulkdock_input,openbind_a71ev2a_c1_elab_chemspace_filtered_scored

>  <inchikey>  (284) 
YVHPJRWUHCQUON-UHFFFAOYSA-N

>  <scratch_subdir>  (284) 
/opt/xchem-fragalysis-2/maxwin/BulkDock/SCRATCH/601502/YVHPJRWUHCQUON-UHFFFAOYSA-N-P183-P126-P183-601502

>  <smina_score_min>  (284) 
-5.719

>  <energy_score>  (284) 
-2.570981

>  <Energy>  (284) 
72.649566

>  <fragmenstein_outcome>  (284) 
acceptable

>  <alias>  (284) 
YVHPJRWUHCQUON-UHFFFAOYSA-N-P183-P126-P183-601502

>  <HIPPO Pose ID>  (284) 
503389

>  <exports>  (284) 
['/opt/xchem-fragalysis-2/maxwin/openbind-hippo/a71ev2a/cycle_01/bulkdock/openbind_a71ev2a_c1_elab_chemspace.sdf', '/opt/xchem-fragalysis-2/maxwin/openbind-hippo/a71ev2a/cycle_01/syndirella/elabs/openbind_a71ev2a_c1_elab_chemspace_filtered.sdf', '/opt/xchem-fragalysis-2/maxwin/BulkDock/OUTPUTS/a71ev2a_c1_elab_bulkdock_input_1GFT2LV.sdf', '/opt/xchem-fragalysis-2/maxwin/openbind-hippo/a71ev2a/cycle_01/syndirella/elabs/ASAP-0031281-001_elabs.sdf']

>  <HIPPO Compound ID>  (284) 
289829

>  <gnina_score>  (284) 
5.88

$$$$
MRIKHPOGYPLZKJ-UHFFFAOYSA-N-P183-P126-P183-601502
     RDKit          3D

 23 25  0  0  0  0  0  0  0  0999 V2000
    8.4046   17.5212   20.6715 C   0  0  0  0  0  0  0  0  0  0  0  0
    9.4422   16.5119   20.5119 C   0  0  0  0  0  0  0  0  0  0  0  0
   10.1453   15.9376   21.4589 N   0  0  0  0  0  0  0  0  0  0  0  0
   11.0553   15.1952   20.7812 C   0  0  0  0  0  0  0  0  0  0  0  0
   12.2238   14.5859   21.4364 C   0  0  0  0  0  0  0  0  0  0  0  0
   12.0841   14.4717   22.9361 C   0  0  0  0  0  0  0  0  0  0  0  0
   11.0926   13.5186   23.3074 N   0  0  0  0  0  0  0  0  0  0  0  0
   10.0135   13.5791   24.3805 C   0  0  0  0  0  0  0  0  0  0  0  0
    9.8011   14.3839   25.1918 O   0  0  0  0  0  0  0  0  0  0  0  0
    9.2596   12.3246   24.3190 C   0  0  0  0  0  0  0  0  0  0  0  0
    9.6925   11.2833   23.5814 N   0  0  0  0  0  0  0  0  0  0  0  0
    8.9416   10.2529   24.0030 N   0  0  0  0  0  0  0  0  0  0  0  0
    9.2760    8.9344   23.5168 C   0  0  0  0  0  0  0  0  0  0  0  0
    7.9848   10.6169   24.9235 C   0  0  0  0  0  0  0  0  0  0  0  0
    7.0199    9.9021   25.6399 C   0  0  0  0  0  0  0  0  0  0  0  0
    6.1810   10.6034   26.5092 C   0  0  0  0  0  0  0  0  0  0  0  0
    6.2989   11.9773   26.6460 C   0  0  0  0  0  0  0  0  0  0  0  0
    5.4914   12.6194   27.5006 F   0  0  0  0  0  0  0  0  0  0  0  0
    7.2573   12.6939   25.9413 C   0  0  0  0  0  0  0  0  0  0  0  0
    8.1182   11.9924   25.0778 C   0  0  0  0  0  0  0  0  0  0  0  0
   10.7854   15.2657   19.4420 C   0  0  0  0  0  0  0  0  0  0  0  0
   11.4779   14.7529   18.2773 C   0  0  0  0  0  0  0  0  0  0  0  0
    9.7351   16.1035   19.2471 O   0  0  0  0  0  0  0  0  0  0  0  0
  1  2  1  0
  2  3  2  0
  3  4  1  0
  4  5  1  0
  5  6  1  0
  6  7  1  0
  7  8  1  0
  8  9  2  0
  8 10  1  0
 10 11  2  0
 11 12  1  0
 12 13  1  0
 12 14  1  0
 14 15  2  0
 15 16  1  0
 16 17  2  0
 17 18  1  0
 17 19  1  0
 19 20  2  0
  4 21  2  0
 21 22  1  0
 21 23  1  0
 23  2  1  0
 20 10  1  0
 20 14  1  0
M  END
>  <distance_score>  (285) 
0.689301

>  <smiles>  (285) 
Cc1nc(CCNC(=O)c2nn(C)c3ccc(F)cc23)c(C)o1

>  <fragmenstein_error>  (285) 


>  <fragmenstein_runtime>  (285) 
4.62779

>  <gnina_score_min>  (285) 
5.98

>  <orig_smiles>  (285) 
Cc1nc(CCNC(=O)c2nn(C)c3ccc(F)cc23)c(C)o1

>  <fragmenstein_mode>  (285) 
expansion

>  <rmsd(smina/fragmenstein)>  (285) 
0.41

>  <inspiration_score>  (285) 
None

>  <name>  (285) 
MRIKHPOGYPLZKJ-UHFFFAOYSA-N-P183-P126-P183-601502

>  <ref_pdb>  (285) 
A0514a

>  <ref_mols>  (285) 
A2290a,A3436a

>  <subsites>  (285) 
None

>  <tags>  (285) 
fragmenstein_placed,openbind_a71ev2a_c1_elabs_filtered,BulkDock Fragalysis export,a71ev2a_c1_elab_bulkdock_input,openbind_a71ev2a_c1_elab_chemspace_filtered_scored

>  <inchikey>  (285) 
MRIKHPOGYPLZKJ-UHFFFAOYSA-N

>  <scratch_subdir>  (285) 
/opt/xchem-fragalysis-2/maxwin/BulkDock/SCRATCH/601502/MRIKHPOGYPLZKJ-UHFFFAOYSA-N-P183-P126-P183-601502

>  <smina_score_min>  (285) 
-5.724

>  <energy_score>  (285) 
-4.695939

>  <Energy>  (285) 
69.922288

>  <fragmenstein_outcome>  (285) 
acceptable

>  <alias>  (285) 
MRIKHPOGYPLZKJ-UHFFFAOYSA-N-P183-P126-P183-601502

>  <HIPPO Pose ID>  (285) 
503391

>  <exports>  (285) 
['/opt/xchem-fragalysis-2/maxwin/openbind-hippo/a71ev2a/cycle_01/bulkdock/openbind_a71ev2a_c1_elab_chemspace.sdf', '/opt/xchem-fragalysis-2/maxwin/openbind-hippo/a71ev2a/cycle_01/syndirella/elabs/openbind_a71ev2a_c1_elab_chemspace_filtered.sdf', '/opt/xchem-fragalysis-2/maxwin/BulkDock/OUTPUTS/a71ev2a_c1_elab_bulkdock_input_1GFT2LV.sdf', '/opt/xchem-fragalysis-2/maxwin/openbind-hippo/a71ev2a/cycle_01/syndirella/elabs/ASAP-0031281-001_elabs.sdf']

>  <HIPPO Compound ID>  (285) 
289830

>  <gnina_score>  (285) 
5.791

$$$$
QZNFHAMVIOJLEH-UHFFFAOYSA-N-P183-P126-P183-601502
     RDKit          3D

 24 26  0  0  0  0  0  0  0  0999 V2000
   11.3876   14.8373   18.3323 C   0  0  0  0  0  0  0  0  0  0  0  0
   10.6476   15.3303   19.4850 C   0  0  0  0  0  0  0  0  0  0  0  0
    9.5384   16.0931   19.2886 O   0  0  0  0  0  0  0  0  0  0  0  0
    9.1698   16.4387   20.5543 C   0  0  0  0  0  0  0  0  0  0  0  0
    9.9167   15.9232   21.5036 N   0  0  0  0  0  0  0  0  0  0  0  0
   10.9065   15.2693   20.8273 C   0  0  0  0  0  0  0  0  0  0  0  0
   12.1208   14.7079   21.4579 C   0  0  0  0  0  0  0  0  0  0  0  0
   12.0268   14.5534   22.9540 C   0  0  0  0  0  0  0  0  0  0  0  0
   11.0667   13.5705   23.3244 N   0  0  0  0  0  0  0  0  0  0  0  0
    9.9908   13.5942   24.4007 C   0  0  0  0  0  0  0  0  0  0  0  0
    9.7573   14.3887   25.2160 O   0  0  0  0  0  0  0  0  0  0  0  0
    9.2681   12.3241   24.3294 C   0  0  0  0  0  0  0  0  0  0  0  0
    9.7286   11.2987   23.5894 N   0  0  0  0  0  0  0  0  0  0  0  0
    8.9792   10.2533   23.9734 N   0  0  0  0  0  0  0  0  0  0  0  0
    9.3060    8.9537   23.4309 C   0  0  0  0  0  0  0  0  0  0  0  0
    8.0146   10.5914   24.8977 C   0  0  0  0  0  0  0  0  0  0  0  0
    7.0580    9.8504   25.5956 C   0  0  0  0  0  0  0  0  0  0  0  0
    6.1780   10.5222   26.4478 C   0  0  0  0  0  0  0  0  0  0  0  0
    6.2578   11.9080   26.5894 C   0  0  0  0  0  0  0  0  0  0  0  0
    5.3171   12.5899   27.4782 N   0  0  0  0  0  0  0  0  0  0  0  0
    5.6748   13.6675   27.9732 O   0  0  0  0  0  0  0  0  0  0  0  0
    4.2389   12.0248   27.7172 O   0  0  0  0  0  0  0  0  0  0  0  0
    7.2330   12.6519   25.9185 C   0  0  0  0  0  0  0  0  0  0  0  0
    8.1224   11.9666   25.0689 C   0  0  0  0  0  0  0  0  0  0  0  0
  1  2  1  0
  2  3  1  0
  3  4  1  0
  4  5  2  0
  5  6  1  0
  6  7  1  0
  7  8  1  0
  8  9  1  0
  9 10  1  0
 10 11  2  0
 10 12  1  0
 12 13  2  0
 13 14  1  0
 14 15  1  0
 14 16  1  0
 16 17  2  0
 17 18  1  0
 18 19  2  0
 19 20  1  0
 20 21  2  0
 20 22  1  0
 19 23  1  0
 23 24  2  0
  6  2  2  0
 24 12  1  0
 24 16  1  0
M  CHG  2  20   1  22  -1
M  END
>  <distance_score>  (286) 
0.70458

>  <smiles>  (286) 
Cc1ocnc1CCNC(=O)c1nn(C)c2ccc([N+](=O)[O-])cc12

>  <fragmenstein_error>  (286) 


>  <fragmenstein_runtime>  (286) 
3.699681

>  <gnina_score_min>  (286) 
5.923

>  <orig_smiles>  (286) 
Cc1ocnc1CCNC(=O)c1nn(C)c2ccc([N+](=O)[O-])cc12

>  <fragmenstein_mode>  (286) 
expansion

>  <rmsd(smina/fragmenstein)>  (286) 
0.298

>  <inspiration_score>  (286) 
None

>  <name>  (286) 
QZNFHAMVIOJLEH-UHFFFAOYSA-N-P183-P126-P183-601502

>  <ref_pdb>  (286) 
A0514a

>  <ref_mols>  (286) 
A2290a,A3436a

>  <subsites>  (286) 
None

>  <tags>  (286) 
fragmenstein_placed,openbind_a71ev2a_c1_elabs_filtered,BulkDock Fragalysis export,a71ev2a_c1_elab_bulkdock_input,openbind_a71ev2a_c1_elab_chemspace_filtered_scored

>  <inchikey>  (286) 
QZNFHAMVIOJLEH-UHFFFAOYSA-N

>  <scratch_subdir>  (286) 
/opt/xchem-fragalysis-2/maxwin/BulkDock/SCRATCH/601502/QZNFHAMVIOJLEH-UHFFFAOYSA-N-P183-P126-P183-601502

>  <smina_score_min>  (286) 
-6.146

>  <energy_score>  (286) 
-18.251645

>  <Energy>  (286) 
102.926746

>  <fragmenstein_outcome>  (286) 
acceptable

>  <alias>  (286) 
QZNFHAMVIOJLEH-UHFFFAOYSA-N-P183-P126-P183-601502

>  <HIPPO Pose ID>  (286) 
503393

>  <exports>  (286) 
['/opt/xchem-fragalysis-2/maxwin/openbind-hippo/a71ev2a/cycle_01/bulkdock/openbind_a71ev2a_c1_elab_chemspace.sdf', '/opt/xchem-fragalysis-2/maxwin/openbind-hippo/a71ev2a/cycle_01/syndirella/elabs/openbind_a71ev2a_c1_elab_chemspace_filtered.sdf', '/opt/xchem-fragalysis-2/maxwin/BulkDock/OUTPUTS/a71ev2a_c1_elab_bulkdock_input_1GFT2LV.sdf', '/opt/xchem-fragalysis-2/maxwin/openbind-hippo/a71ev2a/cycle_01/syndirella/elabs/ASAP-0031281-001_elabs.sdf']

>  <HIPPO Compound ID>  (286) 
289831

>  <gnina_score>  (286) 
5.913

$$$$
IMTOCZSSUZGMII-UHFFFAOYSA-N-P126-P126-P183-601502
     RDKit          3D

 24 26  0  0  0  0  0  0  0  0999 V2000
    8.5934   17.3963   20.7067 C   0  0  0  0  0  0  0  0  0  0  0  0
    9.5652   16.3161   20.4736 C   0  0  0  0  0  0  0  0  0  0  0  0
   10.3430   15.7207   21.3500 N   0  0  0  0  0  0  0  0  0  0  0  0
   11.1654   14.9348   20.5912 C   0  0  0  0  0  0  0  0  0  0  0  0
   12.3928   14.3341   21.1524 C   0  0  0  0  0  0  0  0  0  0  0  0
   12.3482   14.1922   22.6570 C   0  0  0  0  0  0  0  0  0  0  0  0
   11.3627   13.2607   23.0967 N   0  0  0  0  0  0  0  0  0  0  0  0
   10.4797   13.2636   24.3428 C   0  0  0  0  0  0  0  0  0  0  0  0
   10.3554   14.0644   25.1781 O   0  0  0  0  0  0  0  0  0  0  0  0
    9.6912   12.0284   24.3232 C   0  0  0  0  0  0  0  0  0  0  0  0
   10.0473   11.0029   23.5296 N   0  0  0  0  0  0  0  0  0  0  0  0
    9.1961   10.0190   23.8535 N   0  0  0  0  0  0  0  0  0  0  0  0
    9.3316    8.7544   23.1709 C   0  0  0  0  0  0  0  0  0  0  0  0
    8.2787   10.3866   24.8101 C   0  0  0  0  0  0  0  0  0  0  0  0
    7.2505    9.6940   25.4523 C   0  0  0  0  0  0  0  0  0  0  0  0
    6.4372   10.3916   26.3481 C   0  0  0  0  0  0  0  0  0  0  0  0
    6.6674   11.7462   26.5975 C   0  0  0  0  0  0  0  0  0  0  0  0
    5.7998   12.4541   27.5380 N   0  0  0  0  0  0  0  0  0  0  0  0
    4.6519   12.0152   27.7048 O   0  0  0  0  0  0  0  0  0  0  0  0
    6.2818   13.4233   28.1412 O   0  0  0  0  0  0  0  0  0  0  0  0
    7.7278   12.4320   25.9928 C   0  0  0  0  0  0  0  0  0  0  0  0
    8.5416   11.7249   25.0874 C   0  0  0  0  0  0  0  0  0  0  0  0
   10.7601   14.9924   19.2841 C   0  0  0  0  0  0  0  0  0  0  0  0
    9.7271   15.8743   19.1939 O   0  0  0  0  0  0  0  0  0  0  0  0
  1  2  1  0
  2  3  2  0
  3  4  1  0
  4  5  1  0
  5  6  1  0
  6  7  1  0
  7  8  1  0
  8  9  2  0
  8 10  1  0
 10 11  2  0
 11 12  1  0
 12 13  1  0
 12 14  1  0
 14 15  2  0
 15 16  1  0
 16 17  2  0
 17 18  1  0
 18 19  2  0
 18 20  1  0
 17 21  1  0
 21 22  2  0
  4 23  2  0
 23 24  1  0
 24  2  1  0
 22 10  1  0
 22 14  1  0
M  CHG  2  18   1  20  -1
M  END
>  <distance_score>  (287) 
0.529264

>  <smiles>  (287) 
Cc1nc(CCNC(=O)c2nn(C)c3ccc([N+](=O)[O-])cc23)co1

>  <fragmenstein_error>  (287) 


>  <fragmenstein_runtime>  (287) 
3.14609

>  <gnina_score_min>  (287) 
6.158

>  <orig_smiles>  (287) 
Cc1nc(CCNC(=O)c2nn(C)c3ccc([N+](=O)[O-])cc23)co1

>  <fragmenstein_mode>  (287) 
expansion

>  <rmsd(smina/fragmenstein)>  (287) 
0.652

>  <inspiration_score>  (287) 
None

>  <name>  (287) 
IMTOCZSSUZGMII-UHFFFAOYSA-N-P126-P126-P183-601502

>  <ref_pdb>  (287) 
A0514a

>  <ref_mols>  (287) 
A2290a,A3436a

>  <subsites>  (287) 
None

>  <tags>  (287) 
fragmenstein_placed,openbind_a71ev2a_c1_elabs_filtered,BulkDock Fragalysis export,a71ev2a_c1_elab_bulkdock_input,openbind_a71ev2a_c1_elab_chemspace_filtered_scored

>  <inchikey>  (287) 
IMTOCZSSUZGMII-UHFFFAOYSA-N

>  <scratch_subdir>  (287) 
/opt/xchem-fragalysis-2/maxwin/BulkDock/SCRATCH/601502/IMTOCZSSUZGMII-UHFFFAOYSA-N-P126-P126-P183-601502

>  <smina_score_min>  (287) 
-6.328

>  <energy_score>  (287) 
-22.64931

>  <Energy>  (287) 
101.463793

>  <fragmenstein_outcome>  (287) 
acceptable

>  <alias>  (287) 
IMTOCZSSUZGMII-UHFFFAOYSA-N-P126-P126-P183-601502

>  <HIPPO Pose ID>  (287) 
503396

>  <exports>  (287) 
['/opt/xchem-fragalysis-2/maxwin/openbind-hippo/a71ev2a/cycle_01/bulkdock/openbind_a71ev2a_c1_elab_chemspace.sdf', '/opt/xchem-fragalysis-2/maxwin/openbind-hippo/a71ev2a/cycle_01/syndirella/elabs/openbind_a71ev2a_c1_elab_chemspace_filtered.sdf', '/opt/xchem-fragalysis-2/maxwin/BulkDock/OUTPUTS/a71ev2a_c1_elab_bulkdock_input_1GFT2LV.sdf', '/opt/xchem-fragalysis-2/maxwin/openbind-hippo/a71ev2a/cycle_01/syndirella/elabs/ASAP-0031281-001_elabs.sdf']

>  <HIPPO Compound ID>  (287) 
289833

>  <gnina_score>  (287) 
5.931

$$$$
FJORHRSFVACLOE-UHFFFAOYSA-N-P126-P126-P183-601502
     RDKit          3D

 25 27  0  0  0  0  0  0  0  0999 V2000
   14.4833   11.9548   24.9606 C   0  0  0  0  0  0  0  0  0  0  0  0
   13.6548   12.5030   23.9122 O   0  0  0  0  0  0  0  0  0  0  0  0
   12.7220   13.4098   24.2749 C   0  0  0  0  0  0  0  0  0  0  0  0
   12.4886   13.6793   25.4554 O   0  0  0  0  0  0  0  0  0  0  0  0
   11.8740   14.0182   23.1532 C   0  0  1  0  0  0  0  0  0  0  0  0
   12.2788   14.0699   21.6918 C   0  0  0  0  0  0  0  0  0  0  0  0
   11.2302   14.7577   20.8687 C   0  0  0  0  0  0  0  0  0  0  0  0
   11.0046   14.7754   19.5118 C   0  0  0  0  0  0  0  0  0  0  0  0
    9.9605   15.6210   19.2594 O   0  0  0  0  0  0  0  0  0  0  0  0
    9.6144   16.0906   20.4821 C   0  0  0  0  0  0  0  0  0  0  0  0
   10.3088   15.5824   21.4704 N   0  0  0  0  0  0  0  0  0  0  0  0
   10.7297   13.2149   23.4127 N   0  0  0  0  0  0  0  0  0  0  0  0
    9.5789   13.4195   24.3825 C   0  0  0  0  0  0  0  0  0  0  0  0
    9.3299   14.3149   25.0781 O   0  0  0  0  0  0  0  0  0  0  0  0
    8.8354   12.1731   24.3668 C   0  0  0  0  0  0  0  0  0  0  0  0
    9.2810   11.1364   23.6268 N   0  0  0  0  0  0  0  0  0  0  0  0
    8.6147   10.0891   24.1190 N   0  0  0  0  0  0  0  0  0  0  0  0
    9.0068    8.7719   23.6861 C   0  0  0  0  0  0  0  0  0  0  0  0
    7.6944   10.4316   25.0794 C   0  0  0  0  0  0  0  0  0  0  0  0
    6.7747    9.6949   25.8174 C   0  0  0  0  0  0  0  0  0  0  0  0
    6.0083   10.3585   26.7774 C   0  0  0  0  0  0  0  0  0  0  0  0
    6.1545   11.7253   26.9831 C   0  0  0  0  0  0  0  0  0  0  0  0
    5.1033   12.5837   28.2999 Br  0  0  0  0  0  0  0  0  0  0  0  0
    7.0601   12.4687   26.2339 C   0  0  0  0  0  0  0  0  0  0  0  0
    7.8179   11.8024   25.2565 C   0  0  0  0  0  0  0  0  0  0  0  0
  1  2  1  0
  2  3  1  0
  3  4  2  0
  3  5  1  0
  5  6  1  6
  6  7  1  0
  7  8  2  0
  8  9  1  0
  9 10  1  0
 10 11  2  0
  5 12  1  0
 12 13  1  0
 13 14  2  0
 13 15  1  0
 15 16  2  0
 16 17  1  0
 17 18  1  0
 17 19  1  0
 19 20  2  0
 20 21  1  0
 21 22  2  0
 22 23  1  0
 22 24  1  0
 24 25  2  0
 11  7  1  0
 25 15  1  0
 25 19  1  0
M  END
>  <distance_score>  (288) 
0.961579

>  <smiles>  (288) 
COC(=O)C(Cc1cocn1)NC(=O)c1nn(C)c2ccc(Br)cc12

>  <fragmenstein_error>  (288) 


>  <fragmenstein_runtime>  (288) 
5.540681

>  <gnina_score_min>  (288) 
6.011

>  <orig_smiles>  (288) 
COC(=O)C(Cc1cocn1)NC(=O)c1nn(C)c2ccc(Br)cc12

>  <fragmenstein_mode>  (288) 
expansion

>  <rmsd(smina/fragmenstein)>  (288) 
0.671

>  <inspiration_score>  (288) 
None

>  <name>  (288) 
FJORHRSFVACLOE-UHFFFAOYSA-N-P126-P126-P183-601502

>  <ref_pdb>  (288) 
A0514a

>  <ref_mols>  (288) 
A2290a,A3436a

>  <subsites>  (288) 
None

>  <tags>  (288) 
fragmenstein_placed,openbind_a71ev2a_c1_elabs_filtered,BulkDock Fragalysis export,a71ev2a_c1_elab_bulkdock_input,openbind_a71ev2a_c1_elab_chemspace_filtered_scored

>  <inchikey>  (288) 
FJORHRSFVACLOE-UHFFFAOYSA-N

>  <scratch_subdir>  (288) 
/opt/xchem-fragalysis-2/maxwin/BulkDock/SCRATCH/601502/FJORHRSFVACLOE-UHFFFAOYSA-N-P126-P126-P183-601502

>  <smina_score_min>  (288) 
-5.747

>  <energy_score>  (288) 
-23.608087

>  <Energy>  (288) 
99.895594

>  <fragmenstein_outcome>  (288) 
acceptable

>  <alias>  (288) 
FJORHRSFVACLOE-UHFFFAOYSA-N-P126-P126-P183-601502

>  <HIPPO Pose ID>  (288) 
503404

>  <exports>  (288) 
['/opt/xchem-fragalysis-2/maxwin/openbind-hippo/a71ev2a/cycle_01/bulkdock/openbind_a71ev2a_c1_elab_chemspace.sdf', '/opt/xchem-fragalysis-2/maxwin/openbind-hippo/a71ev2a/cycle_01/syndirella/elabs/openbind_a71ev2a_c1_elab_chemspace_filtered.sdf', '/opt/xchem-fragalysis-2/maxwin/BulkDock/OUTPUTS/a71ev2a_c1_elab_bulkdock_input_1GFT2LV.sdf', '/opt/xchem-fragalysis-2/maxwin/openbind-hippo/a71ev2a/cycle_01/syndirella/elabs/ASAP-0031281-001_elabs.sdf']

>  <HIPPO Compound ID>  (288) 
289837

>  <gnina_score>  (288) 
6.037

$$$$
UNSHUWGXKVKHOR-UHFFFAOYSA-N-P183-P126-P183-601502
     RDKit          3D

 25 27  0  0  0  0  0  0  0  0999 V2000
    8.4034   17.5157   20.6807 C   0  0  0  0  0  0  0  0  0  0  0  0
    9.4394   16.5052   20.5187 C   0  0  0  0  0  0  0  0  0  0  0  0
   10.1427   15.9290   21.4645 N   0  0  0  0  0  0  0  0  0  0  0  0
   11.0557   15.1927   20.7844 C   0  0  0  0  0  0  0  0  0  0  0  0
   12.2307   14.5918   21.4353 C   0  0  0  0  0  0  0  0  0  0  0  0
   12.1031   14.4842   22.9370 C   0  0  0  0  0  0  0  0  0  0  0  0
   11.1378   13.5096   23.3222 N   0  0  0  0  0  0  0  0  0  0  0  0
   10.0241   13.5750   24.3589 C   0  0  0  0  0  0  0  0  0  0  0  0
    9.7556   14.4059   25.1258 O   0  0  0  0  0  0  0  0  0  0  0  0
    9.2891   12.3111   24.2997 C   0  0  0  0  0  0  0  0  0  0  0  0
    9.7374   11.2771   23.5650 N   0  0  0  0  0  0  0  0  0  0  0  0
    8.9846   10.2400   23.9617 N   0  0  0  0  0  0  0  0  0  0  0  0
    9.3026    8.9348   23.4285 C   0  0  0  0  0  0  0  0  0  0  0  0
    8.0248   10.5915   24.8859 C   0  0  0  0  0  0  0  0  0  0  0  0
    7.0657    9.8614   25.5925 C   0  0  0  0  0  0  0  0  0  0  0  0
    6.1914   10.5456   26.4405 C   0  0  0  0  0  0  0  0  0  0  0  0
    6.2793   11.9322   26.5696 C   0  0  0  0  0  0  0  0  0  0  0  0
    5.3442   12.6270   27.4542 N   0  0  0  0  0  0  0  0  0  0  0  0
    5.7085   13.7078   27.9378 O   0  0  0  0  0  0  0  0  0  0  0  0
    4.2646   12.0688   27.7027 O   0  0  0  0  0  0  0  0  0  0  0  0
    7.2578   12.6649   25.8903 C   0  0  0  0  0  0  0  0  0  0  0  0
    8.1415   11.9677   25.0443 C   0  0  0  0  0  0  0  0  0  0  0  0
   10.7834   15.2631   19.4455 C   0  0  0  0  0  0  0  0  0  0  0  0
   11.4758   14.7525   18.2796 C   0  0  0  0  0  0  0  0  0  0  0  0
    9.7315   16.0995   19.2529 O   0  0  0  0  0  0  0  0  0  0  0  0
  1  2  1  0
  2  3  2  0
  3  4  1  0
  4  5  1  0
  5  6  1  0
  6  7  1  0
  7  8  1  0
  8  9  2  0
  8 10  1  0
 10 11  2  0
 11 12  1  0
 12 13  1  0
 12 14  1  0
 14 15  2  0
 15 16  1  0
 16 17  2  0
 17 18  1  0
 18 19  2  0
 18 20  1  0
 17 21  1  0
 21 22  2  0
  4 23  2  0
 23 24  1  0
 23 25  1  0
 25  2  1  0
 22 10  1  0
 22 14  1  0
M  CHG  2  18   1  20  -1
M  END
>  <distance_score>  (289) 
0.673091

>  <smiles>  (289) 
Cc1nc(CCNC(=O)c2nn(C)c3ccc([N+](=O)[O-])cc23)c(C)o1

>  <fragmenstein_error>  (289) 


>  <fragmenstein_runtime>  (289) 
3.847161

>  <gnina_score_min>  (289) 
6.123

>  <orig_smiles>  (289) 
Cc1nc(CCNC(=O)c2nn(C)c3ccc([N+](=O)[O-])cc23)c(C)o1

>  <fragmenstein_mode>  (289) 
expansion

>  <rmsd(smina/fragmenstein)>  (289) 
0.418

>  <inspiration_score>  (289) 
None

>  <name>  (289) 
UNSHUWGXKVKHOR-UHFFFAOYSA-N-P183-P126-P183-601502

>  <ref_pdb>  (289) 
A0514a

>  <ref_mols>  (289) 
A2290a,A3436a

>  <subsites>  (289) 
None

>  <tags>  (289) 
fragmenstein_placed,openbind_a71ev2a_c1_elabs_filtered,BulkDock Fragalysis export,a71ev2a_c1_elab_bulkdock_input,openbind_a71ev2a_c1_elab_chemspace_filtered_scored

>  <inchikey>  (289) 
UNSHUWGXKVKHOR-UHFFFAOYSA-N

>  <scratch_subdir>  (289) 
/opt/xchem-fragalysis-2/maxwin/BulkDock/SCRATCH/601502/UNSHUWGXKVKHOR-UHFFFAOYSA-N-P183-P126-P183-601502

>  <smina_score_min>  (289) 
-5.698

>  <energy_score>  (289) 
-21.745162

>  <Energy>  (289) 
104.110586

>  <fragmenstein_outcome>  (289) 
acceptable

>  <alias>  (289) 
UNSHUWGXKVKHOR-UHFFFAOYSA-N-P183-P126-P183-601502

>  <HIPPO Pose ID>  (289) 
503407

>  <exports>  (289) 
['/opt/xchem-fragalysis-2/maxwin/openbind-hippo/a71ev2a/cycle_01/bulkdock/openbind_a71ev2a_c1_elab_chemspace.sdf', '/opt/xchem-fragalysis-2/maxwin/openbind-hippo/a71ev2a/cycle_01/syndirella/elabs/openbind_a71ev2a_c1_elab_chemspace_filtered.sdf', '/opt/xchem-fragalysis-2/maxwin/BulkDock/OUTPUTS/a71ev2a_c1_elab_bulkdock_input_1GFT2LV.sdf', '/opt/xchem-fragalysis-2/maxwin/openbind-hippo/a71ev2a/cycle_01/syndirella/elabs/ASAP-0031281-001_elabs.sdf']

>  <HIPPO Compound ID>  (289) 
289838

>  <gnina_score>  (289) 
5.961

$$$$
UMGSEODYFWYKOA-UHFFFAOYSA-N-P126-P126-P183-601502
     RDKit          3D

 25 27  0  0  0  0  0  0  0  0999 V2000
    4.1470   13.4033   28.9555 C   0  0  0  0  0  0  0  0  0  0  0  0
    4.8592   12.5816   28.0296 O   0  0  0  0  0  0  0  0  0  0  0  0
    6.1293   13.0001   27.7977 C   0  0  0  0  0  0  0  0  0  0  0  0
    6.6844   13.9502   28.3254 O   0  0  0  0  0  0  0  0  0  0  0  0
    6.7823   12.1292   26.7907 C   0  0  0  0  0  0  0  0  0  0  0  0
    6.3977   10.7950   26.6172 C   0  0  0  0  0  0  0  0  0  0  0  0
    7.0503    9.9702   25.6967 C   0  0  0  0  0  0  0  0  0  0  0  0
    8.0879   10.5283   24.9440 C   0  0  0  0  0  0  0  0  0  0  0  0
    8.4942   11.8521   25.1029 C   0  0  0  0  0  0  0  0  0  0  0  0
    7.8425   12.6668   26.0454 C   0  0  0  0  0  0  0  0  0  0  0  0
    9.5904   12.0003   24.2199 C   0  0  0  0  0  0  0  0  0  0  0  0
   10.5539   13.0994   24.0912 C   0  0  0  0  0  0  0  0  0  0  0  0
   10.6481   13.9612   24.8692 O   0  0  0  0  0  0  0  0  0  0  0  0
   11.3930   12.7869   22.8484 N   0  0  0  0  0  0  0  0  0  0  0  0
   12.4557   13.5090   22.2480 C   0  0  0  0  0  0  0  0  0  0  0  0
   12.1395   14.9291   21.8879 C   0  0  0  0  0  0  0  0  0  0  0  0
   10.9632   15.1316   21.0225 C   0  0  0  0  0  0  0  0  0  0  0  0
    9.8739   15.7799   21.5095 N   0  0  0  0  0  0  0  0  0  0  0  0
    9.2852   16.2533   20.4439 C   0  0  0  0  0  0  0  0  0  0  0  0
    9.7532   15.7492   19.2746 O   0  0  0  0  0  0  0  0  0  0  0  0
   10.8351   15.0064   19.6624 C   0  0  0  0  0  0  0  0  0  0  0  0
   11.6986   14.4621   18.6200 C   0  0  0  0  0  0  0  0  0  0  0  0
    9.7550   10.9032   23.4585 N   0  0  0  0  0  0  0  0  0  0  0  0
    8.9249   10.0087   23.9886 N   0  0  0  0  0  0  0  0  0  0  0  0
    9.0790    8.6345   23.5959 C   0  0  0  0  0  0  0  0  0  0  0  0
  1  2  1  0
  2  3  1  0
  3  4  2  0
  3  5  1  0
  5  6  2  0
  6  7  1  0
  7  8  2  0
  8  9  1  0
  9 10  2  0
  9 11  1  0
 11 12  1  0
 12 13  2  0
 12 14  1  0
 14 15  1  0
 15 16  1  0
 16 17  1  0
 17 18  1  0
 18 19  2  0
 19 20  1  0
 20 21  1  0
 21 22  1  0
 11 23  2  0
 23 24  1  0
 24 25  1  0
 10  5  1  0
 21 17  2  0
 24  8  1  0
M  END
>  <distance_score>  (290) 
0.588827

>  <smiles>  (290) 
COC(=O)c1ccc2c(c1)c(C(=O)NCCc1ncoc1C)nn2C

>  <fragmenstein_error>  (290) 


>  <fragmenstein_runtime>  (290) 
4.373215

>  <gnina_score_min>  (290) 
5.986

>  <orig_smiles>  (290) 
COC(=O)c1ccc2c(c1)c(C(=O)NCCc1ncoc1C)nn2C

>  <fragmenstein_mode>  (290) 
expansion

>  <rmsd(smina/fragmenstein)>  (290) 
0.418

>  <inspiration_score>  (290) 
None

>  <name>  (290) 
UMGSEODYFWYKOA-UHFFFAOYSA-N-P126-P126-P183-601502

>  <ref_pdb>  (290) 
A0514a

>  <ref_mols>  (290) 
A2290a,A3436a

>  <subsites>  (290) 
None

>  <tags>  (290) 
fragmenstein_placed,openbind_a71ev2a_c1_elabs_filtered,BulkDock Fragalysis export,a71ev2a_c1_elab_bulkdock_input,openbind_a71ev2a_c1_elab_chemspace_filtered_scored

>  <inchikey>  (290) 
UMGSEODYFWYKOA-UHFFFAOYSA-N

>  <scratch_subdir>  (290) 
/opt/xchem-fragalysis-2/maxwin/BulkDock/SCRATCH/601502/UMGSEODYFWYKOA-UHFFFAOYSA-N-P126-P126-P183-601502

>  <smina_score_min>  (290) 
-5.261

>  <energy_score>  (290) 
-9.109688

>  <Energy>  (290) 
89.024523

>  <fragmenstein_outcome>  (290) 
acceptable

>  <alias>  (290) 
UMGSEODYFWYKOA-UHFFFAOYSA-N-P126-P126-P183-601502

>  <HIPPO Pose ID>  (290) 
503410

>  <exports>  (290) 
['/opt/xchem-fragalysis-2/maxwin/openbind-hippo/a71ev2a/cycle_01/bulkdock/openbind_a71ev2a_c1_elab_chemspace.sdf', '/opt/xchem-fragalysis-2/maxwin/openbind-hippo/a71ev2a/cycle_01/syndirella/elabs/openbind_a71ev2a_c1_elab_chemspace_filtered.sdf', '/opt/xchem-fragalysis-2/maxwin/BulkDock/OUTPUTS/a71ev2a_c1_elab_bulkdock_input_1GFT2LV.sdf', '/opt/xchem-fragalysis-2/maxwin/openbind-hippo/a71ev2a/cycle_01/syndirella/elabs/ASAP-0031281-001_elabs.sdf']

>  <HIPPO Compound ID>  (290) 
289840

>  <gnina_score>  (290) 
5.833

$$$$
GAZCAKNIIVMANI-UHFFFAOYSA-N-P183-P126-P183-601502
     RDKit          3D

 25 27  0  0  0  0  0  0  0  0999 V2000
    5.8024   16.5572   27.3794 C   0  0  0  0  0  0  0  0  0  0  0  0
    6.1412   15.3007   26.7925 O   0  0  0  0  0  0  0  0  0  0  0  0
    7.4571   15.1881   26.4371 C   0  0  0  0  0  0  0  0  0  0  0  0
    8.3062   16.0409   26.6840 O   0  0  0  0  0  0  0  0  0  0  0  0
    7.7604   13.9093   25.7825 C   0  0  0  0  0  0  0  0  0  0  0  0
    8.7777   13.7832   24.9126 N   0  0  0  0  0  0  0  0  0  0  0  0
    8.8285   12.4698   24.6229 N   0  0  0  0  0  0  0  0  0  0  0  0
    9.7961   11.9697   23.6809 C   0  0  0  0  0  0  0  0  0  0  0  0
   11.1568   12.6044   23.8576 C   0  0  0  0  0  0  0  0  0  0  0  0
   12.0479   12.0689   24.3735 O   0  0  0  0  0  0  0  0  0  0  0  0
   11.0887   13.9550   23.1522 N   0  0  0  0  0  0  0  0  0  0  0  0
   12.1089   14.8861   22.8487 C   0  0  0  0  0  0  0  0  0  0  0  0
   12.2333   14.9604   21.3527 C   0  0  0  0  0  0  0  0  0  0  0  0
   10.9783   15.4155   20.7094 C   0  0  0  0  0  0  0  0  0  0  0  0
    9.9630   16.0458   21.3724 N   0  0  0  0  0  0  0  0  0  0  0  0
    9.1823   16.4828   20.4126 C   0  0  0  0  0  0  0  0  0  0  0  0
    9.5342   16.0654   19.1628 O   0  0  0  0  0  0  0  0  0  0  0  0
   10.6780   15.3620   19.3796 C   0  0  0  0  0  0  0  0  0  0  0  0
   11.4154   14.8111   18.2564 C   0  0  0  0  0  0  0  0  0  0  0  0
    7.8793   11.7272   25.2612 C   0  0  0  0  0  0  0  0  0  0  0  0
    7.6142   10.3625   25.2629 C   0  0  0  0  0  0  0  0  0  0  0  0
    6.5356    9.9449   26.0377 C   0  0  0  0  0  0  0  0  0  0  0  0
    5.8098   10.8216   26.8339 C   0  0  0  0  0  0  0  0  0  0  0  0
    6.1060   12.1802   26.8348 C   0  0  0  0  0  0  0  0  0  0  0  0
    7.1459   12.6455   26.0143 C   0  0  0  0  0  0  0  0  0  0  0  0
  1  2  1  0
  2  3  1  0
  3  4  2  0
  3  5  1  0
  5  6  2  0
  6  7  1  0
  7  8  1  0
  8  9  1  0
  9 10  2  0
  9 11  1  0
 11 12  1  0
 12 13  1  0
 13 14  1  0
 14 15  1  0
 15 16  2  0
 16 17  1  0
 17 18  1  0
 18 19  1  0
  7 20  1  0
 20 21  2  0
 21 22  1  0
 22 23  2  0
 23 24  1  0
 24 25  2  0
 25  5  1  0
 18 14  2  0
 25 20  1  0
M  END
>  <distance_score>  (291) 
1.608322

>  <smiles>  (291) 
COC(=O)c1nn(CC(=O)NCCc2ncoc2C)c2ccccc12

>  <fragmenstein_error>  (291) 


>  <fragmenstein_runtime>  (291) 
6.969447

>  <gnina_score_min>  (291) 
5.591

>  <orig_smiles>  (291) 
COC(=O)c1nn(CC(=O)NCCc2ncoc2C)c2ccccc12

>  <fragmenstein_mode>  (291) 
expansion

>  <rmsd(smina/fragmenstein)>  (291) 
0.449

>  <inspiration_score>  (291) 
None

>  <name>  (291) 
GAZCAKNIIVMANI-UHFFFAOYSA-N-P183-P126-P183-601502

>  <ref_pdb>  (291) 
A0514a

>  <ref_mols>  (291) 
A2290a,A3436a

>  <subsites>  (291) 
None

>  <tags>  (291) 
openbind_a71ev2a_c1_elabs_filtered,fragmenstein_placed,a71ev2a_c1_elab_bulkdock_input,openbind_a71ev2a_c1_elab_chemspace_filtered_scored

>  <inchikey>  (291) 
GAZCAKNIIVMANI-UHFFFAOYSA-N

>  <scratch_subdir>  (291) 
/opt/xchem-fragalysis-2/maxwin/BulkDock/SCRATCH/601502/GAZCAKNIIVMANI-UHFFFAOYSA-N-P183-P126-P183-601502

>  <smina_score_min>  (291) 
-4.764

>  <energy_score>  (291) 
-11.519728

>  <Energy>  (291) 
104.417534

>  <fragmenstein_outcome>  (291) 
too moved

>  <alias>  (291) 
GAZCAKNIIVMANI-UHFFFAOYSA-N-P183-P126-P183-601502

>  <HIPPO Pose ID>  (291) 
503419

>  <exports>  (291) 
['/opt/xchem-fragalysis-2/maxwin/openbind-hippo/a71ev2a/cycle_01/bulkdock/openbind_a71ev2a_c1_elab_chemspace.sdf', '/opt/xchem-fragalysis-2/maxwin/openbind-hippo/a71ev2a/cycle_01/syndirella/elabs/openbind_a71ev2a_c1_elab_chemspace_filtered.sdf', '/opt/xchem-fragalysis-2/maxwin/openbind-hippo/a71ev2a/cycle_01/syndirella/elabs/ASAP-0031281-001_elabs.sdf']

>  <HIPPO Compound ID>  (291) 
289844

>  <gnina_score>  (291) 
5.512

$$$$
NFKBWSGWMMTOMN-UHFFFAOYSA-N-P183-P126-P183-601502
     RDKit          3D

 25 27  0  0  0  0  0  0  0  0999 V2000
    8.3970   17.5244   20.6515 C   0  0  0  0  0  0  0  0  0  0  0  0
    9.4411   16.5219   20.4949 C   0  0  0  0  0  0  0  0  0  0  0  0
   10.1575   15.9673   21.4431 N   0  0  0  0  0  0  0  0  0  0  0  0
   11.0693   15.2260   20.7672 C   0  0  0  0  0  0  0  0  0  0  0  0
   12.2544   14.6455   21.4184 C   0  0  0  0  0  0  0  0  0  0  0  0
   12.1301   14.5629   22.9215 C   0  0  0  0  0  0  0  0  0  0  0  0
   11.1627   13.5949   23.3098 N   0  0  0  0  0  0  0  0  0  0  0  0
   10.0799   13.6505   24.3805 C   0  0  0  0  0  0  0  0  0  0  0  0
    9.8466   14.4657   25.1753 O   0  0  0  0  0  0  0  0  0  0  0  0
    9.3337   12.3973   24.2955 C   0  0  0  0  0  0  0  0  0  0  0  0
    9.7812   11.3948   23.5212 N   0  0  0  0  0  0  0  0  0  0  0  0
    9.0739   10.3149   23.9306 N   0  0  0  0  0  0  0  0  0  0  0  0
    9.4891    8.9805   23.4779 C   0  0  0  0  0  0  0  0  0  0  0  0
    9.4278    8.8548   22.1358 F   0  0  0  0  0  0  0  0  0  0  0  0
    8.7110    8.0289   24.0231 F   0  0  0  0  0  0  0  0  0  0  0  0
   10.7714    8.7152   23.8234 F   0  0  0  0  0  0  0  0  0  0  0  0
    8.0955   10.6496   24.8539 C   0  0  0  0  0  0  0  0  0  0  0  0
    7.1458    9.9081   25.5652 C   0  0  0  0  0  0  0  0  0  0  0  0
    6.2788   10.5783   26.4338 C   0  0  0  0  0  0  0  0  0  0  0  0
    6.3531   11.9553   26.5954 C   0  0  0  0  0  0  0  0  0  0  0  0
    7.3112   12.6919   25.9013 C   0  0  0  0  0  0  0  0  0  0  0  0
    8.1953   12.0251   25.0333 C   0  0  0  0  0  0  0  0  0  0  0  0
   10.7848   15.2720   19.4304 C   0  0  0  0  0  0  0  0  0  0  0  0
   11.4739   14.7475   18.2691 C   0  0  0  0  0  0  0  0  0  0  0  0
    9.7260   16.0985   19.2331 O   0  0  0  0  0  0  0  0  0  0  0  0
  1  2  1  0
  2  3  2  0
  3  4  1  0
  4  5  1  0
  5  6  1  0
  6  7  1  0
  7  8  1  0
  8  9  2  0
  8 10  1  0
 10 11  2  0
 11 12  1  0
 12 13  1  0
 13 14  1  0
 13 15  1  0
 13 16  1  0
 12 17  1  0
 17 18  2  0
 18 19  1  0
 19 20  2  0
 20 21  1  0
 21 22  2  0
  4 23  2  0
 23 24  1  0
 23 25  1  0
 25  2  1  0
 22 10  1  0
 22 17  1  0
M  END
>  <distance_score>  (292) 
0.668755

>  <smiles>  (292) 
Cc1nc(CCNC(=O)c2nn(C(F)(F)F)c3ccccc23)c(C)o1

>  <fragmenstein_error>  (292) 


>  <fragmenstein_runtime>  (292) 
3.726565

>  <gnina_score_min>  (292) 
6.001

>  <orig_smiles>  (292) 
Cc1nc(CCNC(=O)c2nn(C(F)(F)F)c3ccccc23)c(C)o1

>  <fragmenstein_mode>  (292) 
expansion

>  <rmsd(smina/fragmenstein)>  (292) 
0.455

>  <inspiration_score>  (292) 
None

>  <name>  (292) 
NFKBWSGWMMTOMN-UHFFFAOYSA-N-P183-P126-P183-601502

>  <ref_pdb>  (292) 
A0514a

>  <ref_mols>  (292) 
A2290a,A3436a

>  <subsites>  (292) 
None

>  <tags>  (292) 
fragmenstein_placed,openbind_a71ev2a_c1_elabs_filtered,BulkDock Fragalysis export,a71ev2a_c1_elab_bulkdock_input,openbind_a71ev2a_c1_elab_chemspace_filtered_scored

>  <inchikey>  (292) 
NFKBWSGWMMTOMN-UHFFFAOYSA-N

>  <scratch_subdir>  (292) 
/opt/xchem-fragalysis-2/maxwin/BulkDock/SCRATCH/601502/NFKBWSGWMMTOMN-UHFFFAOYSA-N-P183-P126-P183-601502

>  <smina_score_min>  (292) 
-5.053

>  <energy_score>  (292) 
-28.713104

>  <Energy>  (292) 
149.988504

>  <fragmenstein_outcome>  (292) 
acceptable

>  <alias>  (292) 
NFKBWSGWMMTOMN-UHFFFAOYSA-N-P183-P126-P183-601502

>  <HIPPO Pose ID>  (292) 
503421

>  <exports>  (292) 
['/opt/xchem-fragalysis-2/maxwin/openbind-hippo/a71ev2a/cycle_01/bulkdock/openbind_a71ev2a_c1_elab_chemspace.sdf', '/opt/xchem-fragalysis-2/maxwin/openbind-hippo/a71ev2a/cycle_01/syndirella/elabs/openbind_a71ev2a_c1_elab_chemspace_filtered.sdf', '/opt/xchem-fragalysis-2/maxwin/BulkDock/OUTPUTS/a71ev2a_c1_elab_bulkdock_input_1GFT2LV.sdf', '/opt/xchem-fragalysis-2/maxwin/openbind-hippo/a71ev2a/cycle_01/syndirella/elabs/ASAP-0031281-001_elabs.sdf']

>  <HIPPO Compound ID>  (292) 
289845

>  <gnina_score>  (292) 
5.883

$$$$
JWCKBUWRPPQKGH-UHFFFAOYSA-N-P183-P126-P183-601502
     RDKit          3D

 25 27  0  0  0  0  0  0  0  0999 V2000
   12.4979   13.2365   24.8286 C   0  0  0  0  0  0  0  0  0  0  0  0
   12.7746   13.2246   23.4449 O   0  0  0  0  0  0  0  0  0  0  0  0
   12.5403   14.4099   22.8437 C   0  0  0  0  0  0  0  0  0  0  0  0
   13.4193   15.2201   22.6107 O   0  0  0  0  0  0  0  0  0  0  0  0
   11.1616   14.6543   22.3680 C   0  0  1  0  0  0  0  0  0  0  0  0
   11.2708   14.7825   20.8783 C   0  0  0  0  0  0  0  0  0  0  0  0
   10.2199   15.6413   20.3509 C   0  0  0  0  0  0  0  0  0  0  0  0
    9.9305   15.8474   19.0406 C   0  0  0  0  0  0  0  0  0  0  0  0
    9.0875   16.9038   18.9682 O   0  0  0  0  0  0  0  0  0  0  0  0
    8.8727   17.2550   20.2635 C   0  0  0  0  0  0  0  0  0  0  0  0
    9.4926   16.4947   21.1298 N   0  0  0  0  0  0  0  0  0  0  0  0
   10.2728   13.6564   22.8493 N   0  0  0  0  0  0  0  0  0  0  0  0
    9.3207   13.6700   24.0308 C   0  0  0  0  0  0  0  0  0  0  0  0
    9.0444   14.5243   24.7649 O   0  0  0  0  0  0  0  0  0  0  0  0
    8.8199   12.3187   24.2051 C   0  0  0  0  0  0  0  0  0  0  0  0
    9.3563   11.2836   23.5327 N   0  0  0  0  0  0  0  0  0  0  0  0
    8.7576   10.2094   24.0677 N   0  0  0  0  0  0  0  0  0  0  0  0
    9.1850    8.9037   23.6211 C   0  0  0  0  0  0  0  0  0  0  0  0
    7.8107   10.5351   25.0132 C   0  0  0  0  0  0  0  0  0  0  0  0
    6.8953    9.7865   25.7510 C   0  0  0  0  0  0  0  0  0  0  0  0
    6.0613   10.4459   26.6571 C   0  0  0  0  0  0  0  0  0  0  0  0
    6.1292   11.8207   26.8025 C   0  0  0  0  0  0  0  0  0  0  0  0
    5.3286   12.4251   27.6899 F   0  0  0  0  0  0  0  0  0  0  0  0
    7.0071   12.5801   26.0440 C   0  0  0  0  0  0  0  0  0  0  0  0
    7.8442   11.9169   25.1293 C   0  0  0  0  0  0  0  0  0  0  0  0
  1  2  1  0
  2  3  1  0
  3  4  2  0
  3  5  1  0
  5  6  1  6
  6  7  1  0
  7  8  2  0
  8  9  1  0
  9 10  1  0
 10 11  2  0
  5 12  1  0
 12 13  1  0
 13 14  2  0
 13 15  1  0
 15 16  2  0
 16 17  1  0
 17 18  1  0
 17 19  1  0
 19 20  2  0
 20 21  1  0
 21 22  2  0
 22 23  1  0
 22 24  1  0
 24 25  2  0
 11  7  1  0
 25 15  1  0
 25 19  1  0
M  END
>  <distance_score>  (293) 
0.956078

>  <smiles>  (293) 
COC(=O)C(Cc1cocn1)NC(=O)c1nn(C)c2ccc(F)cc12

>  <fragmenstein_error>  (293) 


>  <fragmenstein_runtime>  (293) 
3.887003

>  <gnina_score_min>  (293) 
6.094

>  <orig_smiles>  (293) 
COC(=O)C(Cc1cocn1)NC(=O)c1nn(C)c2ccc(F)cc12

>  <fragmenstein_mode>  (293) 
expansion

>  <rmsd(smina/fragmenstein)>  (293) 
0.783

>  <inspiration_score>  (293) 
None

>  <name>  (293) 
JWCKBUWRPPQKGH-UHFFFAOYSA-N-P183-P126-P183-601502

>  <ref_pdb>  (293) 
A0514a

>  <ref_mols>  (293) 
A2290a,A3436a

>  <subsites>  (293) 
None

>  <tags>  (293) 
fragmenstein_placed,openbind_a71ev2a_c1_elabs_filtered,BulkDock Fragalysis export,a71ev2a_c1_elab_bulkdock_input,openbind_a71ev2a_c1_elab_chemspace_filtered_scored

>  <inchikey>  (293) 
JWCKBUWRPPQKGH-UHFFFAOYSA-N

>  <scratch_subdir>  (293) 
/opt/xchem-fragalysis-2/maxwin/BulkDock/SCRATCH/601502/JWCKBUWRPPQKGH-UHFFFAOYSA-N-P183-P126-P183-601502

>  <smina_score_min>  (293) 
-6.846

>  <energy_score>  (293) 
-24.502232

>  <Energy>  (293) 
96.521996

>  <fragmenstein_outcome>  (293) 
acceptable

>  <alias>  (293) 
JWCKBUWRPPQKGH-UHFFFAOYSA-N-P183-P126-P183-601502

>  <HIPPO Pose ID>  (293) 
503423

>  <exports>  (293) 
['/opt/xchem-fragalysis-2/maxwin/openbind-hippo/a71ev2a/cycle_01/bulkdock/openbind_a71ev2a_c1_elab_chemspace.sdf', '/opt/xchem-fragalysis-2/maxwin/openbind-hippo/a71ev2a/cycle_01/syndirella/elabs/openbind_a71ev2a_c1_elab_chemspace_filtered.sdf', '/opt/xchem-fragalysis-2/maxwin/BulkDock/OUTPUTS/a71ev2a_c1_elab_bulkdock_input_1GFT2LV.sdf', '/opt/xchem-fragalysis-2/maxwin/openbind-hippo/a71ev2a/cycle_01/syndirella/elabs/ASAP-0031281-001_elabs.sdf']

>  <HIPPO Compound ID>  (293) 
289846

>  <gnina_score>  (293) 
5.996

$$$$
PBMCPYDYJVOWNM-UHFFFAOYSA-N-P183-P126-P183-601502
     RDKit          3D

 26 28  0  0  0  0  0  0  0  0999 V2000
    3.2807   12.6624   28.6252 C   0  0  0  0  0  0  0  0  0  0  0  0
    4.2090   11.9906   27.7732 O   0  0  0  0  0  0  0  0  0  0  0  0
    5.3635   12.6775   27.5773 C   0  0  0  0  0  0  0  0  0  0  0  0
    5.6574   13.7473   28.0854 O   0  0  0  0  0  0  0  0  0  0  0  0
    6.2536   11.9391   26.6485 C   0  0  0  0  0  0  0  0  0  0  0  0
    6.1618   10.5563   26.4867 C   0  0  0  0  0  0  0  0  0  0  0  0
    7.0240    9.8738   25.6220 C   0  0  0  0  0  0  0  0  0  0  0  0
    7.9873   10.6014   24.9196 C   0  0  0  0  0  0  0  0  0  0  0  0
    8.1130   11.9744   25.0924 C   0  0  0  0  0  0  0  0  0  0  0  0
    7.2402   12.6582   25.9617 C   0  0  0  0  0  0  0  0  0  0  0  0
    9.2549   12.3219   24.3391 C   0  0  0  0  0  0  0  0  0  0  0  0
   10.0049   13.5789   24.4009 C   0  0  0  0  0  0  0  0  0  0  0  0
    9.7934   14.3837   25.2127 O   0  0  0  0  0  0  0  0  0  0  0  0
   11.0819   13.5198   23.3240 N   0  0  0  0  0  0  0  0  0  0  0  0
   12.0707   14.4747   22.9496 C   0  0  0  0  0  0  0  0  0  0  0  0
   12.2144   14.5822   21.4489 C   0  0  0  0  0  0  0  0  0  0  0  0
   11.0508   15.1947   20.7876 C   0  0  0  0  0  0  0  0  0  0  0  0
   10.1421   15.9422   21.4613 N   0  0  0  0  0  0  0  0  0  0  0  0
    9.4422   16.5158   20.5118 C   0  0  0  0  0  0  0  0  0  0  0  0
    8.4046   17.5253   20.6680 C   0  0  0  0  0  0  0  0  0  0  0  0
    9.7378   16.1057   19.2484 O   0  0  0  0  0  0  0  0  0  0  0  0
   10.7849   15.2646   19.4472 C   0  0  0  0  0  0  0  0  0  0  0  0
   11.4774   14.7481   18.2841 C   0  0  0  0  0  0  0  0  0  0  0  0
    9.6974   11.2895   23.5955 N   0  0  0  0  0  0  0  0  0  0  0  0
    8.9473   10.2521   23.9963 N   0  0  0  0  0  0  0  0  0  0  0  0
    9.2798    8.9446   23.4788 C   0  0  0  0  0  0  0  0  0  0  0  0
  1  2  1  0
  2  3  1  0
  3  4  2  0
  3  5  1  0
  5  6  2  0
  6  7  1  0
  7  8  2  0
  8  9  1  0
  9 10  2  0
  9 11  1  0
 11 12  1  0
 12 13  2  0
 12 14  1  0
 14 15  1  0
 15 16  1  0
 16 17  1  0
 17 18  1  0
 18 19  2  0
 19 20  1  0
 19 21  1  0
 21 22  1  0
 22 23  1  0
 11 24  2  0
 24 25  1  0
 25 26  1  0
 10  5  1  0
 22 17  2  0
 25  8  1  0
M  END
>  <distance_score>  (294) 
0.70025

>  <smiles>  (294) 
COC(=O)c1ccc2c(c1)c(C(=O)NCCc1nc(C)oc1C)nn2C

>  <fragmenstein_error>  (294) 


>  <fragmenstein_runtime>  (294) 
6.566369

>  <gnina_score_min>  (294) 
6.098

>  <orig_smiles>  (294) 
COC(=O)c1ccc2c(c1)c(C(=O)NCCc1nc(C)oc1C)nn2C

>  <fragmenstein_mode>  (294) 
expansion

>  <rmsd(smina/fragmenstein)>  (294) 
0.446

>  <inspiration_score>  (294) 
None

>  <name>  (294) 
PBMCPYDYJVOWNM-UHFFFAOYSA-N-P183-P126-P183-601502

>  <ref_pdb>  (294) 
A0514a

>  <ref_mols>  (294) 
A2290a,A3436a

>  <subsites>  (294) 
None

>  <tags>  (294) 
fragmenstein_placed,openbind_a71ev2a_c1_elabs_filtered,BulkDock Fragalysis export,a71ev2a_c1_elab_bulkdock_input,openbind_a71ev2a_c1_elab_chemspace_filtered_scored

>  <inchikey>  (294) 
PBMCPYDYJVOWNM-UHFFFAOYSA-N

>  <scratch_subdir>  (294) 
/opt/xchem-fragalysis-2/maxwin/BulkDock/SCRATCH/601502/PBMCPYDYJVOWNM-UHFFFAOYSA-N-P183-P126-P183-601502

>  <smina_score_min>  (294) 
-5.584

>  <energy_score>  (294) 
-15.582609

>  <Energy>  (294) 
86.488846

>  <fragmenstein_outcome>  (294) 
acceptable

>  <alias>  (294) 
PBMCPYDYJVOWNM-UHFFFAOYSA-N-P183-P126-P183-601502

>  <HIPPO Pose ID>  (294) 
503425

>  <exports>  (294) 
['/opt/xchem-fragalysis-2/maxwin/openbind-hippo/a71ev2a/cycle_01/bulkdock/openbind_a71ev2a_c1_elab_chemspace.sdf', '/opt/xchem-fragalysis-2/maxwin/openbind-hippo/a71ev2a/cycle_01/syndirella/elabs/openbind_a71ev2a_c1_elab_chemspace_filtered.sdf', '/opt/xchem-fragalysis-2/maxwin/BulkDock/OUTPUTS/a71ev2a_c1_elab_bulkdock_input_1GFT2LV.sdf', '/opt/xchem-fragalysis-2/maxwin/openbind-hippo/a71ev2a/cycle_01/syndirella/elabs/ASAP-0031281-001_elabs.sdf']

>  <HIPPO Compound ID>  (294) 
289847

>  <gnina_score>  (294) 
5.942

$$$$
LXJABMRHPGHKIS-UHFFFAOYSA-N-P183-P126-P183-601502
     RDKit          3D

 27 30  0  0  0  0  0  0  0  0999 V2000
    9.3144    8.9273   23.4456 C   0  0  0  0  0  0  0  0  0  0  0  0
    9.0120   10.2534   23.9352 N   0  0  0  0  0  0  0  0  0  0  0  0
    9.7675   11.2709   23.4937 N   0  0  0  0  0  0  0  0  0  0  0  0
    9.3595   12.3294   24.2170 C   0  0  0  0  0  0  0  0  0  0  0  0
   10.1206   13.5847   24.2164 C   0  0  0  0  0  0  0  0  0  0  0  0
    9.9661   14.3960   25.0348 O   0  0  0  0  0  0  0  0  0  0  0  0
   11.0903   13.5374   23.0418 N   0  0  0  0  0  0  0  0  0  0  0  0
   12.0153   14.5151   22.5602 C   0  0  0  0  0  0  0  0  0  0  0  0
   12.3829   14.2698   21.1109 C   0  0  0  0  0  0  0  0  0  0  0  0
   11.3457   14.5838   20.1384 C   0  0  0  0  0  0  0  0  0  0  0  0
   11.4470   14.7893   18.7870 C   0  0  0  0  0  0  0  0  0  0  0  0
   10.3371   15.4629   18.4073 O   0  0  0  0  0  0  0  0  0  0  0  0
    9.6466   15.5654   19.5595 C   0  0  0  0  0  0  0  0  0  0  0  0
    9.0222   16.8201   19.7552 C   0  0  0  0  0  0  0  0  0  0  0  0
    9.2599   17.3682   20.9598 C   0  0  0  0  0  0  0  0  0  0  0  0
    8.8490   18.6356   21.1596 C   0  0  0  0  0  0  0  0  0  0  0  0
    8.1018   19.3259   20.2391 C   0  0  0  0  0  0  0  0  0  0  0  0
    7.7979   18.7775   19.0445 C   0  0  0  0  0  0  0  0  0  0  0  0
    8.3265   17.5397   18.8102 C   0  0  0  0  0  0  0  0  0  0  0  0
   10.0793   14.8178   20.5437 N   0  0  0  0  0  0  0  0  0  0  0  0
    8.2221   12.0186   24.9949 C   0  0  0  0  0  0  0  0  0  0  0  0
    7.3688   12.7411   25.8487 C   0  0  0  0  0  0  0  0  0  0  0  0
    6.4054   12.0436   26.5679 C   0  0  0  0  0  0  0  0  0  0  0  0
    5.6053   12.7072   27.4130 F   0  0  0  0  0  0  0  0  0  0  0  0
    6.2749   10.6677   26.4569 C   0  0  0  0  0  0  0  0  0  0  0  0
    7.1048    9.9439   25.5975 C   0  0  0  0  0  0  0  0  0  0  0  0
    8.0691   10.6412   24.8613 C   0  0  0  0  0  0  0  0  0  0  0  0
  1  2  1  0
  2  3  1  0
  3  4  2  0
  4  5  1  0
  5  6  2  0
  5  7  1  0
  7  8  1  0
  8  9  1  0
  9 10  1  0
 10 11  2  0
 11 12  1  0
 12 13  1  0
 13 14  1  0
 14 15  2  0
 15 16  1  0
 16 17  2  0
 17 18  1  0
 18 19  2  0
 13 20  2  0
  4 21  1  0
 21 22  2  0
 22 23  1  0
 23 24  1  0
 23 25  2  0
 25 26  1  0
 26 27  2  0
 27  2  1  0
 20 10  1  0
 27 21  1  0
 19 14  1  0
M  END
>  <distance_score>  (295) 
0.875497

>  <smiles>  (295) 
Cn1nc(C(=O)NCCc2coc(-c3ccccc3)n2)c2cc(F)ccc21

>  <fragmenstein_error>  (295) 


>  <fragmenstein_runtime>  (295) 
8.981957

>  <gnina_score_min>  (295) 
6.204

>  <orig_smiles>  (295) 
Cn1nc(C(=O)NCCc2coc(-c3ccccc3)n2)c2cc(F)ccc21

>  <fragmenstein_mode>  (295) 
expansion

>  <rmsd(smina/fragmenstein)>  (295) 
1.085

>  <inspiration_score>  (295) 
None

>  <name>  (295) 
LXJABMRHPGHKIS-UHFFFAOYSA-N-P183-P126-P183-601502

>  <ref_pdb>  (295) 
A0514a

>  <ref_mols>  (295) 
A2290a,A3436a

>  <subsites>  (295) 
None

>  <tags>  (295) 
fragmenstein_placed,openbind_a71ev2a_c1_elabs_filtered,BulkDock Fragalysis export,a71ev2a_c1_elab_bulkdock_input,openbind_a71ev2a_c1_elab_chemspace_filtered_scored

>  <inchikey>  (295) 
LXJABMRHPGHKIS-UHFFFAOYSA-N

>  <scratch_subdir>  (295) 
/opt/xchem-fragalysis-2/maxwin/BulkDock/SCRATCH/601502/LXJABMRHPGHKIS-UHFFFAOYSA-N-P183-P126-P183-601502

>  <smina_score_min>  (295) 
-5.535

>  <energy_score>  (295) 
-5.81646

>  <Energy>  (295) 
127.484191

>  <fragmenstein_outcome>  (295) 
acceptable

>  <alias>  (295) 
LXJABMRHPGHKIS-UHFFFAOYSA-N-P183-P126-P183-601502

>  <HIPPO Pose ID>  (295) 
503433

>  <exports>  (295) 
['/opt/xchem-fragalysis-2/maxwin/openbind-hippo/a71ev2a/cycle_01/bulkdock/openbind_a71ev2a_c1_elab_chemspace.sdf', '/opt/xchem-fragalysis-2/maxwin/openbind-hippo/a71ev2a/cycle_01/syndirella/elabs/openbind_a71ev2a_c1_elab_chemspace_filtered.sdf', '/opt/xchem-fragalysis-2/maxwin/BulkDock/OUTPUTS/a71ev2a_c1_elab_bulkdock_input_1GFT2LV.sdf', '/opt/xchem-fragalysis-2/maxwin/openbind-hippo/a71ev2a/cycle_01/syndirella/elabs/ASAP-0031281-001_elabs.sdf']

>  <HIPPO Compound ID>  (295) 
289851

>  <gnina_score>  (295) 
5.938

$$$$
RQYODYAUANDZJE-UHFFFAOYSA-N-P126-P126-P183-601502
     RDKit          3D

 27 30  0  0  0  0  0  0  0  0999 V2000
   11.6791   14.5256   18.5548 C   0  0  0  0  0  0  0  0  0  0  0  0
   10.8406   14.9404   19.6746 C   0  0  0  0  0  0  0  0  0  0  0  0
    9.8114   15.8032   19.4461 O   0  0  0  0  0  0  0  0  0  0  0  0
    9.3273   16.0442   20.6916 C   0  0  0  0  0  0  0  0  0  0  0  0
    9.8942   15.3443   21.6501 N   0  0  0  0  0  0  0  0  0  0  0  0
   10.9296   14.7145   21.0229 C   0  0  0  0  0  0  0  0  0  0  0  0
   12.0116   14.0026   21.7365 C   0  0  0  0  0  0  0  0  0  0  0  0
   12.0612   14.2908   23.2203 C   0  0  0  0  0  0  0  0  0  0  0  0
   11.0306   13.6454   23.9736 N   0  0  0  0  0  0  0  0  0  0  0  0
   10.3929   14.0218   25.3249 C   0  0  0  0  0  0  0  0  0  0  0  0
   10.6593   14.8748   26.0762 O   0  0  0  0  0  0  0  0  0  0  0  0
    9.3145   13.0610   25.5413 C   0  0  0  0  0  0  0  0  0  0  0  0
    9.5015   11.8214   25.0703 N   0  0  0  0  0  0  0  0  0  0  0  0
    8.4087   11.1664   25.4434 N   0  0  0  0  0  0  0  0  0  0  0  0
    8.2187    9.8432   24.9638 C   0  0  0  0  0  0  0  0  0  0  0  0
    8.7691    9.7649   23.5991 C   0  0  1  0  0  0  0  0  0  0  0  0
   10.2397    9.6372   23.4213 C   0  0  0  0  0  0  0  0  0  0  0  0
   10.3144    8.6642   22.4140 N   0  0  0  0  0  0  0  0  0  0  0  0
    9.1624    7.9421   22.4280 C   0  0  0  0  0  0  0  0  0  0  0  0
    8.9256    6.8591   21.9613 O   0  0  0  0  0  0  0  0  0  0  0  0
    8.2316    8.5626   23.1526 O   0  0  0  0  0  0  0  0  0  0  0  0
    7.5136   11.8855   26.1501 C   0  0  0  0  0  0  0  0  0  0  0  0
    6.2894   11.5282   26.7132 C   0  0  0  0  0  0  0  0  0  0  0  0
    5.5939   12.5419   27.3553 C   0  0  0  0  0  0  0  0  0  0  0  0
    6.1105   13.8368   27.4203 C   0  0  0  0  0  0  0  0  0  0  0  0
    7.3485   14.1668   26.8551 C   0  0  0  0  0  0  0  0  0  0  0  0
    8.0676   13.1608   26.2072 C   0  0  0  0  0  0  0  0  0  0  0  0
  1  2  1  0
  2  3  1  0
  3  4  1  0
  4  5  2  0
  5  6  1  0
  6  7  1  0
  7  8  1  0
  8  9  1  0
  9 10  1  0
 10 11  2  0
 10 12  1  0
 12 13  2  0
 13 14  1  0
 14 15  1  0
 16 15  1  1
 16 17  1  0
 17 18  1  0
 18 19  1  0
 19 20  2  0
 19 21  1  0
 14 22  1  0
 22 23  2  0
 23 24  1  0
 24 25  2  0
 25 26  1  0
 26 27  2  0
  6  2  2  0
 27 12  1  0
 21 16  1  0
 27 22  1  0
M  END
>  <distance_score>  (296) 
1.838078

>  <smiles>  (296) 
Cc1ocnc1CCNC(=O)c1nn(CC2CNC(=O)O2)c2ccccc12

>  <fragmenstein_error>  (296) 


>  <fragmenstein_runtime>  (296) 
8.475266

>  <gnina_score_min>  (296) 
5.704

>  <orig_smiles>  (296) 
Cc1ocnc1CCNC(=O)c1nn(CC2CNC(=O)O2)c2ccccc12

>  <fragmenstein_mode>  (296) 
expansion

>  <rmsd(smina/fragmenstein)>  (296) 
1.326

>  <inspiration_score>  (296) 
None

>  <name>  (296) 
RQYODYAUANDZJE-UHFFFAOYSA-N-P126-P126-P183-601502

>  <ref_pdb>  (296) 
A0514a

>  <ref_mols>  (296) 
A2290a,A3436a

>  <subsites>  (296) 
None

>  <tags>  (296) 
openbind_a71ev2a_c1_elabs_filtered,fragmenstein_placed,a71ev2a_c1_elab_bulkdock_input,openbind_a71ev2a_c1_elab_chemspace_filtered_scored

>  <inchikey>  (296) 
RQYODYAUANDZJE-UHFFFAOYSA-N

>  <scratch_subdir>  (296) 
/opt/xchem-fragalysis-2/maxwin/BulkDock/SCRATCH/601502/RQYODYAUANDZJE-UHFFFAOYSA-N-P126-P126-P183-601502

>  <smina_score_min>  (296) 
-4.951

>  <energy_score>  (296) 
-3.619421

>  <Energy>  (296) 
45.546685

>  <fragmenstein_outcome>  (296) 
too moved

>  <alias>  (296) 
RQYODYAUANDZJE-UHFFFAOYSA-N-P126-P126-P183-601502

>  <HIPPO Pose ID>  (296) 
503436

>  <exports>  (296) 
['/opt/xchem-fragalysis-2/maxwin/openbind-hippo/a71ev2a/cycle_01/bulkdock/openbind_a71ev2a_c1_elab_chemspace.sdf', '/opt/xchem-fragalysis-2/maxwin/openbind-hippo/a71ev2a/cycle_01/syndirella/elabs/openbind_a71ev2a_c1_elab_chemspace_filtered.sdf', '/opt/xchem-fragalysis-2/maxwin/openbind-hippo/a71ev2a/cycle_01/syndirella/elabs/ASAP-0031281-001_elabs.sdf']

>  <HIPPO Compound ID>  (296) 
289853

>  <gnina_score>  (296) 
5.987

$$$$
JWQLFZZVZJQGJI-UHFFFAOYSA-N-P126-P126-P183-601502
     RDKit          3D

 27 30  0  0  0  0  0  0  0  0999 V2000
    9.2111    8.8270   23.2679 C   0  0  0  0  0  0  0  0  0  0  0  0
    9.0203   10.0659   23.9835 N   0  0  0  0  0  0  0  0  0  0  0  0
    9.8466   11.0823   23.7026 N   0  0  0  0  0  0  0  0  0  0  0  0
    9.4519   12.0691   24.5305 C   0  0  0  0  0  0  0  0  0  0  0  0
   10.2169   13.3116   24.6107 C   0  0  0  0  0  0  0  0  0  0  0  0
   10.0558   14.1099   25.4402 O   0  0  0  0  0  0  0  0  0  0  0  0
   11.2007   13.2780   23.4504 N   0  0  0  0  0  0  0  0  0  0  0  0
   12.2538   14.1603   23.1110 C   0  0  0  0  0  0  0  0  0  0  0  0
   12.6443   14.0885   21.6663 C   0  0  0  0  0  0  0  0  0  0  0  0
   11.6389   14.5708   20.7318 C   0  0  0  0  0  0  0  0  0  0  0  0
   11.6654   14.4237   19.3730 C   0  0  0  0  0  0  0  0  0  0  0  0
   10.6409   15.1162   18.8710 O   0  0  0  0  0  0  0  0  0  0  0  0
   10.1037   15.7346   19.9457 C   0  0  0  0  0  0  0  0  0  0  0  0
    9.3095   16.8681   19.6118 C   0  0  0  0  0  0  0  0  0  0  0  0
    9.0644   17.1944   18.2875 C   0  0  0  0  0  0  0  0  0  0  0  0
    8.1857   18.1973   17.9963 C   0  0  0  0  0  0  0  0  0  0  0  0
    7.6581   18.9582   19.0143 C   0  0  0  0  0  0  0  0  0  0  0  0
    8.0656   18.7708   20.3033 C   0  0  0  0  0  0  0  0  0  0  0  0
    8.8152   17.6735   20.6135 C   0  0  0  0  0  0  0  0  0  0  0  0
   10.5933   15.3632   21.1072 N   0  0  0  0  0  0  0  0  0  0  0  0
    8.3207   11.7076   25.2826 C   0  0  0  0  0  0  0  0  0  0  0  0
    7.5066   12.3548   26.2291 C   0  0  0  0  0  0  0  0  0  0  0  0
    6.4836   11.6268   26.8301 C   0  0  0  0  0  0  0  0  0  0  0  0
    5.3739   12.4602   28.1141 Br  0  0  0  0  0  0  0  0  0  0  0  0
    6.2779   10.2892   26.5138 C   0  0  0  0  0  0  0  0  0  0  0  0
    7.0814    9.6473   25.5676 C   0  0  0  0  0  0  0  0  0  0  0  0
    8.0934   10.3770   24.9496 C   0  0  0  0  0  0  0  0  0  0  0  0
  1  2  1  0
  2  3  1  0
  3  4  2  0
  4  5  1  0
  5  6  2  0
  5  7  1  0
  7  8  1  0
  8  9  1  0
  9 10  1  0
 10 11  2  0
 11 12  1  0
 12 13  1  0
 13 14  1  0
 14 15  2  0
 15 16  1  0
 16 17  2  0
 17 18  1  0
 18 19  2  0
 13 20  2  0
  4 21  1  0
 21 22  2  0
 22 23  1  0
 23 24  1  0
 23 25  2  0
 25 26  1  0
 26 27  2  0
 27  2  1  0
 20 10  1  0
 27 21  1  0
 19 14  1  0
M  END
>  <distance_score>  (297) 
0.960052

>  <smiles>  (297) 
Cn1nc(C(=O)NCCc2coc(-c3ccccc3)n2)c2cc(Br)ccc21

>  <fragmenstein_error>  (297) 


>  <fragmenstein_runtime>  (297) 
6.014613

>  <gnina_score_min>  (297) 
5.855

>  <orig_smiles>  (297) 
Cn1nc(C(=O)NCCc2coc(-c3ccccc3)n2)c2cc(Br)ccc21

>  <fragmenstein_mode>  (297) 
expansion

>  <rmsd(smina/fragmenstein)>  (297) 
1.544

>  <inspiration_score>  (297) 
None

>  <name>  (297) 
JWQLFZZVZJQGJI-UHFFFAOYSA-N-P126-P126-P183-601502

>  <ref_pdb>  (297) 
A0514a

>  <ref_mols>  (297) 
A2290a,A3436a

>  <subsites>  (297) 
None

>  <tags>  (297) 
fragmenstein_placed,openbind_a71ev2a_c1_elabs_filtered,BulkDock Fragalysis export,a71ev2a_c1_elab_bulkdock_input,openbind_a71ev2a_c1_elab_chemspace_filtered_scored

>  <inchikey>  (297) 
JWQLFZZVZJQGJI-UHFFFAOYSA-N

>  <scratch_subdir>  (297) 
/opt/xchem-fragalysis-2/maxwin/BulkDock/SCRATCH/601502/JWQLFZZVZJQGJI-UHFFFAOYSA-N-P126-P126-P183-601502

>  <smina_score_min>  (297) 
-5.783

>  <energy_score>  (297) 
-18.414278

>  <Energy>  (297) 
107.460648

>  <fragmenstein_outcome>  (297) 
acceptable

>  <alias>  (297) 
JWQLFZZVZJQGJI-UHFFFAOYSA-N-P126-P126-P183-601502

>  <HIPPO Pose ID>  (297) 
503442

>  <exports>  (297) 
['/opt/xchem-fragalysis-2/maxwin/openbind-hippo/a71ev2a/cycle_01/syndirella/elabs/openbind_a71ev2a_c1_elab_chemspace_filtered.sdf', '/opt/xchem-fragalysis-2/maxwin/BulkDock/OUTPUTS/a71ev2a_c1_elab_bulkdock_input_1GFT2LV.sdf', '/opt/xchem-fragalysis-2/maxwin/openbind-hippo/a71ev2a/cycle_01/syndirella/elabs/ASAP-0031281-001_elabs.sdf']

>  <HIPPO Compound ID>  (297) 
289856

>  <gnina_score>  (297) 
5.932

$$$$
IMVBRVKIBFNTFN-UHFFFAOYSA-N-P126-P126-P183-601502
     RDKit          3D

 27 30  0  0  0  0  0  0  0  0999 V2000
   12.7999   13.3391   23.8592 C   0  0  0  0  0  0  0  0  0  0  0  0
   11.7263   14.1619   23.1615 C   0  0  1  0  0  0  0  0  0  0  0  0
   11.9377   14.1358   21.6414 C   0  0  0  0  0  0  0  0  0  0  0  0
   10.9141   14.8620   20.8520 C   0  0  0  0  0  0  0  0  0  0  0  0
   10.7654   14.9644   19.4887 C   0  0  0  0  0  0  0  0  0  0  0  0
    9.7909   15.8847   19.2343 O   0  0  0  0  0  0  0  0  0  0  0  0
    9.4015   16.2933   20.4676 C   0  0  0  0  0  0  0  0  0  0  0  0
    9.9841   15.6603   21.4560 N   0  0  0  0  0  0  0  0  0  0  0  0
   10.4971   13.5919   23.6295 N   0  0  0  0  0  0  0  0  0  0  0  0
    9.7226   13.8223   24.9395 C   0  0  0  0  0  0  0  0  0  0  0  0
    9.9199   14.5697   25.8136 O   0  0  0  0  0  0  0  0  0  0  0  0
    8.6658   12.8125   24.9779 C   0  0  0  0  0  0  0  0  0  0  0  0
    8.6746   11.8509   24.0431 N   0  0  0  0  0  0  0  0  0  0  0  0
    8.0372   10.8461   24.6380 N   0  0  0  0  0  0  0  0  0  0  0  0
    8.4164    9.4984   24.3067 C   0  0  0  0  0  0  0  0  0  0  0  0
    9.2647    9.4779   23.0614 C   0  0  2  0  0  0  0  0  0  0  0  0
    9.1459    8.1601   22.3805 C   0  0  0  0  0  0  0  0  0  0  0  0
   10.0049    7.4213   23.1810 N   0  0  0  0  0  0  0  0  0  0  0  0
   10.9891    8.2448   23.5735 C   0  0  0  0  0  0  0  0  0  0  0  0
   12.0312    7.8610   24.0282 O   0  0  0  0  0  0  0  0  0  0  0  0
   10.6276    9.5376   23.4448 O   0  0  0  0  0  0  0  0  0  0  0  0
    7.3134   11.2103   25.7282 C   0  0  0  0  0  0  0  0  0  0  0  0
    6.4402   10.4934   26.5446 C   0  0  0  0  0  0  0  0  0  0  0  0
    5.9374   11.1701   27.6516 C   0  0  0  0  0  0  0  0  0  0  0  0
    6.3221   12.4820   27.9348 C   0  0  0  0  0  0  0  0  0  0  0  0
    7.2259   13.1683   27.1191 C   0  0  0  0  0  0  0  0  0  0  0  0
    7.7111   12.5218   25.9788 C   0  0  0  0  0  0  0  0  0  0  0  0
  2  1  1  1
  2  3  1  0
  3  4  1  0
  4  5  2  0
  5  6  1  0
  6  7  1  0
  7  8  2  0
  2  9  1  0
  9 10  1  0
 10 11  2  0
 10 12  1  0
 12 13  2  0
 13 14  1  0
 14 15  1  0
 16 15  1  1
 16 17  1  0
 17 18  1  0
 18 19  1  0
 19 20  2  0
 19 21  1  0
 14 22  1  0
 22 23  2  0
 23 24  1  0
 24 25  2  0
 25 26  1  0
 26 27  2  0
  8  4  1  0
 27 12  1  0
 21 16  1  0
 27 22  1  0
M  END
>  <distance_score>  (298) 
1.449777

>  <smiles>  (298) 
CC(Cc1cocn1)NC(=O)c1nn(CC2CNC(=O)O2)c2ccccc12

>  <fragmenstein_error>  (298) 


>  <fragmenstein_runtime>  (298) 
7.455944

>  <gnina_score_min>  (298) 
5.947

>  <orig_smiles>  (298) 
CC(Cc1cocn1)NC(=O)c1nn(CC2CNC(=O)O2)c2ccccc12

>  <fragmenstein_mode>  (298) 
expansion

>  <rmsd(smina/fragmenstein)>  (298) 
1.031

>  <inspiration_score>  (298) 
None

>  <name>  (298) 
IMVBRVKIBFNTFN-UHFFFAOYSA-N-P126-P126-P183-601502

>  <ref_pdb>  (298) 
A0514a

>  <ref_mols>  (298) 
A2290a,A3436a

>  <subsites>  (298) 
None

>  <tags>  (298) 
openbind_a71ev2a_c1_elabs_filtered,fragmenstein_placed,a71ev2a_c1_elab_bulkdock_input,openbind_a71ev2a_c1_elab_chemspace_filtered_scored

>  <inchikey>  (298) 
IMVBRVKIBFNTFN-UHFFFAOYSA-N

>  <scratch_subdir>  (298) 
/opt/xchem-fragalysis-2/maxwin/BulkDock/SCRATCH/601502/IMVBRVKIBFNTFN-UHFFFAOYSA-N-P126-P126-P183-601502

>  <smina_score_min>  (298) 
-2.212

>  <energy_score>  (298) 
-24.284124

>  <Energy>  (298) 
53.535733

>  <fragmenstein_outcome>  (298) 
too moved

>  <alias>  (298) 
IMVBRVKIBFNTFN-UHFFFAOYSA-N-P126-P126-P183-601502

>  <HIPPO Pose ID>  (298) 
503446

>  <exports>  (298) 
['/opt/xchem-fragalysis-2/maxwin/openbind-hippo/a71ev2a/cycle_01/bulkdock/openbind_a71ev2a_c1_elab_chemspace.sdf', '/opt/xchem-fragalysis-2/maxwin/openbind-hippo/a71ev2a/cycle_01/syndirella/elabs/openbind_a71ev2a_c1_elab_chemspace_filtered.sdf', '/opt/xchem-fragalysis-2/maxwin/openbind-hippo/a71ev2a/cycle_01/syndirella/elabs/ASAP-0031281-001_elabs.sdf']

>  <HIPPO Compound ID>  (298) 
289858

>  <gnina_score>  (298) 
6.053

$$$$
ATWVTYZZYXHEHG-UHFFFAOYSA-N-P183-P126-P183-601502
     RDKit          3D

 28 31  0  0  0  0  0  0  0  0999 V2000
   11.7875   14.5293   18.4473 C   0  0  0  0  0  0  0  0  0  0  0  0
   11.0374   14.9089   19.6096 C   0  0  0  0  0  0  0  0  0  0  0  0
    9.8540   15.4396   19.3260 O   0  0  0  0  0  0  0  0  0  0  0  0
    9.5562   16.1032   20.4601 C   0  0  0  0  0  0  0  0  0  0  0  0
    8.8370   17.2814   20.1647 C   0  0  0  0  0  0  0  0  0  0  0  0
    8.3661   17.4683   18.8850 C   0  0  0  0  0  0  0  0  0  0  0  0
    7.6211   18.5418   18.5062 C   0  0  0  0  0  0  0  0  0  0  0  0
    7.5080   19.5280   19.3616 C   0  0  0  0  0  0  0  0  0  0  0  0
    8.2032   19.4668   20.5187 C   0  0  0  0  0  0  0  0  0  0  0  0
    8.7971   18.3392   20.9900 C   0  0  0  0  0  0  0  0  0  0  0  0
   10.2487   15.7532   21.5117 N   0  0  0  0  0  0  0  0  0  0  0  0
   11.2388   14.9999   20.9565 C   0  0  0  0  0  0  0  0  0  0  0  0
   12.3773   14.5236   21.7332 C   0  0  0  0  0  0  0  0  0  0  0  0
   12.0922   14.4177   23.2109 C   0  0  0  0  0  0  0  0  0  0  0  0
   11.0137   13.5266   23.4643 N   0  0  0  0  0  0  0  0  0  0  0  0
    9.9131   13.5792   24.5118 C   0  0  0  0  0  0  0  0  0  0  0  0
    9.6566   14.3978   25.2952 O   0  0  0  0  0  0  0  0  0  0  0  0
    9.1825   12.3168   24.4227 C   0  0  0  0  0  0  0  0  0  0  0  0
    9.6456   11.2997   23.6704 N   0  0  0  0  0  0  0  0  0  0  0  0
    8.8976   10.2508   24.0445 N   0  0  0  0  0  0  0  0  0  0  0  0
    9.2472    8.9539   23.5109 C   0  0  0  0  0  0  0  0  0  0  0  0
    7.9300   10.5803   24.9680 C   0  0  0  0  0  0  0  0  0  0  0  0
    6.9680    9.8387   25.6572 C   0  0  0  0  0  0  0  0  0  0  0  0
    6.1148   10.5064   26.5392 C   0  0  0  0  0  0  0  0  0  0  0  0
    6.2115   11.8776   26.7104 C   0  0  0  0  0  0  0  0  0  0  0  0
    5.3872   12.4874   27.5727 F   0  0  0  0  0  0  0  0  0  0  0  0
    7.1644   12.6233   26.0309 C   0  0  0  0  0  0  0  0  0  0  0  0
    8.0408   11.9527   25.1592 C   0  0  0  0  0  0  0  0  0  0  0  0
  1  2  1  0
  2  3  1  0
  3  4  1  0
  4  5  1  0
  5  6  2  0
  6  7  1  0
  7  8  2  0
  8  9  1  0
  9 10  2  0
  4 11  2  0
 11 12  1  0
 12 13  1  0
 13 14  1  0
 14 15  1  0
 15 16  1  0
 16 17  2  0
 16 18  1  0
 18 19  2  0
 19 20  1  0
 20 21  1  0
 20 22  1  0
 22 23  2  0
 23 24  1  0
 24 25  2  0
 25 26  1  0
 25 27  1  0
 27 28  2  0
 12  2  2  0
 28 18  1  0
 10  5  1  0
 28 22  1  0
M  END
>  <distance_score>  (299) 
0.851283

>  <smiles>  (299) 
Cc1oc(-c2ccccc2)nc1CCNC(=O)c1nn(C)c2ccc(F)cc12

>  <fragmenstein_error>  (299) 


>  <fragmenstein_runtime>  (299) 
10.249178

>  <gnina_score_min>  (299) 
5.875

>  <orig_smiles>  (299) 
Cc1oc(-c2ccccc2)nc1CCNC(=O)c1nn(C)c2ccc(F)cc12

>  <fragmenstein_mode>  (299) 
expansion

>  <rmsd(smina/fragmenstein)>  (299) 
1.357

>  <inspiration_score>  (299) 
None

>  <name>  (299) 
ATWVTYZZYXHEHG-UHFFFAOYSA-N-P183-P126-P183-601502

>  <ref_pdb>  (299) 
A0514a

>  <ref_mols>  (299) 
A2290a,A3436a

>  <subsites>  (299) 
None

>  <tags>  (299) 
fragmenstein_placed,openbind_a71ev2a_c1_elabs_filtered,BulkDock Fragalysis export,a71ev2a_c1_elab_bulkdock_input,openbind_a71ev2a_c1_elab_chemspace_filtered_scored

>  <inchikey>  (299) 
ATWVTYZZYXHEHG-UHFFFAOYSA-N

>  <scratch_subdir>  (299) 
/opt/xchem-fragalysis-2/maxwin/BulkDock/SCRATCH/601502/ATWVTYZZYXHEHG-UHFFFAOYSA-N-P183-P126-P183-601502

>  <smina_score_min>  (299) 
-3.876

>  <energy_score>  (299) 
-0.807712

>  <Energy>  (299) 
130.519818

>  <fragmenstein_outcome>  (299) 
acceptable

>  <alias>  (299) 
ATWVTYZZYXHEHG-UHFFFAOYSA-N-P183-P126-P183-601502

>  <HIPPO Pose ID>  (299) 
503453

>  <exports>  (299) 
['/opt/xchem-fragalysis-2/maxwin/openbind-hippo/a71ev2a/cycle_01/bulkdock/openbind_a71ev2a_c1_elab_chemspace.sdf', '/opt/xchem-fragalysis-2/maxwin/openbind-hippo/a71ev2a/cycle_01/syndirella/elabs/openbind_a71ev2a_c1_elab_chemspace_filtered.sdf', '/opt/xchem-fragalysis-2/maxwin/BulkDock/OUTPUTS/a71ev2a_c1_elab_bulkdock_input_1GFT2LV.sdf', '/opt/xchem-fragalysis-2/maxwin/openbind-hippo/a71ev2a/cycle_01/syndirella/elabs/ASAP-0031281-001_elabs.sdf']

>  <HIPPO Compound ID>  (299) 
289861

>  <gnina_score>  (299) 
6.04

$$$$
JNAGOACLKSWBJD-UHFFFAOYSA-N-P126-P126-P183-601502
     RDKit          3D

 28 31  0  0  0  0  0  0  0  0999 V2000
    9.1964    8.8285   23.2747 C   0  0  0  0  0  0  0  0  0  0  0  0
    8.9990   10.0716   23.9811 N   0  0  0  0  0  0  0  0  0  0  0  0
    9.8196   11.0897   23.6909 N   0  0  0  0  0  0  0  0  0  0  0  0
    9.4341   12.0750   24.5247 C   0  0  0  0  0  0  0  0  0  0  0  0
   10.2166   13.3057   24.6207 C   0  0  0  0  0  0  0  0  0  0  0  0
   10.0375   14.1150   25.4358 O   0  0  0  0  0  0  0  0  0  0  0  0
   11.2772   13.2178   23.5326 N   0  0  0  0  0  0  0  0  0  0  0  0
   12.2811   14.1382   23.1500 C   0  0  0  0  0  0  0  0  0  0  0  0
   12.6543   14.0599   21.7024 C   0  0  0  0  0  0  0  0  0  0  0  0
   11.6501   14.5449   20.7701 C   0  0  0  0  0  0  0  0  0  0  0  0
   11.6894   14.4042   19.4108 C   0  0  0  0  0  0  0  0  0  0  0  0
   10.6654   15.0913   18.9031 O   0  0  0  0  0  0  0  0  0  0  0  0
   10.1211   15.7065   19.9768 C   0  0  0  0  0  0  0  0  0  0  0  0
    9.3326   16.8416   19.6354 C   0  0  0  0  0  0  0  0  0  0  0  0
    9.1093   17.1630   18.3049 C   0  0  0  0  0  0  0  0  0  0  0  0
    8.2317   18.1570   17.9975 C   0  0  0  0  0  0  0  0  0  0  0  0
    7.7040   18.9137   19.0121 C   0  0  0  0  0  0  0  0  0  0  0  0
    6.7854   19.8191   18.7212 F   0  0  0  0  0  0  0  0  0  0  0  0
    8.0825   18.7499   20.3071 C   0  0  0  0  0  0  0  0  0  0  0  0
    8.8268   17.6531   20.6294 C   0  0  0  0  0  0  0  0  0  0  0  0
   10.6017   15.3346   21.1414 N   0  0  0  0  0  0  0  0  0  0  0  0
    8.3034   11.7171   25.2790 C   0  0  0  0  0  0  0  0  0  0  0  0
    7.4992   12.3625   26.2334 C   0  0  0  0  0  0  0  0  0  0  0  0
    6.4861   11.6320   26.8391 C   0  0  0  0  0  0  0  0  0  0  0  0
    5.7178   12.2173   27.7677 F   0  0  0  0  0  0  0  0  0  0  0  0
    6.2716   10.2985   26.5267 C   0  0  0  0  0  0  0  0  0  0  0  0
    7.0647    9.6546   25.5741 C   0  0  0  0  0  0  0  0  0  0  0  0
    8.0738   10.3848   24.9489 C   0  0  0  0  0  0  0  0  0  0  0  0
  1  2  1  0
  2  3  1  0
  3  4  2  0
  4  5  1  0
  5  6  2  0
  5  7  1  0
  7  8  1  0
  8  9  1  0
  9 10  1  0
 10 11  2  0
 11 12  1  0
 12 13  1  0
 13 14  1  0
 14 15  2  0
 15 16  1  0
 16 17  2  0
 17 18  1  0
 17 19  1  0
 19 20  2  0
 13 21  2  0
  4 22  1  0
 22 23  2  0
 23 24  1  0
 24 25  1  0
 24 26  2  0
 26 27  1  0
 27 28  2  0
 28  2  1  0
 21 10  1  0
 28 22  1  0
 20 14  1  0
M  END
>  <distance_score>  (300) 
0.981433

>  <smiles>  (300) 
Cn1nc(C(=O)NCCc2coc(-c3ccc(F)cc3)n2)c2cc(F)ccc21

>  <fragmenstein_error>  (300) 


>  <fragmenstein_runtime>  (300) 
5.597299

>  <gnina_score_min>  (300) 
5.754

>  <orig_smiles>  (300) 
Cn1nc(C(=O)NCCc2coc(-c3ccc(F)cc3)n2)c2cc(F)ccc21

>  <fragmenstein_mode>  (300) 
expansion

>  <rmsd(smina/fragmenstein)>  (300) 
1.68

>  <inspiration_score>  (300) 
None

>  <name>  (300) 
JNAGOACLKSWBJD-UHFFFAOYSA-N-P126-P126-P183-601502

>  <ref_pdb>  (300) 
A0514a

>  <ref_mols>  (300) 
A2290a,A3436a

>  <subsites>  (300) 
None

>  <tags>  (300) 
fragmenstein_placed,openbind_a71ev2a_c1_elabs_filtered,BulkDock Fragalysis export,a71ev2a_c1_elab_bulkdock_input,openbind_a71ev2a_c1_elab_chemspace_filtered_scored

>  <inchikey>  (300) 
JNAGOACLKSWBJD-UHFFFAOYSA-N

>  <scratch_subdir>  (300) 
/opt/xchem-fragalysis-2/maxwin/BulkDock/SCRATCH/601502/JNAGOACLKSWBJD-UHFFFAOYSA-N-P126-P126-P183-601502

>  <smina_score_min>  (300) 
-5.701

>  <energy_score>  (300) 
-0.652919

>  <Energy>  (300) 
103.014326

>  <fragmenstein_outcome>  (300) 
acceptable

>  <alias>  (300) 
JNAGOACLKSWBJD-UHFFFAOYSA-N-P126-P126-P183-601502

>  <HIPPO Pose ID>  (300) 
503454

>  <exports>  (300) 
['/opt/xchem-fragalysis-2/maxwin/openbind-hippo/a71ev2a/cycle_01/syndirella/elabs/openbind_a71ev2a_c1_elab_chemspace_filtered.sdf', '/opt/xchem-fragalysis-2/maxwin/BulkDock/OUTPUTS/a71ev2a_c1_elab_bulkdock_input_1GFT2LV.sdf', '/opt/xchem-fragalysis-2/maxwin/openbind-hippo/a71ev2a/cycle_01/syndirella/elabs/ASAP-0031281-001_elabs.sdf']

>  <HIPPO Compound ID>  (300) 
289862

>  <gnina_score>  (300) 
5.889

$$$$
OYDVKSICLADJQR-UHFFFAOYSA-N-P126-P126-P183-601502
     RDKit          3D

 28 31  0  0  0  0  0  0  0  0999 V2000
    9.2068    8.8257   23.2684 C   0  0  0  0  0  0  0  0  0  0  0  0
    9.0125   10.0662   23.9802 N   0  0  0  0  0  0  0  0  0  0  0  0
    9.8421   11.0803   23.7024 N   0  0  0  0  0  0  0  0  0  0  0  0
    9.4427   12.0703   24.5246 C   0  0  0  0  0  0  0  0  0  0  0  0
   10.2251   13.3007   24.6236 C   0  0  0  0  0  0  0  0  0  0  0  0
   10.0666   14.0939   25.4586 O   0  0  0  0  0  0  0  0  0  0  0  0
   11.2705   13.2239   23.5203 N   0  0  0  0  0  0  0  0  0  0  0  0
   12.2805   14.1397   23.1453 C   0  0  0  0  0  0  0  0  0  0  0  0
   12.6543   14.0635   21.6980 C   0  0  0  0  0  0  0  0  0  0  0  0
   11.6497   14.5485   20.7667 C   0  0  0  0  0  0  0  0  0  0  0  0
   11.6862   14.4054   19.4075 C   0  0  0  0  0  0  0  0  0  0  0  0
   10.6617   15.0925   18.9009 O   0  0  0  0  0  0  0  0  0  0  0  0
   10.1202   15.7097   19.9746 C   0  0  0  0  0  0  0  0  0  0  0  0
    9.3313   16.8442   19.6336 C   0  0  0  0  0  0  0  0  0  0  0  0
    9.1075   17.1651   18.3031 C   0  0  0  0  0  0  0  0  0  0  0  0
    8.2296   18.1588   17.9963 C   0  0  0  0  0  0  0  0  0  0  0  0
    7.7023   18.9152   19.0114 C   0  0  0  0  0  0  0  0  0  0  0  0
    6.7839   19.8208   18.7208 F   0  0  0  0  0  0  0  0  0  0  0  0
    8.0813   18.7517   20.3063 C   0  0  0  0  0  0  0  0  0  0  0  0
    8.8260   17.6553   20.6282 C   0  0  0  0  0  0  0  0  0  0  0  0
   10.6038   15.3410   21.1388 N   0  0  0  0  0  0  0  0  0  0  0  0
    8.3076   11.7120   25.2719 C   0  0  0  0  0  0  0  0  0  0  0  0
    7.4941   12.3598   26.2184 C   0  0  0  0  0  0  0  0  0  0  0  0
    6.4734   11.6313   26.8226 C   0  0  0  0  0  0  0  0  0  0  0  0
    5.3644   12.4653   28.1068 Br  0  0  0  0  0  0  0  0  0  0  0  0
    6.2701   10.2923   26.5104 C   0  0  0  0  0  0  0  0  0  0  0  0
    7.0740    9.6493   25.5653 C   0  0  0  0  0  0  0  0  0  0  0  0
    8.0836   10.3794   24.9439 C   0  0  0  0  0  0  0  0  0  0  0  0
  1  2  1  0
  2  3  1  0
  3  4  2  0
  4  5  1  0
  5  6  2  0
  5  7  1  0
  7  8  1  0
  8  9  1  0
  9 10  1  0
 10 11  2  0
 11 12  1  0
 12 13  1  0
 13 14  1  0
 14 15  2  0
 15 16  1  0
 16 17  2  0
 17 18  1  0
 17 19  1  0
 19 20  2  0
 13 21  2  0
  4 22  1  0
 22 23  2  0
 23 24  1  0
 24 25  1  0
 24 26  2  0
 26 27  1  0
 27 28  2  0
 28  2  1  0
 21 10  1  0
 28 22  1  0
 20 14  1  0
M  END
>  <distance_score>  (301) 
0.978139

>  <smiles>  (301) 
Cn1nc(C(=O)NCCc2coc(-c3ccc(F)cc3)n2)c2cc(Br)ccc21

>  <fragmenstein_error>  (301) 


>  <fragmenstein_runtime>  (301) 
4.344628

>  <gnina_score_min>  (301) 
5.798

>  <orig_smiles>  (301) 
Cn1nc(C(=O)NCCc2coc(-c3ccc(F)cc3)n2)c2cc(Br)ccc21

>  <fragmenstein_mode>  (301) 
expansion

>  <rmsd(smina/fragmenstein)>  (301) 
1.695

>  <inspiration_score>  (301) 
None

>  <name>  (301) 
OYDVKSICLADJQR-UHFFFAOYSA-N-P126-P126-P183-601502

>  <ref_pdb>  (301) 
A0514a

>  <ref_mols>  (301) 
A2290a,A3436a

>  <subsites>  (301) 
None

>  <tags>  (301) 
fragmenstein_placed,openbind_a71ev2a_c1_elabs_filtered,BulkDock Fragalysis export,a71ev2a_c1_elab_bulkdock_input,openbind_a71ev2a_c1_elab_chemspace_filtered_scored

>  <inchikey>  (301) 
OYDVKSICLADJQR-UHFFFAOYSA-N

>  <scratch_subdir>  (301) 
/opt/xchem-fragalysis-2/maxwin/BulkDock/SCRATCH/601502/OYDVKSICLADJQR-UHFFFAOYSA-N-P126-P126-P183-601502

>  <smina_score_min>  (301) 
-5.701

>  <energy_score>  (301) 
-0.477967

>  <Energy>  (301) 
105.56252

>  <fragmenstein_outcome>  (301) 
acceptable

>  <alias>  (301) 
OYDVKSICLADJQR-UHFFFAOYSA-N-P126-P126-P183-601502

>  <HIPPO Pose ID>  (301) 
503456

>  <exports>  (301) 
['/opt/xchem-fragalysis-2/maxwin/openbind-hippo/a71ev2a/cycle_01/syndirella/elabs/openbind_a71ev2a_c1_elab_chemspace_filtered.sdf', '/opt/xchem-fragalysis-2/maxwin/BulkDock/OUTPUTS/a71ev2a_c1_elab_bulkdock_input_1GFT2LV.sdf', '/opt/xchem-fragalysis-2/maxwin/openbind-hippo/a71ev2a/cycle_01/syndirella/elabs/ASAP-0031281-001_elabs.sdf']

>  <HIPPO Compound ID>  (301) 
289863

>  <gnina_score>  (301) 
5.933

$$$$
KMUFPHPBOXOVEH-UHFFFAOYSA-N-P126-P126-P183-601502
     RDKit          3D

 28 31  0  0  0  0  0  0  0  0999 V2000
    8.5999   17.3829   20.6674 C   0  0  0  0  0  0  0  0  0  0  0  0
    9.5441   16.2604   20.5594 C   0  0  0  0  0  0  0  0  0  0  0  0
   10.1411   15.6139   21.5373 N   0  0  0  0  0  0  0  0  0  0  0  0
   11.0868   14.8617   20.9151 C   0  0  0  0  0  0  0  0  0  0  0  0
   12.2043   14.2139   21.6333 C   0  0  0  0  0  0  0  0  0  0  0  0
   12.0771   14.3087   23.1374 C   0  0  0  0  0  0  0  0  0  0  0  0
   10.9458   13.6062   23.6408 N   0  0  0  0  0  0  0  0  0  0  0  0
   10.1395   13.8074   24.9324 C   0  0  0  0  0  0  0  0  0  0  0  0
   10.3172   14.5303   25.8301 O   0  0  0  0  0  0  0  0  0  0  0  0
    9.0753   12.8055   24.8829 C   0  0  0  0  0  0  0  0  0  0  0  0
    9.1273   11.8984   23.8937 N   0  0  0  0  0  0  0  0  0  0  0  0
    8.4261   10.8858   24.3757 N   0  0  0  0  0  0  0  0  0  0  0  0
    8.9566    9.5648   24.1852 C   0  0  0  0  0  0  0  0  0  0  0  0
   10.0894    9.4732   23.1544 C   0  0  1  0  0  0  0  0  0  0  0  0
   10.9936    8.3083   23.3820 C   0  0  0  0  0  0  0  0  0  0  0  0
   10.0492    7.2928   23.2751 N   0  0  0  0  0  0  0  0  0  0  0  0
    9.2220    7.6950   22.2611 C   0  0  0  0  0  0  0  0  0  0  0  0
    8.4210    6.9704   21.7242 O   0  0  0  0  0  0  0  0  0  0  0  0
    9.4835    8.9984   21.9814 O   0  0  0  0  0  0  0  0  0  0  0  0
    7.6145   11.2220   25.4236 C   0  0  0  0  0  0  0  0  0  0  0  0
    6.6723   10.4844   26.1439 C   0  0  0  0  0  0  0  0  0  0  0  0
    6.0831   11.1232   27.2319 C   0  0  0  0  0  0  0  0  0  0  0  0
    6.4539   12.4189   27.5955 C   0  0  0  0  0  0  0  0  0  0  0  0
    7.4372   13.1199   26.8893 C   0  0  0  0  0  0  0  0  0  0  0  0
    8.0194   12.5082   25.7737 C   0  0  0  0  0  0  0  0  0  0  0  0
   10.9183   14.9677   19.5631 C   0  0  0  0  0  0  0  0  0  0  0  0
   11.7187   14.4670   18.4578 C   0  0  0  0  0  0  0  0  0  0  0  0
    9.9127   15.8532   19.3113 O   0  0  0  0  0  0  0  0  0  0  0  0
  1  2  1  0
  2  3  2  0
  3  4  1  0
  4  5  1  0
  5  6  1  0
  6  7  1  0
  7  8  1  0
  8  9  2  0
  8 10  1  0
 10 11  2  0
 11 12  1  0
 12 13  1  0
 14 13  1  1
 14 15  1  0
 15 16  1  0
 16 17  1  0
 17 18  2  0
 17 19  1  0
 12 20  1  0
 20 21  2  0
 21 22  1  0
 22 23  2  0
 23 24  1  0
 24 25  2  0
  4 26  2  0
 26 27  1  0
 26 28  1  0
 28  2  1  0
 25 10  1  0
 19 14  1  0
 25 20  1  0
M  END
>  <distance_score>  (302) 
1.240093

>  <smiles>  (302) 
Cc1nc(CCNC(=O)c2nn(CC3CNC(=O)O3)c3ccccc23)c(C)o1

>  <fragmenstein_error>  (302) 


>  <fragmenstein_runtime>  (302) 
23.910029

>  <gnina_score_min>  (302) 
6.114

>  <orig_smiles>  (302) 
Cc1nc(CCNC(=O)c2nn(CC3CNC(=O)O3)c3ccccc23)c(C)o1

>  <fragmenstein_mode>  (302) 
expansion

>  <rmsd(smina/fragmenstein)>  (302) 
0.715

>  <inspiration_score>  (302) 
None

>  <name>  (302) 
KMUFPHPBOXOVEH-UHFFFAOYSA-N-P126-P126-P183-601502

>  <ref_pdb>  (302) 
A0514a

>  <ref_mols>  (302) 
A2290a,A3436a

>  <subsites>  (302) 
None

>  <tags>  (302) 
openbind_a71ev2a_c1_elabs_filtered,fragmenstein_placed,a71ev2a_c1_elab_bulkdock_input,openbind_a71ev2a_c1_elab_chemspace_filtered_scored

>  <inchikey>  (302) 
KMUFPHPBOXOVEH-UHFFFAOYSA-N

>  <scratch_subdir>  (302) 
/opt/xchem-fragalysis-2/maxwin/BulkDock/SCRATCH/601502/KMUFPHPBOXOVEH-UHFFFAOYSA-N-P126-P126-P183-601502

>  <smina_score_min>  (302) 
-1.392

>  <energy_score>  (302) 
-15.778055

>  <Energy>  (302) 
63.948204

>  <fragmenstein_outcome>  (302) 
too moved

>  <alias>  (302) 
KMUFPHPBOXOVEH-UHFFFAOYSA-N-P126-P126-P183-601502

>  <HIPPO Pose ID>  (302) 
503460

>  <exports>  (302) 
['/opt/xchem-fragalysis-2/maxwin/openbind-hippo/a71ev2a/cycle_01/bulkdock/openbind_a71ev2a_c1_elab_chemspace.sdf', '/opt/xchem-fragalysis-2/maxwin/openbind-hippo/a71ev2a/cycle_01/syndirella/elabs/openbind_a71ev2a_c1_elab_chemspace_filtered.sdf', '/opt/xchem-fragalysis-2/maxwin/openbind-hippo/a71ev2a/cycle_01/syndirella/elabs/ASAP-0031281-001_elabs.sdf']

>  <HIPPO Compound ID>  (302) 
289865

>  <gnina_score>  (302) 
6.22

$$$$
QAFFVBNCZZHNSX-UHFFFAOYSA-N-P126-P126-P183-601502
     RDKit          3D

 28 30  0  0  0  0  0  0  0  0999 V2000
    3.5761   12.3969   29.0407 C   0  0  0  0  0  0  0  0  0  0  0  0
    4.4210   11.7617   28.0801 O   0  0  0  0  0  0  0  0  0  0  0  0
    5.5973   12.4076   27.8791 C   0  0  0  0  0  0  0  0  0  0  0  0
    5.9696   13.4252   28.4394 O   0  0  0  0  0  0  0  0  0  0  0  0
    6.3987   11.7005   26.8530 C   0  0  0  0  0  0  0  0  0  0  0  0
    6.2912   10.3221   26.6645 C   0  0  0  0  0  0  0  0  0  0  0  0
    7.0797    9.6651   25.7164 C   0  0  0  0  0  0  0  0  0  0  0  0
    7.9751   10.4140   24.9586 C   0  0  0  0  0  0  0  0  0  0  0  0
    8.0714   11.7894   25.1082 C   0  0  0  0  0  0  0  0  0  0  0  0
    7.2973   12.4486   26.0814 C   0  0  0  0  0  0  0  0  0  0  0  0
    9.0000   12.1839   24.1242 C   0  0  0  0  0  0  0  0  0  0  0  0
    9.4726   13.5369   23.8614 C   0  0  0  0  0  0  0  0  0  0  0  0
    9.3074   14.3979   24.6235 O   0  0  0  0  0  0  0  0  0  0  0  0
   10.2430   13.5148   22.5449 N   0  0  0  0  0  0  0  0  0  0  0  0
   11.0614   14.5240   21.9212 C   0  0  2  0  0  0  0  0  0  0  0  0
   10.7868   14.6487   20.4307 C   0  0  0  0  0  0  0  0  0  0  0  0
    9.9383   15.8143   20.0888 C   0  0  0  0  0  0  0  0  0  0  0  0
    9.8613   16.5226   18.9136 C   0  0  0  0  0  0  0  0  0  0  0  0
    9.0476   17.5925   19.1059 O   0  0  0  0  0  0  0  0  0  0  0  0
    8.6860   17.4860   20.4122 C   0  0  0  0  0  0  0  0  0  0  0  0
    9.1253   16.4049   21.0168 N   0  0  0  0  0  0  0  0  0  0  0  0
   12.5282   14.2424   22.1446 C   0  0  0  0  0  0  0  0  0  0  0  0
   13.4015   15.0125   21.7741 O   0  0  0  0  0  0  0  0  0  0  0  0
   12.8153   13.0504   22.7286 O   0  0  0  0  0  0  0  0  0  0  0  0
   12.6423   12.9909   24.1401 C   0  0  0  0  0  0  0  0  0  0  0  0
    9.4811   11.1386   23.4254 N   0  0  0  0  0  0  0  0  0  0  0  0
    8.8797   10.0787   23.9811 N   0  0  0  0  0  0  0  0  0  0  0  0
    9.2655    8.7610   23.5430 C   0  0  0  0  0  0  0  0  0  0  0  0
  1  2  1  0
  2  3  1  0
  3  4  2  0
  3  5  1  0
  5  6  2  0
  6  7  1  0
  7  8  2  0
  8  9  1  0
  9 10  2  0
  9 11  1  0
 11 12  1  0
 12 13  2  0
 12 14  1  0
 14 15  1  0
 15 16  1  6
 16 17  1  0
 17 18  2  0
 18 19  1  0
 19 20  1  0
 20 21  2  0
 15 22  1  0
 22 23  2  0
 22 24  1  0
 24 25  1  0
 11 26  2  0
 26 27  1  0
 27 28  1  0
 10  5  1  0
 21 17  1  0
 27  8  1  0
M  END
>  <distance_score>  (303) 
1.01565

>  <smiles>  (303) 
COC(=O)c1ccc2c(c1)c(C(=O)NC(Cc1cocn1)C(=O)OC)nn2C

>  <fragmenstein_error>  (303) 


>  <fragmenstein_runtime>  (303) 
4.725919

>  <gnina_score_min>  (303) 
6.074

>  <orig_smiles>  (303) 
COC(=O)c1ccc2c(c1)c(C(=O)NC(Cc1cocn1)C(=O)OC)nn2C

>  <fragmenstein_mode>  (303) 
expansion

>  <rmsd(smina/fragmenstein)>  (303) 
0.829

>  <inspiration_score>  (303) 
None

>  <name>  (303) 
QAFFVBNCZZHNSX-UHFFFAOYSA-N-P126-P126-P183-601502

>  <ref_pdb>  (303) 
A0514a

>  <ref_mols>  (303) 
A2290a,A3436a

>  <subsites>  (303) 
None

>  <tags>  (303) 
openbind_a71ev2a_c1_elabs_filtered,fragmenstein_placed,a71ev2a_c1_elab_bulkdock_input,openbind_a71ev2a_c1_elab_chemspace_filtered_scored

>  <inchikey>  (303) 
QAFFVBNCZZHNSX-UHFFFAOYSA-N

>  <scratch_subdir>  (303) 
/opt/xchem-fragalysis-2/maxwin/BulkDock/SCRATCH/601502/QAFFVBNCZZHNSX-UHFFFAOYSA-N-P126-P126-P183-601502

>  <smina_score_min>  (303) 
-6.602

>  <energy_score>  (303) 
-21.106384

>  <Energy>  (303) 
108.839152

>  <fragmenstein_outcome>  (303) 
too moved

>  <alias>  (303) 
QAFFVBNCZZHNSX-UHFFFAOYSA-N-P126-P126-P183-601502

>  <HIPPO Pose ID>  (303) 
503470

>  <exports>  (303) 
['/opt/xchem-fragalysis-2/maxwin/openbind-hippo/a71ev2a/cycle_01/bulkdock/openbind_a71ev2a_c1_elab_chemspace.sdf', '/opt/xchem-fragalysis-2/maxwin/openbind-hippo/a71ev2a/cycle_01/syndirella/elabs/openbind_a71ev2a_c1_elab_chemspace_filtered.sdf', '/opt/xchem-fragalysis-2/maxwin/openbind-hippo/a71ev2a/cycle_01/syndirella/elabs/ASAP-0031281-001_elabs.sdf']

>  <HIPPO Compound ID>  (303) 
289870

>  <gnina_score>  (303) 
5.92

$$$$
MGNDDFCFMJSPLL-UHFFFAOYSA-N-P183-P126-P183-601502
     RDKit          3D

 29 32  0  0  0  0  0  0  0  0999 V2000
    9.3269    8.9308   23.4241 C   0  0  0  0  0  0  0  0  0  0  0  0
    9.0277   10.2481   23.9389 N   0  0  0  0  0  0  0  0  0  0  0  0
    9.7861   11.2700   23.5179 N   0  0  0  0  0  0  0  0  0  0  0  0
    9.3568   12.3248   24.2337 C   0  0  0  0  0  0  0  0  0  0  0  0
   10.0967   13.5899   24.2226 C   0  0  0  0  0  0  0  0  0  0  0  0
    9.9805   14.3813   25.0658 O   0  0  0  0  0  0  0  0  0  0  0  0
   10.9868   13.5857   22.9882 N   0  0  0  0  0  0  0  0  0  0  0  0
   11.9959   14.5053   22.5672 C   0  0  0  0  0  0  0  0  0  0  0  0
   12.3783   14.2740   21.1185 C   0  0  0  0  0  0  0  0  0  0  0  0
   11.3501   14.5923   20.1361 C   0  0  0  0  0  0  0  0  0  0  0  0
   11.4597   14.7999   18.7858 C   0  0  0  0  0  0  0  0  0  0  0  0
   10.3528   15.4763   18.4006 O   0  0  0  0  0  0  0  0  0  0  0  0
    9.6523   15.5719   19.5471 C   0  0  0  0  0  0  0  0  0  0  0  0
    9.0249   16.8240   19.7482 C   0  0  0  0  0  0  0  0  0  0  0  0
    8.3242   17.5433   18.8071 C   0  0  0  0  0  0  0  0  0  0  0  0
    7.7957   18.7802   19.0445 C   0  0  0  0  0  0  0  0  0  0  0  0
    8.1014   19.3264   20.2397 C   0  0  0  0  0  0  0  0  0  0  0  0
    8.8490   18.6345   21.1589 C   0  0  0  0  0  0  0  0  0  0  0  0
    9.2621   17.3684   20.9552 C   0  0  0  0  0  0  0  0  0  0  0  0
   10.0786   14.8202   20.5297 N   0  0  0  0  0  0  0  0  0  0  0  0
    8.2155   12.0036   25.0000 C   0  0  0  0  0  0  0  0  0  0  0  0
    7.3392   12.7244   25.8335 C   0  0  0  0  0  0  0  0  0  0  0  0
    6.3512   12.0121   26.5226 C   0  0  0  0  0  0  0  0  0  0  0  0
    5.4172   12.7311   27.3885 N   0  0  0  0  0  0  0  0  0  0  0  0
    4.3239   12.1933   27.6227 O   0  0  0  0  0  0  0  0  0  0  0  0
    5.7945   13.8087   27.8678 O   0  0  0  0  0  0  0  0  0  0  0  0
    6.2468   10.6236   26.4181 C   0  0  0  0  0  0  0  0  0  0  0  0
    7.1117    9.9149   25.5815 C   0  0  0  0  0  0  0  0  0  0  0  0
    8.0762   10.6256   24.8611 C   0  0  0  0  0  0  0  0  0  0  0  0
  1  2  1  0
  2  3  1  0
  3  4  2  0
  4  5  1  0
  5  6  2  0
  5  7  1  0
  7  8  1  0
  8  9  1  0
  9 10  1  0
 10 11  2  0
 11 12  1  0
 12 13  1  0
 13 14  1  0
 14 15  2  0
 15 16  1  0
 16 17  2  0
 17 18  1  0
 18 19  2  0
 13 20  2  0
  4 21  1  0
 21 22  2  0
 22 23  1  0
 23 24  1  0
 24 25  2  0
 24 26  1  0
 23 27  2  0
 27 28  1  0
 28 29  2  0
 29  2  1  0
 20 10  1  0
 29 21  1  0
 19 14  1  0
M  CHG  2  24   1  26  -1
M  END
>  <distance_score>  (304) 
0.880924

>  <smiles>  (304) 
Cn1nc(C(=O)NCCc2coc(-c3ccccc3)n2)c2cc([N+](=O)[O-])ccc21

>  <fragmenstein_error>  (304) 


>  <fragmenstein_runtime>  (304) 
4.963985

>  <gnina_score_min>  (304) 
6.379

>  <orig_smiles>  (304) 
Cn1nc(C(=O)NCCc2coc(-c3ccccc3)n2)c2cc([N+](=O)[O-])ccc21

>  <fragmenstein_mode>  (304) 
expansion

>  <rmsd(smina/fragmenstein)>  (304) 
1.064

>  <inspiration_score>  (304) 
None

>  <name>  (304) 
MGNDDFCFMJSPLL-UHFFFAOYSA-N-P183-P126-P183-601502

>  <ref_pdb>  (304) 
A0514a

>  <ref_mols>  (304) 
A2290a,A3436a

>  <subsites>  (304) 
None

>  <tags>  (304) 
fragmenstein_placed,openbind_a71ev2a_c1_elabs_filtered,BulkDock Fragalysis export,a71ev2a_c1_elab_bulkdock_input,openbind_a71ev2a_c1_elab_chemspace_filtered_scored

>  <inchikey>  (304) 
MGNDDFCFMJSPLL-UHFFFAOYSA-N

>  <scratch_subdir>  (304) 
/opt/xchem-fragalysis-2/maxwin/BulkDock/SCRATCH/601502/MGNDDFCFMJSPLL-UHFFFAOYSA-N-P183-P126-P183-601502

>  <smina_score_min>  (304) 
-5.466

>  <energy_score>  (304) 
-6.256166

>  <Energy>  (304) 
161.736791

>  <fragmenstein_outcome>  (304) 
acceptable

>  <alias>  (304) 
MGNDDFCFMJSPLL-UHFFFAOYSA-N-P183-P126-P183-601502

>  <HIPPO Pose ID>  (304) 
503477

>  <exports>  (304) 
['/opt/xchem-fragalysis-2/maxwin/openbind-hippo/a71ev2a/cycle_01/bulkdock/openbind_a71ev2a_c1_elab_chemspace.sdf', '/opt/xchem-fragalysis-2/maxwin/openbind-hippo/a71ev2a/cycle_01/syndirella/elabs/openbind_a71ev2a_c1_elab_chemspace_filtered.sdf', '/opt/xchem-fragalysis-2/maxwin/BulkDock/OUTPUTS/a71ev2a_c1_elab_bulkdock_input_1GFT2LV.sdf', '/opt/xchem-fragalysis-2/maxwin/openbind-hippo/a71ev2a/cycle_01/syndirella/elabs/ASAP-0031281-001_elabs.sdf']

>  <HIPPO Compound ID>  (304) 
289873

>  <gnina_score>  (304) 
6.051

$$$$
VHOUMAQIVBBOSM-UHFFFAOYSA-N-P126-P126-P183-601502
     RDKit          3D

 29 32  0  0  0  0  0  0  0  0999 V2000
    8.6396   17.3572   20.7067 C   0  0  0  0  0  0  0  0  0  0  0  0
    9.5727   16.2243   20.5875 C   0  0  0  0  0  0  0  0  0  0  0  0
   10.1832   15.5623   21.5489 N   0  0  0  0  0  0  0  0  0  0  0  0
   11.0472   14.7321   20.8895 C   0  0  0  0  0  0  0  0  0  0  0  0
   12.1032   13.9851   21.6100 C   0  0  0  0  0  0  0  0  0  0  0  0
   11.9826   13.9686   23.1296 C   0  0  0  0  0  0  0  0  0  0  0  0
   10.8498   13.3020   23.7255 N   0  0  0  0  0  0  0  0  0  0  0  0
   10.2022   11.9450   23.3976 C   0  0  0  0  0  0  0  0  0  0  0  0
   10.5259   11.1169   22.6476 O   0  0  0  0  0  0  0  0  0  0  0  0
    9.0153   11.7133   24.2607 C   0  0  0  0  0  0  0  0  0  0  0  0
    8.6893   10.4714   24.6573 N   0  0  0  0  0  0  0  0  0  0  0  0
    7.5311   10.6146   25.3377 N   0  0  0  0  0  0  0  0  0  0  0  0
    6.8802    9.3852   25.7627 C   0  0  0  0  0  0  0  0  0  0  0  0
    5.5859    9.3484   26.5900 C   0  0  0  0  0  0  0  0  0  0  0  0
    4.4994    8.6128   26.0552 C   0  0  0  0  0  0  0  0  0  0  0  0
    3.3289    8.3410   26.7732 C   0  0  0  0  0  0  0  0  0  0  0  0
    3.1951    8.8250   28.0601 C   0  0  0  0  0  0  0  0  0  0  0  0
    1.7449    8.5444   28.9357 Cl  0  0  0  0  0  0  0  0  0  0  0  0
    4.2370    9.5344   28.6386 C   0  0  0  0  0  0  0  0  0  0  0  0
    5.4286    9.7654   27.9259 C   0  0  0  0  0  0  0  0  0  0  0  0
    6.6463   10.5787   28.8253 Cl  0  0  0  0  0  0  0  0  0  0  0  0
    7.1633   11.9077   25.5155 C   0  0  0  0  0  0  0  0  0  0  0  0
    6.0812   12.5031   26.1641 C   0  0  0  0  0  0  0  0  0  0  0  0
    5.9607   13.8829   26.1188 C   0  0  0  0  0  0  0  0  0  0  0  0
    6.8485   14.6443   25.3794 C   0  0  0  0  0  0  0  0  0  0  0  0
    7.8925   14.0398   24.6821 C   0  0  0  0  0  0  0  0  0  0  0  0
    8.0869   12.6529   24.7862 C   0  0  0  0  0  0  0  0  0  0  0  0
   10.8352   14.8502   19.5355 C   0  0  0  0  0  0  0  0  0  0  0  0
    9.8759   15.7956   19.3324 O   0  0  0  0  0  0  0  0  0  0  0  0
  1  2  1  0
  2  3  2  0
  3  4  1  0
  4  5  1  0
  5  6  1  0
  6  7  1  0
  7  8  1  0
  8  9  2  0
  8 10  1  0
 10 11  2  0
 11 12  1  0
 12 13  1  0
 13 14  1  0
 14 15  2  0
 15 16  1  0
 16 17  2  0
 17 18  1  0
 17 19  1  0
 19 20  2  0
 20 21  1  0
 12 22  1  0
 22 23  2  0
 23 24  1  0
 24 25  2  0
 25 26  1  0
 26 27  2  0
  4 28  2  0
 28 29  1  0
 29  2  1  0
 27 10  1  0
 20 14  1  0
 27 22  1  0
M  END
>  <distance_score>  (305) 
1.972129

>  <smiles>  (305) 
Cc1nc(CCNC(=O)c2nn(Cc3ccc(Cl)cc3Cl)c3ccccc23)co1

>  <fragmenstein_error>  (305) 


>  <fragmenstein_runtime>  (305) 
19.962558

>  <gnina_score_min>  (305) 
5.631

>  <orig_smiles>  (305) 
Cc1nc(CCNC(=O)c2nn(Cc3ccc(Cl)cc3Cl)c3ccccc23)co1

>  <fragmenstein_mode>  (305) 
expansion

>  <rmsd(smina/fragmenstein)>  (305) 
1.612

>  <inspiration_score>  (305) 
None

>  <name>  (305) 
VHOUMAQIVBBOSM-UHFFFAOYSA-N-P126-P126-P183-601502

>  <ref_pdb>  (305) 
A0514a

>  <ref_mols>  (305) 
A2290a,A3436a

>  <subsites>  (305) 
None

>  <tags>  (305) 
openbind_a71ev2a_c1_elabs_filtered,fragmenstein_placed,a71ev2a_c1_elab_bulkdock_input,openbind_a71ev2a_c1_elab_chemspace_filtered_scored

>  <inchikey>  (305) 
VHOUMAQIVBBOSM-UHFFFAOYSA-N

>  <scratch_subdir>  (305) 
/opt/xchem-fragalysis-2/maxwin/BulkDock/SCRATCH/601502/VHOUMAQIVBBOSM-UHFFFAOYSA-N-P126-P126-P183-601502

>  <smina_score_min>  (305) 
-5.784

>  <energy_score>  (305) 
-11.668992

>  <Energy>  (305) 
121.418532

>  <fragmenstein_outcome>  (305) 
too moved

>  <alias>  (305) 
VHOUMAQIVBBOSM-UHFFFAOYSA-N-P126-P126-P183-601502

>  <HIPPO Pose ID>  (305) 
503482

>  <exports>  (305) 
['/opt/xchem-fragalysis-2/maxwin/openbind-hippo/a71ev2a/cycle_01/bulkdock/openbind_a71ev2a_c1_elab_chemspace.sdf', '/opt/xchem-fragalysis-2/maxwin/openbind-hippo/a71ev2a/cycle_01/syndirella/elabs/openbind_a71ev2a_c1_elab_chemspace_filtered.sdf', '/opt/xchem-fragalysis-2/maxwin/openbind-hippo/a71ev2a/cycle_01/syndirella/elabs/ASAP-0031281-001_elabs.sdf']

>  <HIPPO Compound ID>  (305) 
289876

>  <gnina_score>  (305) 
5.857

$$$$
WMPMKDVSPIZPCW-UHFFFAOYSA-N-P126-P126-P183-601502
     RDKit          3D

 29 32  0  0  0  0  0  0  0  0999 V2000
   10.2056   14.1031   25.3941 O   0  0  0  0  0  0  0  0  0  0  0  0
   10.3655   13.3212   24.5487 C   0  0  0  0  0  0  0  0  0  0  0  0
   11.3844   13.2831   23.4180 N   0  0  0  0  0  0  0  0  0  0  0  0
   12.3570   14.2298   23.0253 C   0  0  0  0  0  0  0  0  0  0  0  0
   12.6881   14.1464   21.5687 C   0  0  0  0  0  0  0  0  0  0  0  0
   11.6365   14.5927   20.6731 C   0  0  0  0  0  0  0  0  0  0  0  0
   11.6235   14.4343   19.3158 C   0  0  0  0  0  0  0  0  0  0  0  0
   10.5803   15.1172   18.8444 O   0  0  0  0  0  0  0  0  0  0  0  0
   10.0796   15.7446   19.9290 C   0  0  0  0  0  0  0  0  0  0  0  0
    9.2930   16.8841   19.6053 C   0  0  0  0  0  0  0  0  0  0  0  0
    9.0450   17.2115   18.2812 C   0  0  0  0  0  0  0  0  0  0  0  0
    8.1680   18.2153   17.9959 C   0  0  0  0  0  0  0  0  0  0  0  0
    7.6455   18.9733   19.0184 C   0  0  0  0  0  0  0  0  0  0  0  0
    8.0589   18.7849   20.3056 C   0  0  0  0  0  0  0  0  0  0  0  0
    8.8081   17.6876   20.6122 C   0  0  0  0  0  0  0  0  0  0  0  0
   10.5951   15.3751   21.0789 N   0  0  0  0  0  0  0  0  0  0  0  0
    9.6256   12.0662   24.4453 C   0  0  0  0  0  0  0  0  0  0  0  0
   10.0776   11.1064   23.6186 N   0  0  0  0  0  0  0  0  0  0  0  0
    9.2823   10.0405   23.8539 N   0  0  0  0  0  0  0  0  0  0  0  0
    9.4869    8.8146   23.0644 C   0  0  0  0  0  0  0  0  0  0  0  0
    9.9527    9.0936   21.8231 F   0  0  0  0  0  0  0  0  0  0  0  0
    8.3370    8.1324   22.9245 F   0  0  0  0  0  0  0  0  0  0  0  0
   10.3886    7.9690   23.6091 F   0  0  0  0  0  0  0  0  0  0  0  0
    8.3236   10.3182   24.8130 C   0  0  0  0  0  0  0  0  0  0  0  0
    7.3286    9.5523   25.4159 C   0  0  0  0  0  0  0  0  0  0  0  0
    6.4820   10.1598   26.3491 C   0  0  0  0  0  0  0  0  0  0  0  0
    6.6231   11.5024   26.6781 C   0  0  0  0  0  0  0  0  0  0  0  0
    7.6333   12.2635   26.0949 C   0  0  0  0  0  0  0  0  0  0  0  0
    8.4924   11.6557   25.1623 C   0  0  0  0  0  0  0  0  0  0  0  0
  1  2  2  0
  2  3  1  0
  3  4  1  0
  4  5  1  0
  5  6  1  0
  6  7  2  0
  7  8  1  0
  8  9  1  0
  9 10  1  0
 10 11  2  0
 11 12  1  0
 12 13  2  0
 13 14  1  0
 14 15  2  0
  9 16  2  0
  2 17  1  0
 17 18  2  0
 18 19  1  0
 19 20  1  0
 20 21  1  0
 20 22  1  0
 20 23  1  0
 19 24  1  0
 24 25  2  0
 25 26  1  0
 26 27  2  0
 27 28  1  0
 28 29  2  0
 16  6  1  0
 29 17  1  0
 15 10  1  0
 29 24  1  0
M  END
>  <distance_score>  (306) 
0.905136

>  <smiles>  (306) 
O=C(NCCc1coc(-c2ccccc2)n1)c1nn(C(F)(F)F)c2ccccc12

>  <fragmenstein_error>  (306) 


>  <fragmenstein_runtime>  (306) 
7.060006

>  <gnina_score_min>  (306) 
6.32

>  <orig_smiles>  (306) 
O=C(NCCc1coc(-c2ccccc2)n1)c1nn(C(F)(F)F)c2ccccc12

>  <fragmenstein_mode>  (306) 
expansion

>  <rmsd(smina/fragmenstein)>  (306) 
0.789

>  <inspiration_score>  (306) 
None

>  <name>  (306) 
WMPMKDVSPIZPCW-UHFFFAOYSA-N-P126-P126-P183-601502

>  <ref_pdb>  (306) 
A0514a

>  <ref_mols>  (306) 
A2290a,A3436a

>  <subsites>  (306) 
None

>  <tags>  (306) 
fragmenstein_placed,openbind_a71ev2a_c1_elabs_filtered,BulkDock Fragalysis export,a71ev2a_c1_elab_bulkdock_input,openbind_a71ev2a_c1_elab_chemspace_filtered_scored

>  <inchikey>  (306) 
WMPMKDVSPIZPCW-UHFFFAOYSA-N

>  <scratch_subdir>  (306) 
/opt/xchem-fragalysis-2/maxwin/BulkDock/SCRATCH/601502/WMPMKDVSPIZPCW-UHFFFAOYSA-N-P126-P126-P183-601502

>  <smina_score_min>  (306) 
-4.31

>  <energy_score>  (306) 
-16.493409

>  <Energy>  (306) 
185.542645

>  <fragmenstein_outcome>  (306) 
acceptable

>  <alias>  (306) 
WMPMKDVSPIZPCW-UHFFFAOYSA-N-P126-P126-P183-601502

>  <HIPPO Pose ID>  (306) 
503488

>  <exports>  (306) 
['/opt/xchem-fragalysis-2/maxwin/openbind-hippo/a71ev2a/cycle_01/syndirella/elabs/openbind_a71ev2a_c1_elab_chemspace_filtered.sdf', '/opt/xchem-fragalysis-2/maxwin/BulkDock/OUTPUTS/a71ev2a_c1_elab_bulkdock_input_1GFT2LV.sdf', '/opt/xchem-fragalysis-2/maxwin/openbind-hippo/a71ev2a/cycle_01/syndirella/elabs/ASAP-0031281-001_elabs.sdf']

>  <HIPPO Compound ID>  (306) 
289879

>  <gnina_score>  (306) 
6.03

$$$$
GMVALWIXUGOHHG-UHFFFAOYSA-N-P126-P126-P183-601502
     RDKit          3D

 30 33  0  0  0  0  0  0  0  0999 V2000
    7.2236   19.3045   19.6675 C   0  0  0  0  0  0  0  0  0  0  0  0
    8.3156   18.3515   19.6937 C   0  0  0  0  0  0  0  0  0  0  0  0
    8.8399   17.8990   18.5069 C   0  0  0  0  0  0  0  0  0  0  0  0
    9.6692   16.8195   18.5298 C   0  0  0  0  0  0  0  0  0  0  0  0
    9.6968   16.0502   19.6748 C   0  0  0  0  0  0  0  0  0  0  0  0
   10.5351   14.9341   19.8903 C   0  0  0  0  0  0  0  0  0  0  0  0
   10.7457   14.4417   21.0891 N   0  0  0  0  0  0  0  0  0  0  0  0
   12.0458   14.1286   21.0276 C   0  0  0  0  0  0  0  0  0  0  0  0
   12.8032   13.8497   22.2314 C   0  0  0  0  0  0  0  0  0  0  0  0
   12.0960   14.1498   23.5174 C   0  0  0  0  0  0  0  0  0  0  0  0
   10.9955   13.3100   23.7556 N   0  0  0  0  0  0  0  0  0  0  0  0
    9.9217   13.3717   24.8219 C   0  0  0  0  0  0  0  0  0  0  0  0
    9.7173   14.1692   25.6400 O   0  0  0  0  0  0  0  0  0  0  0  0
    9.1917   12.1172   24.6981 C   0  0  0  0  0  0  0  0  0  0  0  0
    9.6424   11.1541   23.8709 N   0  0  0  0  0  0  0  0  0  0  0  0
    8.8483   10.1091   24.1135 N   0  0  0  0  0  0  0  0  0  0  0  0
    9.1059    8.8963   23.3750 C   0  0  0  0  0  0  0  0  0  0  0  0
    7.8885   10.3787   25.0609 C   0  0  0  0  0  0  0  0  0  0  0  0
    6.8827    9.6125   25.6391 C   0  0  0  0  0  0  0  0  0  0  0  0
    6.0295   10.2132   26.5673 C   0  0  0  0  0  0  0  0  0  0  0  0
    6.1918   11.5564   26.9070 C   0  0  0  0  0  0  0  0  0  0  0  0
    5.2824   12.1612   27.8786 N   0  0  0  0  0  0  0  0  0  0  0  0
    5.7166   13.1000   28.5605 O   0  0  0  0  0  0  0  0  0  0  0  0
    4.1465   11.6746   27.9823 O   0  0  0  0  0  0  0  0  0  0  0  0
    7.2168   12.3269   26.3564 C   0  0  0  0  0  0  0  0  0  0  0  0
    8.0631   11.7115   25.4192 C   0  0  0  0  0  0  0  0  0  0  0  0
   12.4611   14.1531   19.7282 C   0  0  0  0  0  0  0  0  0  0  0  0
   11.4810   14.6731   18.9634 O   0  0  0  0  0  0  0  0  0  0  0  0
    9.0545   16.4565   20.8297 C   0  0  0  0  0  0  0  0  0  0  0  0
    8.5084   17.6907   20.8848 C   0  0  0  0  0  0  0  0  0  0  0  0
  1  2  1  0
  2  3  2  0
  3  4  1  0
  4  5  2  0
  5  6  1  0
  6  7  2  0
  7  8  1  0
  8  9  1  0
  9 10  1  0
 10 11  1  0
 11 12  1  0
 12 13  2  0
 12 14  1  0
 14 15  2  0
 15 16  1  0
 16 17  1  0
 16 18  1  0
 18 19  2  0
 19 20  1  0
 20 21  2  0
 21 22  1  0
 22 23  2  0
 22 24  1  0
 21 25  1  0
 25 26  2  0
  8 27  2  0
 27 28  1  0
  5 29  1  0
 29 30  2  0
 30  2  1  0
 28  6  1  0
 26 14  1  0
 26 18  1  0
M  CHG  2  22   1  24  -1
M  END
>  <distance_score>  (307) 
1.445808

>  <smiles>  (307) 
Cc1ccc(-c2nc(CCNC(=O)c3nn(C)c4ccc([N+](=O)[O-])cc34)co2)cc1

>  <fragmenstein_error>  (307) 


>  <fragmenstein_runtime>  (307) 
7.665058

>  <gnina_score_min>  (307) 
6.041

>  <orig_smiles>  (307) 
Cc1ccc(-c2nc(CCNC(=O)c3nn(C)c4ccc([N+](=O)[O-])cc34)co2)cc1

>  <fragmenstein_mode>  (307) 
expansion

>  <rmsd(smina/fragmenstein)>  (307) 
1.375

>  <inspiration_score>  (307) 
None

>  <name>  (307) 
GMVALWIXUGOHHG-UHFFFAOYSA-N-P126-P126-P183-601502

>  <ref_pdb>  (307) 
A0514a

>  <ref_mols>  (307) 
A2290a,A3436a

>  <subsites>  (307) 
None

>  <tags>  (307) 
openbind_a71ev2a_c1_elabs_filtered,fragmenstein_placed,a71ev2a_c1_elab_bulkdock_input,openbind_a71ev2a_c1_elab_chemspace_filtered_scored

>  <inchikey>  (307) 
GMVALWIXUGOHHG-UHFFFAOYSA-N

>  <scratch_subdir>  (307) 
/opt/xchem-fragalysis-2/maxwin/BulkDock/SCRATCH/601502/GMVALWIXUGOHHG-UHFFFAOYSA-N-P126-P126-P183-601502

>  <smina_score_min>  (307) 
-4.569

>  <energy_score>  (307) 
-5.730691

>  <Energy>  (307) 
168.357349

>  <fragmenstein_outcome>  (307) 
too moved

>  <alias>  (307) 
GMVALWIXUGOHHG-UHFFFAOYSA-N-P126-P126-P183-601502

>  <HIPPO Pose ID>  (307) 
503502

>  <exports>  (307) 
['/opt/xchem-fragalysis-2/maxwin/openbind-hippo/a71ev2a/cycle_01/bulkdock/openbind_a71ev2a_c1_elab_chemspace.sdf', '/opt/xchem-fragalysis-2/maxwin/openbind-hippo/a71ev2a/cycle_01/syndirella/elabs/openbind_a71ev2a_c1_elab_chemspace_filtered.sdf', '/opt/xchem-fragalysis-2/maxwin/openbind-hippo/a71ev2a/cycle_01/syndirella/elabs/ASAP-0031281-001_elabs.sdf']

>  <HIPPO Compound ID>  (307) 
289886

>  <gnina_score>  (307) 
6.045

$$$$
IKFAMCKKRXRBRT-UHFFFAOYSA-N-P126-P126-P183-601502
     RDKit          3D

 30 33  0  0  0  0  0  0  0  0999 V2000
   10.1519   14.1245   25.4258 O   0  0  0  0  0  0  0  0  0  0  0  0
   10.3189   13.3362   24.5882 C   0  0  0  0  0  0  0  0  0  0  0  0
   11.2904   13.3305   23.4173 N   0  0  0  0  0  0  0  0  0  0  0  0
   12.3204   14.2327   23.0748 C   0  0  0  0  0  0  0  0  0  0  0  0
   12.7005   14.1423   21.6300 C   0  0  0  0  0  0  0  0  0  0  0  0
   11.6722   14.5846   20.7058 C   0  0  0  0  0  0  0  0  0  0  0  0
   11.6799   14.4195   19.3496 C   0  0  0  0  0  0  0  0  0  0  0  0
   10.6361   15.0897   18.8591 O   0  0  0  0  0  0  0  0  0  0  0  0
   10.1116   15.7120   19.9363 C   0  0  0  0  0  0  0  0  0  0  0  0
    9.3231   16.8480   19.6077 C   0  0  0  0  0  0  0  0  0  0  0  0
    8.8297   17.6517   20.6149 C   0  0  0  0  0  0  0  0  0  0  0  0
    8.0842   18.7508   20.3079 C   0  0  0  0  0  0  0  0  0  0  0  0
    7.6964   18.9242   19.0167 C   0  0  0  0  0  0  0  0  0  0  0  0
    6.7813   19.8365   18.7385 F   0  0  0  0  0  0  0  0  0  0  0  0
    8.2130   18.1741   17.9912 C   0  0  0  0  0  0  0  0  0  0  0  0
    9.0887   17.1752   18.2816 C   0  0  0  0  0  0  0  0  0  0  0  0
   10.6168   15.3557   21.0931 N   0  0  0  0  0  0  0  0  0  0  0  0
    9.5964   12.0727   24.4899 C   0  0  0  0  0  0  0  0  0  0  0  0
   10.0511   11.1250   23.6511 N   0  0  0  0  0  0  0  0  0  0  0  0
    9.2609   10.0528   23.8753 N   0  0  0  0  0  0  0  0  0  0  0  0
    9.4832    8.8346   23.0784 C   0  0  0  0  0  0  0  0  0  0  0  0
   10.4136    8.0133   23.6113 F   0  0  0  0  0  0  0  0  0  0  0  0
    8.3508    8.1262   22.9400 F   0  0  0  0  0  0  0  0  0  0  0  0
    9.9363    9.1326   21.8360 F   0  0  0  0  0  0  0  0  0  0  0  0
    8.3022   10.3174   24.8376 C   0  0  0  0  0  0  0  0  0  0  0  0
    7.3042    9.5458   25.4263 C   0  0  0  0  0  0  0  0  0  0  0  0
    6.4522   10.1431   26.3614 C   0  0  0  0  0  0  0  0  0  0  0  0
    6.5929   11.4807   26.7092 C   0  0  0  0  0  0  0  0  0  0  0  0
    7.6065   12.2478   26.1411 C   0  0  0  0  0  0  0  0  0  0  0  0
    8.4684   11.6503   25.2048 C   0  0  0  0  0  0  0  0  0  0  0  0
  1  2  2  0
  2  3  1  0
  3  4  1  0
  4  5  1  0
  5  6  1  0
  6  7  2  0
  7  8  1  0
  8  9  1  0
  9 10  1  0
 10 11  2  0
 11 12  1  0
 12 13  2  0
 13 14  1  0
 13 15  1  0
 15 16  2  0
  9 17  2  0
  2 18  1  0
 18 19  2  0
 19 20  1  0
 20 21  1  0
 21 22  1  0
 21 23  1  0
 21 24  1  0
 20 25  1  0
 25 26  2  0
 26 27  1  0
 27 28  2  0
 28 29  1  0
 29 30  2  0
 17  6  1  0
 30 18  1  0
 16 10  1  0
 30 25  1  0
M  END
>  <distance_score>  (308) 
0.939908

>  <smiles>  (308) 
O=C(NCCc1coc(-c2ccc(F)cc2)n1)c1nn(C(F)(F)F)c2ccccc12

>  <fragmenstein_error>  (308) 


>  <fragmenstein_runtime>  (308) 
6.643048

>  <gnina_score_min>  (308) 
6.294

>  <orig_smiles>  (308) 
O=C(NCCc1coc(-c2ccc(F)cc2)n1)c1nn(C(F)(F)F)c2ccccc12

>  <fragmenstein_mode>  (308) 
expansion

>  <rmsd(smina/fragmenstein)>  (308) 
1.067

>  <inspiration_score>  (308) 
None

>  <name>  (308) 
IKFAMCKKRXRBRT-UHFFFAOYSA-N-P126-P126-P183-601502

>  <ref_pdb>  (308) 
A0514a

>  <ref_mols>  (308) 
A2290a,A3436a

>  <subsites>  (308) 
None

>  <tags>  (308) 
fragmenstein_placed,openbind_a71ev2a_c1_elabs_filtered,BulkDock Fragalysis export,a71ev2a_c1_elab_bulkdock_input,openbind_a71ev2a_c1_elab_chemspace_filtered_scored

>  <inchikey>  (308) 
IKFAMCKKRXRBRT-UHFFFAOYSA-N

>  <scratch_subdir>  (308) 
/opt/xchem-fragalysis-2/maxwin/BulkDock/SCRATCH/601502/IKFAMCKKRXRBRT-UHFFFAOYSA-N-P126-P126-P183-601502

>  <smina_score_min>  (308) 
-3.52

>  <energy_score>  (308) 
-13.841781

>  <Energy>  (308) 
183.688755

>  <fragmenstein_outcome>  (308) 
acceptable

>  <alias>  (308) 
IKFAMCKKRXRBRT-UHFFFAOYSA-N-P126-P126-P183-601502

>  <HIPPO Pose ID>  (308) 
503512

>  <exports>  (308) 
['/opt/xchem-fragalysis-2/maxwin/openbind-hippo/a71ev2a/cycle_01/syndirella/elabs/openbind_a71ev2a_c1_elab_chemspace_filtered.sdf', '/opt/xchem-fragalysis-2/maxwin/BulkDock/OUTPUTS/a71ev2a_c1_elab_bulkdock_input_1GFT2LV.sdf', '/opt/xchem-fragalysis-2/maxwin/openbind-hippo/a71ev2a/cycle_01/syndirella/elabs/ASAP-0031281-001_elabs.sdf']

>  <HIPPO Compound ID>  (308) 
289891

>  <gnina_score>  (308) 
6.044

$$$$
HTTSBEHOPRZHSA-UHFFFAOYSA-N-P126-P126-P183-601502
     RDKit          3D

 30 33  0  0  0  0  0  0  0  0999 V2000
   14.4196   12.0450   24.9628 C   0  0  0  0  0  0  0  0  0  0  0  0
   13.5845   12.6207   23.9399 O   0  0  0  0  0  0  0  0  0  0  0  0
   12.6022   13.4629   24.3199 C   0  0  0  0  0  0  0  0  0  0  0  0
   12.3585   13.7479   25.4966 O   0  0  0  0  0  0  0  0  0  0  0  0
   11.6978   13.9921   23.2037 C   0  0  1  0  0  0  0  0  0  0  0  0
   12.0848   13.9397   21.7408 C   0  0  0  0  0  0  0  0  0  0  0  0
   11.0978   14.6944   20.9033 C   0  0  0  0  0  0  0  0  0  0  0  0
   10.9520   14.7809   19.5385 C   0  0  0  0  0  0  0  0  0  0  0  0
    9.9576   15.6774   19.2691 O   0  0  0  0  0  0  0  0  0  0  0  0
    9.5577   16.1049   20.4900 C   0  0  0  0  0  0  0  0  0  0  0  0
   10.1692   15.5245   21.4957 N   0  0  0  0  0  0  0  0  0  0  0  0
   10.4947   13.3078   23.5861 N   0  0  0  0  0  0  0  0  0  0  0  0
   10.2232   11.8211   23.7939 C   0  0  0  0  0  0  0  0  0  0  0  0
   10.9050   10.9006   23.6158 O   0  0  0  0  0  0  0  0  0  0  0  0
    8.8996   11.6221   24.4067 C   0  0  0  0  0  0  0  0  0  0  0  0
    8.3213   10.4126   24.4012 N   0  0  0  0  0  0  0  0  0  0  0  0
    7.2736   10.5419   25.2294 N   0  0  0  0  0  0  0  0  0  0  0  0
    6.6339    9.3277   25.7044 C   0  0  0  0  0  0  0  0  0  0  0  0
    5.6914    9.4187   26.9090 C   0  0  0  0  0  0  0  0  0  0  0  0
    4.4077    8.8434   26.8256 C   0  0  0  0  0  0  0  0  0  0  0  0
    3.5388    8.8338   27.9202 C   0  0  0  0  0  0  0  0  0  0  0  0
    3.9346    9.4011   29.1262 C   0  0  0  0  0  0  0  0  0  0  0  0
    5.2018    9.9637   29.2396 C   0  0  0  0  0  0  0  0  0  0  0  0
    6.0733    9.9587   28.1462 C   0  0  0  0  0  0  0  0  0  0  0  0
    7.0435   11.8211   25.6258 C   0  0  0  0  0  0  0  0  0  0  0  0
    5.9849   12.4126   26.3140 C   0  0  0  0  0  0  0  0  0  0  0  0
    6.1663   13.6964   26.7994 C   0  0  0  0  0  0  0  0  0  0  0  0
    7.3585   14.3691   26.5869 C   0  0  0  0  0  0  0  0  0  0  0  0
    8.3759   13.7957   25.8224 C   0  0  0  0  0  0  0  0  0  0  0  0
    8.1870   12.5143   25.2678 C   0  0  0  0  0  0  0  0  0  0  0  0
  1  2  1  0
  2  3  1  0
  3  4  2  0
  3  5  1  0
  5  6  1  6
  6  7  1  0
  7  8  2  0
  8  9  1  0
  9 10  1  0
 10 11  2  0
  5 12  1  0
 12 13  1  0
 13 14  2  0
 13 15  1  0
 15 16  2  0
 16 17  1  0
 17 18  1  0
 18 19  1  0
 19 20  2  0
 20 21  1  0
 21 22  2  0
 22 23  1  0
 23 24  2  0
 17 25  1  0
 25 26  2  0
 26 27  1  0
 27 28  2  0
 28 29  1  0
 29 30  2  0
 11  7  1  0
 30 15  1  0
 24 19  1  0
 30 25  1  0
M  END
>  <distance_score>  (309) 
1.945645

>  <smiles>  (309) 
COC(=O)C(Cc1cocn1)NC(=O)c1nn(Cc2ccccc2)c2ccccc12

>  <fragmenstein_error>  (309) 


>  <fragmenstein_runtime>  (309) 
23.199713

>  <gnina_score_min>  (309) 
5.597

>  <orig_smiles>  (309) 
COC(=O)C(Cc1cocn1)NC(=O)c1nn(Cc2ccccc2)c2ccccc12

>  <fragmenstein_mode>  (309) 
expansion

>  <rmsd(smina/fragmenstein)>  (309) 
1.074

>  <inspiration_score>  (309) 
None

>  <name>  (309) 
HTTSBEHOPRZHSA-UHFFFAOYSA-N-P126-P126-P183-601502

>  <ref_pdb>  (309) 
A0514a

>  <ref_mols>  (309) 
A2290a,A3436a

>  <subsites>  (309) 
None

>  <tags>  (309) 
openbind_a71ev2a_c1_elabs_filtered,fragmenstein_placed,a71ev2a_c1_elab_bulkdock_input,openbind_a71ev2a_c1_elab_chemspace_filtered_scored

>  <inchikey>  (309) 
HTTSBEHOPRZHSA-UHFFFAOYSA-N

>  <scratch_subdir>  (309) 
/opt/xchem-fragalysis-2/maxwin/BulkDock/SCRATCH/601502/HTTSBEHOPRZHSA-UHFFFAOYSA-N-P126-P126-P183-601502

>  <smina_score_min>  (309) 
-6.158

>  <energy_score>  (309) 
-14.28737

>  <Energy>  (309) 
158.864274

>  <fragmenstein_outcome>  (309) 
too moved

>  <alias>  (309) 
HTTSBEHOPRZHSA-UHFFFAOYSA-N-P126-P126-P183-601502

>  <HIPPO Pose ID>  (309) 
503520

>  <exports>  (309) 
['/opt/xchem-fragalysis-2/maxwin/openbind-hippo/a71ev2a/cycle_01/bulkdock/openbind_a71ev2a_c1_elab_chemspace.sdf', '/opt/xchem-fragalysis-2/maxwin/openbind-hippo/a71ev2a/cycle_01/syndirella/elabs/openbind_a71ev2a_c1_elab_chemspace_filtered.sdf', '/opt/xchem-fragalysis-2/maxwin/openbind-hippo/a71ev2a/cycle_01/syndirella/elabs/ASAP-0031281-001_elabs.sdf']

>  <HIPPO Compound ID>  (309) 
289895

>  <gnina_score>  (309) 
5.855

$$$$
XKVOTHLLZIIZSH-UHFFFAOYSA-N-P180-P141-P180-601502
     RDKit          3D

 23 26  0  0  0  0  0  0  0  0999 V2000
    9.4946    9.5454   24.3502 C   0  0  0  0  0  0  0  0  0  0  0  0
    9.1876   10.8645   24.8443 N   0  0  0  0  0  0  0  0  0  0  0  0
   10.0983   11.8231   24.6681 N   0  0  0  0  0  0  0  0  0  0  0  0
    9.5068   12.9395   25.1373 C   0  0  0  0  0  0  0  0  0  0  0  0
    9.9832   14.2833   24.7966 C   0  0  0  0  0  0  0  0  0  0  0  0
    9.6229   15.2598   25.3431 O   0  0  0  0  0  0  0  0  0  0  0  0
   10.8765   14.1121   23.6168 N   0  0  0  0  0  0  0  0  0  0  0  0
   11.6760   15.1322   22.8194 C   0  0  0  0  0  0  0  0  0  0  0  0
   11.3738   14.3161   21.6132 C   0  0  0  0  0  0  0  0  0  0  0  0
   11.2197   14.9666   20.3397 N   0  0  0  0  0  0  0  0  0  0  0  0
   11.8817   14.4576   19.2984 N   0  0  0  0  0  0  0  0  0  0  0  0
   11.2765   15.0672   18.2921 C   0  0  0  0  0  0  0  0  0  0  0  0
   10.2852   15.9366   18.6217 N   0  0  0  0  0  0  0  0  0  0  0  0
   10.2867   15.8843   19.9297 C   0  0  0  0  0  0  0  0  0  0  0  0
    9.2252   17.0900   20.9473 Br  0  0  0  0  0  0  0  0  0  0  0  0
   10.0817   14.1127   22.3080 C   0  0  0  0  0  0  0  0  0  0  0  0
    8.2345   12.6587   25.6891 C   0  0  0  0  0  0  0  0  0  0  0  0
    7.2075   13.4213   26.2763 C   0  0  0  0  0  0  0  0  0  0  0  0
    6.0728   12.7671   26.7360 C   0  0  0  0  0  0  0  0  0  0  0  0
    5.1144   13.4656   27.3579 F   0  0  0  0  0  0  0  0  0  0  0  0
    5.9247   11.4025   26.5847 C   0  0  0  0  0  0  0  0  0  0  0  0
    6.8980   10.6552   25.9212 C   0  0  0  0  0  0  0  0  0  0  0  0
    8.0567   11.2951   25.4889 C   0  0  0  0  0  0  0  0  0  0  0  0
  1  2  1  0
  2  3  1  0
  3  4  2  0
  4  5  1  0
  5  6  2  0
  5  7  1  0
  7  8  1  0
  8  9  1  0
  9 10  1  0
 10 11  1  0
 11 12  2  0
 12 13  1  0
 13 14  2  0
 14 15  1  0
  9 16  1  0
  4 17  1  0
 17 18  2  0
 18 19  1  0
 19 20  1  0
 19 21  2  0
 21 22  1  0
 22 23  2  0
 23  2  1  0
 16  7  1  0
 23 17  1  0
 14 10  1  0
M  END
>  <distance_score>  (310) 
1.112455

>  <smiles>  (310) 
Cn1nc(C(=O)N2CC(n3ncnc3Br)C2)c2cc(F)ccc21

>  <fragmenstein_error>  (310) 


>  <fragmenstein_runtime>  (310) 
3.702569

>  <gnina_score_min>  (310) 
6.053

>  <orig_smiles>  (310) 
Cn1nc(C(=O)N2CC(n3ncnc3Br)C2)c2cc(F)ccc21

>  <fragmenstein_mode>  (310) 
expansion

>  <rmsd(smina/fragmenstein)>  (310) 
0.644

>  <inspiration_score>  (310) 
None

>  <name>  (310) 
XKVOTHLLZIIZSH-UHFFFAOYSA-N-P180-P141-P180-601502

>  <ref_pdb>  (310) 
A0514a

>  <ref_mols>  (310) 
A3417a,A3176a

>  <subsites>  (310) 
None

>  <tags>  (310) 
openbind_a71ev2a_c1_elabs_filtered,fragmenstein_placed,a71ev2a_c1_elab_bulkdock_input,openbind_a71ev2a_c1_elab_chemspace_filtered_scored

>  <inchikey>  (310) 
XKVOTHLLZIIZSH-UHFFFAOYSA-N

>  <scratch_subdir>  (310) 
/opt/xchem-fragalysis-2/maxwin/BulkDock/SCRATCH/601502/XKVOTHLLZIIZSH-UHFFFAOYSA-N-P180-P141-P180-601502

>  <smina_score_min>  (310) 
-4.254

>  <energy_score>  (310) 
-33.529902

>  <Energy>  (310) 
98.020922

>  <fragmenstein_outcome>  (310) 
too moved

>  <alias>  (310) 
XKVOTHLLZIIZSH-UHFFFAOYSA-N-P180-P141-P180-601502

>  <HIPPO Pose ID>  (310) 
503541

>  <exports>  (310) 
['/opt/xchem-fragalysis-2/maxwin/openbind-hippo/a71ev2a/cycle_01/bulkdock/openbind_a71ev2a_c1_elab_chemspace.sdf', '/opt/xchem-fragalysis-2/maxwin/openbind-hippo/a71ev2a/cycle_01/syndirella/elabs/openbind_a71ev2a_c1_elab_chemspace_filtered.sdf']

>  <HIPPO Compound ID>  (310) 
299798

>  <gnina_score>  (310) 
5.802

$$$$
GKWXXOWHCNUEFJ-UHFFFAOYSA-N-P141-P141-P180-601502
     RDKit          3D

 23 25  0  0  0  0  0  0  0  0999 V2000
    9.2117    9.1238   23.1689 C   0  0  0  0  0  0  0  0  0  0  0  0
    8.8849   10.4150   23.7312 N   0  0  0  0  0  0  0  0  0  0  0  0
    9.6384   11.4749   23.3895 N   0  0  0  0  0  0  0  0  0  0  0  0
    9.1389   12.4940   24.1178 C   0  0  0  0  0  0  0  0  0  0  0  0
    9.7987   13.8152   24.1134 C   0  0  0  0  0  0  0  0  0  0  0  0
    9.5230   14.6405   24.8876 O   0  0  0  0  0  0  0  0  0  0  0  0
   10.8682   13.8001   23.0144 N   0  0  0  0  0  0  0  0  0  0  0  0
   11.8894   14.7569   22.6931 C   0  0  0  0  0  0  0  0  0  0  0  0
   12.1989   14.8315   21.2104 C   0  0  0  0  0  0  0  0  0  0  0  0
   11.1370   15.3579   20.3912 N   0  0  0  0  0  0  0  0  0  0  0  0
   10.9423   15.0997   19.0761 C   0  0  0  0  0  0  0  0  0  0  0  0
   10.0511   15.9315   18.6005 N   0  0  0  0  0  0  0  0  0  0  0  0
    9.7989   16.7602   19.6486 C   0  0  0  0  0  0  0  0  0  0  0  0
    9.0940   17.9932   19.4587 C   0  0  0  0  0  0  0  0  0  0  0  0
    8.5735   18.9975   19.1930 N   0  0  0  0  0  0  0  0  0  0  0  0
   10.3829   16.3927   20.7956 N   0  0  0  0  0  0  0  0  0  0  0  0
    8.0193   12.0804   24.8868 C   0  0  0  0  0  0  0  0  0  0  0  0
    7.1267   12.7006   25.7824 C   0  0  0  0  0  0  0  0  0  0  0  0
    6.1751   11.9132   26.4262 C   0  0  0  0  0  0  0  0  0  0  0  0
    5.3422   12.4784   27.3107 F   0  0  0  0  0  0  0  0  0  0  0  0
    6.0937   10.5464   26.2022 C   0  0  0  0  0  0  0  0  0  0  0  0
    6.9493    9.9235   25.2914 C   0  0  0  0  0  0  0  0  0  0  0  0
    7.9056   10.7125   24.6459 C   0  0  0  0  0  0  0  0  0  0  0  0
  1  2  1  0
  2  3  1  0
  3  4  2  0
  4  5  1  0
  5  6  2  0
  5  7  1  0
  7  8  1  0
  8  9  1  0
  9 10  1  0
 10 11  1  0
 11 12  2  0
 12 13  1  0
 13 14  1  0
 14 15  3  0
 13 16  2  0
  4 17  1  0
 17 18  2  0
 18 19  1  0
 19 20  1  0
 19 21  2  0
 21 22  1  0
 22 23  2  0
 23  2  1  0
 16 10  1  0
 23 17  1  0
M  END
>  <distance_score>  (311) 
0.632166

>  <smiles>  (311) 
Cn1nc(C(=O)NCCn2cnc(C#N)n2)c2cc(F)ccc21

>  <fragmenstein_error>  (311) 


>  <fragmenstein_runtime>  (311) 
2.843349

>  <gnina_score_min>  (311) 
6.279

>  <orig_smiles>  (311) 
Cn1nc(C(=O)NCCn2cnc(C#N)n2)c2cc(F)ccc21

>  <fragmenstein_mode>  (311) 
expansion

>  <rmsd(smina/fragmenstein)>  (311) 
0.37

>  <inspiration_score>  (311) 
None

>  <name>  (311) 
GKWXXOWHCNUEFJ-UHFFFAOYSA-N-P141-P141-P180-601502

>  <ref_pdb>  (311) 
A0514a

>  <ref_mols>  (311) 
A3417a,A3176a

>  <subsites>  (311) 
None

>  <tags>  (311) 
fragmenstein_placed,openbind_a71ev2a_c1_elabs_filtered,BulkDock Fragalysis export,a71ev2a_c1_elab_bulkdock_input,openbind_a71ev2a_c1_elab_chemspace_filtered_scored

>  <inchikey>  (311) 
GKWXXOWHCNUEFJ-UHFFFAOYSA-N

>  <scratch_subdir>  (311) 
/opt/xchem-fragalysis-2/maxwin/BulkDock/SCRATCH/601502/GKWXXOWHCNUEFJ-UHFFFAOYSA-N-P141-P141-P180-601502

>  <smina_score_min>  (311) 
-5.78

>  <energy_score>  (311) 
-7.451645

>  <Energy>  (311) 
115.046662

>  <fragmenstein_outcome>  (311) 
acceptable

>  <alias>  (311) 
GKWXXOWHCNUEFJ-UHFFFAOYSA-N-P141-P141-P180-601502

>  <HIPPO Pose ID>  (311) 
503550

>  <exports>  (311) 
['/opt/xchem-fragalysis-2/maxwin/openbind-hippo/a71ev2a/cycle_01/bulkdock/openbind_a71ev2a_c1_elab_chemspace.sdf', '/opt/xchem-fragalysis-2/maxwin/openbind-hippo/a71ev2a/cycle_01/syndirella/elabs/openbind_a71ev2a_c1_elab_chemspace_filtered.sdf', '/opt/xchem-fragalysis-2/maxwin/BulkDock/OUTPUTS/a71ev2a_c1_elab_bulkdock_input_1GFT2LV.sdf']

>  <HIPPO Compound ID>  (311) 
299803

>  <gnina_score>  (311) 
6.182

$$$$
SGWMMONGTDPZNP-UHFFFAOYSA-N-P141-P141-P180-601502
     RDKit          3D

 24 27  0  0  0  0  0  0  0  0999 V2000
    8.7923   18.4192   19.8731 C   0  0  0  0  0  0  0  0  0  0  0  0
    9.5666   17.1711   19.9695 C   0  0  0  0  0  0  0  0  0  0  0  0
   10.0728   16.5890   18.8554 N   0  0  0  0  0  0  0  0  0  0  0  0
   10.8559   15.6508   19.3331 C   0  0  0  0  0  0  0  0  0  0  0  0
   11.7031   14.7725   18.5285 C   0  0  0  0  0  0  0  0  0  0  0  0
   10.8171   15.6882   20.7029 N   0  0  0  0  0  0  0  0  0  0  0  0
   11.7408   14.9501   21.5644 C   0  0  0  0  0  0  0  0  0  0  0  0
   11.8180   15.1574   23.0255 C   0  0  0  0  0  0  0  0  0  0  0  0
   10.9139   14.0054   23.4205 N   0  0  0  0  0  0  0  0  0  0  0  0
    9.4404   13.9813   23.7669 C   0  0  0  0  0  0  0  0  0  0  0  0
    8.6355   14.8412   23.7336 O   0  0  0  0  0  0  0  0  0  0  0  0
    9.0331   12.5952   24.0958 C   0  0  0  0  0  0  0  0  0  0  0  0
    9.6484   11.5330   23.5399 N   0  0  0  0  0  0  0  0  0  0  0  0
    8.8932   10.4770   23.8753 N   0  0  0  0  0  0  0  0  0  0  0  0
    9.2397    9.1833   23.3295 C   0  0  0  0  0  0  0  0  0  0  0  0
    7.8828   10.7908   24.7488 C   0  0  0  0  0  0  0  0  0  0  0  0
    6.9269   10.0082   25.4027 C   0  0  0  0  0  0  0  0  0  0  0  0
    6.0350   10.6527   26.2612 C   0  0  0  0  0  0  0  0  0  0  0  0
    6.0602   12.0338   26.3984 C   0  0  0  0  0  0  0  0  0  0  0  0
    5.1808   12.6202   27.2225 F   0  0  0  0  0  0  0  0  0  0  0  0
    6.9854   12.8191   25.7139 C   0  0  0  0  0  0  0  0  0  0  0  0
    7.9349   12.1774   24.8961 C   0  0  0  0  0  0  0  0  0  0  0  0
   11.1484   13.6664   21.9379 C   0  0  0  0  0  0  0  0  0  0  0  0
    9.9049   16.5649   21.1123 N   0  0  0  0  0  0  0  0  0  0  0  0
  1  2  1  0
  2  3  1  0
  3  4  2  0
  4  5  1  0
  4  6  1  0
  6  7  1  0
  7  8  1  0
  8  9  1  0
  9 10  1  0
 10 11  2  0
 10 12  1  0
 12 13  2  0
 13 14  1  0
 14 15  1  0
 14 16  1  0
 16 17  2  0
 17 18  1  0
 18 19  2  0
 19 20  1  0
 19 21  1  0
 21 22  2  0
  9 23  1  0
  6 24  1  0
 24  2  2  0
 23  7  1  0
 22 12  1  0
 22 16  1  0
M  END
>  <distance_score>  (312) 
0.909977

>  <smiles>  (312) 
Cc1nc(C)n(C2CN(C(=O)c3nn(C)c4ccc(F)cc34)C2)n1

>  <fragmenstein_error>  (312) 


>  <fragmenstein_runtime>  (312) 
5.612002

>  <gnina_score_min>  (312) 
6.129

>  <orig_smiles>  (312) 
Cc1nc(C)n(C2CN(C(=O)c3nn(C)c4ccc(F)cc34)C2)n1

>  <fragmenstein_mode>  (312) 
expansion

>  <rmsd(smina/fragmenstein)>  (312) 
0.333

>  <inspiration_score>  (312) 
None

>  <name>  (312) 
SGWMMONGTDPZNP-UHFFFAOYSA-N-P141-P141-P180-601502

>  <ref_pdb>  (312) 
A0514a

>  <ref_mols>  (312) 
A3417a,A3176a

>  <subsites>  (312) 
None

>  <tags>  (312) 
fragmenstein_placed,openbind_a71ev2a_c1_elabs_filtered,BulkDock Fragalysis export,a71ev2a_c1_elab_bulkdock_input,openbind_a71ev2a_c1_elab_chemspace_filtered_scored

>  <inchikey>  (312) 
SGWMMONGTDPZNP-UHFFFAOYSA-N

>  <scratch_subdir>  (312) 
/opt/xchem-fragalysis-2/maxwin/BulkDock/SCRATCH/601502/SGWMMONGTDPZNP-UHFFFAOYSA-N-P141-P141-P180-601502

>  <smina_score_min>  (312) 
-5.762

>  <energy_score>  (312) 
-2.814944

>  <Energy>  (312) 
101.157526

>  <fragmenstein_outcome>  (312) 
acceptable

>  <alias>  (312) 
SGWMMONGTDPZNP-UHFFFAOYSA-N-P141-P141-P180-601502

>  <HIPPO Pose ID>  (312) 
503560

>  <exports>  (312) 
['/opt/xchem-fragalysis-2/maxwin/openbind-hippo/a71ev2a/cycle_01/bulkdock/openbind_a71ev2a_c1_elab_chemspace.sdf', '/opt/xchem-fragalysis-2/maxwin/openbind-hippo/a71ev2a/cycle_01/syndirella/elabs/openbind_a71ev2a_c1_elab_chemspace_filtered.sdf', '/opt/xchem-fragalysis-2/maxwin/BulkDock/OUTPUTS/a71ev2a_c1_elab_bulkdock_input_1GFT2LV.sdf']

>  <HIPPO Compound ID>  (312) 
299808

>  <gnina_score>  (312) 
6.075

$$$$
ZVXCLKSCZDSFCA-UHFFFAOYSA-N-P141-P141-P180-601502
     RDKit          3D

 24 26  0  0  0  0  0  0  0  0999 V2000
   12.8262   13.0913   24.4374 C   0  0  0  0  0  0  0  0  0  0  0  0
   12.5298   14.5548   24.1381 C   0  0  0  0  0  0  0  0  0  0  0  0
   12.1688   15.2178   25.4772 C   0  0  0  0  0  0  0  0  0  0  0  0
   11.4411   14.7761   23.0621 C   0  0  1  0  0  0  0  0  0  0  0  0
   11.9632   14.7305   21.6201 C   0  0  0  0  0  0  0  0  0  0  0  0
   11.0301   15.2704   20.6521 N   0  0  0  0  0  0  0  0  0  0  0  0
   11.1170   15.2143   19.2988 C   0  0  0  0  0  0  0  0  0  0  0  0
   10.2633   16.0660   18.7802 N   0  0  0  0  0  0  0  0  0  0  0  0
    9.6797   16.6360   19.8632 C   0  0  0  0  0  0  0  0  0  0  0  0
   10.0823   16.1400   21.0292 N   0  0  0  0  0  0  0  0  0  0  0  0
   10.4100   13.8151   23.2879 N   0  0  0  0  0  0  0  0  0  0  0  0
    9.1982   13.8604   24.2106 C   0  0  0  0  0  0  0  0  0  0  0  0
    8.7945   14.7178   24.8836 O   0  0  0  0  0  0  0  0  0  0  0  0
    8.6309   12.5106   24.1882 C   0  0  0  0  0  0  0  0  0  0  0  0
    9.2126   11.5421   23.4482 N   0  0  0  0  0  0  0  0  0  0  0  0
    8.5916   10.4167   23.8280 N   0  0  0  0  0  0  0  0  0  0  0  0
    9.0475    9.1601   23.2757 C   0  0  0  0  0  0  0  0  0  0  0  0
    7.6123   10.6349   24.7652 C   0  0  0  0  0  0  0  0  0  0  0  0
    6.7414    9.7773   25.4303 C   0  0  0  0  0  0  0  0  0  0  0  0
    5.8819   10.3222   26.3869 C   0  0  0  0  0  0  0  0  0  0  0  0
    5.8674   11.6868   26.6311 C   0  0  0  0  0  0  0  0  0  0  0  0
    5.0288   12.1746   27.5553 F   0  0  0  0  0  0  0  0  0  0  0  0
    6.7181   12.5504   25.9532 C   0  0  0  0  0  0  0  0  0  0  0  0
    7.6034   12.0051   25.0060 C   0  0  0  0  0  0  0  0  0  0  0  0
  1  2  1  0
  2  3  1  0
  2  4  1  0
  4  5  1  6
  5  6  1  0
  6  7  1  0
  7  8  2  0
  8  9  1  0
  9 10  2  0
  4 11  1  0
 11 12  1  0
 12 13  2  0
 12 14  1  0
 14 15  2  0
 15 16  1  0
 16 17  1  0
 16 18  1  0
 18 19  2  0
 19 20  1  0
 20 21  2  0
 21 22  1  0
 21 23  1  0
 23 24  2  0
 10  6  1  0
 24 14  1  0
 24 18  1  0
M  END
>  <distance_score>  (313) 
0.841356

>  <smiles>  (313) 
CC(C)C(Cn1cncn1)NC(=O)c1nn(C)c2ccc(F)cc12

>  <fragmenstein_error>  (313) 


>  <fragmenstein_runtime>  (313) 
5.673161

>  <gnina_score_min>  (313) 
5.939

>  <orig_smiles>  (313) 
CC(C)C(Cn1cncn1)NC(=O)c1nn(C)c2ccc(F)cc12

>  <fragmenstein_mode>  (313) 
expansion

>  <rmsd(smina/fragmenstein)>  (313) 
0.981

>  <inspiration_score>  (313) 
None

>  <name>  (313) 
ZVXCLKSCZDSFCA-UHFFFAOYSA-N-P141-P141-P180-601502

>  <ref_pdb>  (313) 
A0514a

>  <ref_mols>  (313) 
A3417a,A3176a

>  <subsites>  (313) 
None

>  <tags>  (313) 
fragmenstein_placed,openbind_a71ev2a_c1_elabs_filtered,BulkDock Fragalysis export,a71ev2a_c1_elab_bulkdock_input,openbind_a71ev2a_c1_elab_chemspace_filtered_scored

>  <inchikey>  (313) 
ZVXCLKSCZDSFCA-UHFFFAOYSA-N

>  <scratch_subdir>  (313) 
/opt/xchem-fragalysis-2/maxwin/BulkDock/SCRATCH/601502/ZVXCLKSCZDSFCA-UHFFFAOYSA-N-P141-P141-P180-601502

>  <smina_score_min>  (313) 
-5.722

>  <energy_score>  (313) 
-8.047845

>  <Energy>  (313) 
79.357316

>  <fragmenstein_outcome>  (313) 
acceptable

>  <alias>  (313) 
ZVXCLKSCZDSFCA-UHFFFAOYSA-N-P141-P141-P180-601502

>  <HIPPO Pose ID>  (313) 
503564

>  <exports>  (313) 
['/opt/xchem-fragalysis-2/maxwin/openbind-hippo/a71ev2a/cycle_01/bulkdock/openbind_a71ev2a_c1_elab_chemspace.sdf', '/opt/xchem-fragalysis-2/maxwin/openbind-hippo/a71ev2a/cycle_01/syndirella/elabs/openbind_a71ev2a_c1_elab_chemspace_filtered.sdf', '/opt/xchem-fragalysis-2/maxwin/BulkDock/OUTPUTS/a71ev2a_c1_elab_bulkdock_input_1GFT2LV.sdf']

>  <HIPPO Compound ID>  (313) 
299810

>  <gnina_score>  (313) 
6.225

$$$$
CUKCWYGWPWXVTR-UHFFFAOYSA-N-P141-P141-P180-601502
     RDKit          3D

 24 26  0  0  0  0  0  0  0  0999 V2000
    9.8896   16.6553   18.5613 C   0  0  0  0  0  0  0  0  0  0  0  0
   11.0975   16.0524   19.0713 N   0  0  0  0  0  0  0  0  0  0  0  0
   11.8344   15.3749   18.0265 C   0  0  0  0  0  0  0  0  0  0  0  0
   10.9118   15.2153   20.2369 C   0  0  0  0  0  0  0  0  0  0  0  0
   12.2932   14.7555   20.6877 C   0  0  0  0  0  0  0  0  0  0  0  0
   12.3937   14.7235   22.1094 N   0  0  0  0  0  0  0  0  0  0  0  0
   12.2031   15.7592   22.9564 C   0  0  0  0  0  0  0  0  0  0  0  0
   11.7462   15.3078   24.1006 N   0  0  0  0  0  0  0  0  0  0  0  0
   11.6567   13.9917   23.8183 C   0  0  0  0  0  0  0  0  0  0  0  0
   10.6127   13.2390   24.1150 N   0  0  0  0  0  0  0  0  0  0  0  0
    9.3737   13.5488   24.9308 C   0  0  0  0  0  0  0  0  0  0  0  0
    9.0927   14.4923   25.5462 O   0  0  0  0  0  0  0  0  0  0  0  0
    8.5620   12.3521   24.7679 C   0  0  0  0  0  0  0  0  0  0  0  0
    8.9908   11.3878   23.9237 N   0  0  0  0  0  0  0  0  0  0  0  0
    8.2464   10.3286   24.2309 N   0  0  0  0  0  0  0  0  0  0  0  0
    8.6744    9.0433   23.7314 C   0  0  0  0  0  0  0  0  0  0  0  0
    7.2691   10.6207   25.1491 C   0  0  0  0  0  0  0  0  0  0  0  0
    6.2950    9.8452   25.7619 C   0  0  0  0  0  0  0  0  0  0  0  0
    5.5263   10.4307   26.7694 C   0  0  0  0  0  0  0  0  0  0  0  0
    5.6515   11.7779   27.0678 C   0  0  0  0  0  0  0  0  0  0  0  0
    4.8779   12.3094   28.0236 F   0  0  0  0  0  0  0  0  0  0  0  0
    6.5880   12.5738   26.4255 C   0  0  0  0  0  0  0  0  0  0  0  0
    7.4227   11.9657   25.4752 C   0  0  0  0  0  0  0  0  0  0  0  0
   12.3591   13.5788   22.7734 N   0  0  0  0  0  0  0  0  0  0  0  0
  1  2  1  0
  2  3  1  0
  2  4  1  0
  4  5  1  0
  5  6  1  0
  6  7  1  0
  7  8  2  0
  8  9  1  0
  9 10  1  0
 10 11  1  0
 11 12  2  0
 11 13  1  0
 13 14  2  0
 14 15  1  0
 15 16  1  0
 15 17  1  0
 17 18  2  0
 18 19  1  0
 19 20  2  0
 20 21  1  0
 20 22  1  0
 22 23  2  0
  9 24  2  0
 24  6  1  0
 23 13  1  0
 23 17  1  0
M  END
>  <distance_score>  (314) 
1.872304

>  <smiles>  (314) 
CN(C)CCn1cnc(NC(=O)c2nn(C)c3ccc(F)cc23)n1

>  <fragmenstein_error>  (314) 


>  <fragmenstein_runtime>  (314) 
6.8383

>  <gnina_score_min>  (314) 
6.143

>  <orig_smiles>  (314) 
CN(C)CCn1cnc(NC(=O)c2nn(C)c3ccc(F)cc23)n1

>  <fragmenstein_mode>  (314) 
expansion

>  <rmsd(smina/fragmenstein)>  (314) 
1.354

>  <inspiration_score>  (314) 
None

>  <name>  (314) 
CUKCWYGWPWXVTR-UHFFFAOYSA-N-P141-P141-P180-601502

>  <ref_pdb>  (314) 
A0514a

>  <ref_mols>  (314) 
A3417a,A3176a

>  <subsites>  (314) 
None

>  <tags>  (314) 
openbind_a71ev2a_c1_elabs_filtered,fragmenstein_placed,a71ev2a_c1_elab_bulkdock_input,openbind_a71ev2a_c1_elab_chemspace_filtered_scored

>  <inchikey>  (314) 
CUKCWYGWPWXVTR-UHFFFAOYSA-N

>  <scratch_subdir>  (314) 
/opt/xchem-fragalysis-2/maxwin/BulkDock/SCRATCH/601502/CUKCWYGWPWXVTR-UHFFFAOYSA-N-P141-P141-P180-601502

>  <smina_score_min>  (314) 
-5.342

>  <energy_score>  (314) 
-24.606629

>  <Energy>  (314) 
52.508085

>  <fragmenstein_outcome>  (314) 
too moved

>  <alias>  (314) 
CUKCWYGWPWXVTR-UHFFFAOYSA-N-P141-P141-P180-601502

>  <HIPPO Pose ID>  (314) 
503568

>  <exports>  (314) 
['/opt/xchem-fragalysis-2/maxwin/openbind-hippo/a71ev2a/cycle_01/syndirella/elabs/openbind_a71ev2a_c1_elab_chemspace_filtered.sdf']

>  <HIPPO Compound ID>  (314) 
299812

>  <gnina_score>  (314) 
5.712

$$$$
OGUVBYNAJBMCLL-UHFFFAOYSA-N-P141-P141-P180-601502
     RDKit          3D

 24 27  0  0  0  0  0  0  0  0999 V2000
    9.1170    9.1486   23.2344 C   0  0  0  0  0  0  0  0  0  0  0  0
    8.6612   10.4025   23.7920 N   0  0  0  0  0  0  0  0  0  0  0  0
    9.2602   11.5369   23.3959 N   0  0  0  0  0  0  0  0  0  0  0  0
    8.6852   12.4948   24.1512 C   0  0  0  0  0  0  0  0  0  0  0  0
    9.1801   13.8718   24.1277 C   0  0  0  0  0  0  0  0  0  0  0  0
    8.8264   14.6708   24.8944 O   0  0  0  0  0  0  0  0  0  0  0  0
   10.2407   13.9507   23.0349 N   0  0  0  0  0  0  0  0  0  0  0  0
   11.1494   14.9799   22.7118 C   0  0  0  0  0  0  0  0  0  0  0  0
   11.3343   15.1672   21.2306 C   0  0  0  0  0  0  0  0  0  0  0  0
   10.3283   16.0241   20.5301 N   0  0  0  0  0  0  0  0  0  0  0  0
   10.2286   16.3110   19.1896 C   0  0  0  0  0  0  0  0  0  0  0  0
    9.4982   17.3891   19.0215 N   0  0  0  0  0  0  0  0  0  0  0  0
    9.0274   17.6054   20.2725 C   0  0  0  0  0  0  0  0  0  0  0  0
    9.3833   16.6958   21.1792 N   0  0  0  0  0  0  0  0  0  0  0  0
   12.7990   15.6389   21.1281 C   0  0  0  0  0  0  0  0  0  0  0  0
   12.8516   14.9020   19.7796 C   0  0  0  0  0  0  0  0  0  0  0  0
   11.7739   14.0234   20.3344 C   0  0  0  0  0  0  0  0  0  0  0  0
    7.6712   11.9773   24.9820 C   0  0  0  0  0  0  0  0  0  0  0  0
    6.7762   12.5160   25.9251 C   0  0  0  0  0  0  0  0  0  0  0  0
    5.9171   11.6493   26.5882 C   0  0  0  0  0  0  0  0  0  0  0  0
    5.0675   12.1322   27.5048 F   0  0  0  0  0  0  0  0  0  0  0  0
    5.9328   10.2871   26.3333 C   0  0  0  0  0  0  0  0  0  0  0  0
    6.8043    9.7483   25.3834 C   0  0  0  0  0  0  0  0  0  0  0  0
    7.6801   10.6104   24.7300 C   0  0  0  0  0  0  0  0  0  0  0  0
  1  2  1  0
  2  3  1  0
  3  4  2  0
  4  5  1  0
  5  6  2  0
  5  7  1  0
  7  8  1  0
  8  9  1  0
  9 10  1  0
 10 11  1  0
 11 12  2  0
 12 13  1  0
 13 14  2  0
  9 15  1  0
 15 16  1  0
 16 17  1  0
  4 18  1  0
 18 19  2  0
 19 20  1  0
 20 21  1  0
 20 22  2  0
 22 23  1  0
 23 24  2  0
 24  2  1  0
 17  9  1  0
 24 18  1  0
 14 10  1  0
M  END
>  <distance_score>  (315) 
1.034165

>  <smiles>  (315) 
Cn1nc(C(=O)NCC2(n3cncn3)CCC2)c2cc(F)ccc21

>  <fragmenstein_error>  (315) 


>  <fragmenstein_runtime>  (315) 
2.856638

>  <gnina_score_min>  (315) 
5.978

>  <orig_smiles>  (315) 
Cn1nc(C(=O)NCC2(n3cncn3)CCC2)c2cc(F)ccc21

>  <fragmenstein_mode>  (315) 
expansion

>  <rmsd(smina/fragmenstein)>  (315) 
0.631

>  <inspiration_score>  (315) 
None

>  <name>  (315) 
OGUVBYNAJBMCLL-UHFFFAOYSA-N-P141-P141-P180-601502

>  <ref_pdb>  (315) 
A0514a

>  <ref_mols>  (315) 
A3417a,A3176a

>  <subsites>  (315) 
None

>  <tags>  (315) 
openbind_a71ev2a_c1_elabs_filtered,fragmenstein_placed,a71ev2a_c1_elab_bulkdock_input,openbind_a71ev2a_c1_elab_chemspace_filtered_scored

>  <inchikey>  (315) 
OGUVBYNAJBMCLL-UHFFFAOYSA-N

>  <scratch_subdir>  (315) 
/opt/xchem-fragalysis-2/maxwin/BulkDock/SCRATCH/601502/OGUVBYNAJBMCLL-UHFFFAOYSA-N-P141-P141-P180-601502

>  <smina_score_min>  (315) 
-3.581

>  <energy_score>  (315) 
-7.869021

>  <Energy>  (315) 
97.863691

>  <fragmenstein_outcome>  (315) 
too moved

>  <alias>  (315) 
OGUVBYNAJBMCLL-UHFFFAOYSA-N-P141-P141-P180-601502

>  <HIPPO Pose ID>  (315) 
503570

>  <exports>  (315) 
['/opt/xchem-fragalysis-2/maxwin/openbind-hippo/a71ev2a/cycle_01/bulkdock/openbind_a71ev2a_c1_elab_chemspace.sdf', '/opt/xchem-fragalysis-2/maxwin/openbind-hippo/a71ev2a/cycle_01/syndirella/elabs/openbind_a71ev2a_c1_elab_chemspace_filtered.sdf']

>  <HIPPO Compound ID>  (315) 
299813

>  <gnina_score>  (315) 
5.935

$$$$
VFTTWDVHDNVEKD-UHFFFAOYSA-N-P141-P141-P180-601502
     RDKit          3D

 25 27  0  0  0  0  0  0  0  0999 V2000
    9.1181    9.0568   23.2338 C   0  0  0  0  0  0  0  0  0  0  0  0
    8.7992   10.3561   23.7782 N   0  0  0  0  0  0  0  0  0  0  0  0
    9.5199   11.4075   23.3651 N   0  0  0  0  0  0  0  0  0  0  0  0
    9.0210   12.4533   24.0545 C   0  0  0  0  0  0  0  0  0  0  0  0
    9.5966   13.7949   23.8686 C   0  0  0  0  0  0  0  0  0  0  0  0
    9.2920   14.7089   24.5219 O   0  0  0  0  0  0  0  0  0  0  0  0
   10.5694   13.6970   22.6887 N   0  0  0  0  0  0  0  0  0  0  0  0
   11.3046   14.7188   21.9981 C   0  0  0  0  0  0  0  0  0  0  0  0
   10.9908   14.7268   20.4896 C   0  0  1  0  0  0  0  0  0  0  0  0
   10.3217   15.9237   20.0379 N   0  0  0  0  0  0  0  0  0  0  0  0
   10.3645   16.5775   18.8463 C   0  0  0  0  0  0  0  0  0  0  0  0
    9.6278   17.6632   18.9136 N   0  0  0  0  0  0  0  0  0  0  0  0
    9.0956   17.5873   20.1590 C   0  0  0  0  0  0  0  0  0  0  0  0
    9.4015   16.4802   20.8361 N   0  0  0  0  0  0  0  0  0  0  0  0
   12.2861   14.4920   19.7865 C   0  0  0  0  0  0  0  0  0  0  0  0
   12.2394   14.6331   18.4529 F   0  0  0  0  0  0  0  0  0  0  0  0
   12.7548   13.2424   19.9880 F   0  0  0  0  0  0  0  0  0  0  0  0
   13.2063   15.3285   20.2916 F   0  0  0  0  0  0  0  0  0  0  0  0
    7.9509   12.0591   24.8939 C   0  0  0  0  0  0  0  0  0  0  0  0
    7.0757   12.7097   25.7841 C   0  0  0  0  0  0  0  0  0  0  0  0
    6.1360   11.9441   26.4692 C   0  0  0  0  0  0  0  0  0  0  0  0
    5.3174   12.5373   27.3485 F   0  0  0  0  0  0  0  0  0  0  0  0
    6.0438   10.5722   26.2833 C   0  0  0  0  0  0  0  0  0  0  0  0
    6.8824    9.9199   25.3771 C   0  0  0  0  0  0  0  0  0  0  0  0
    7.8370   10.6830   24.7007 C   0  0  0  0  0  0  0  0  0  0  0  0
  1  2  1  0
  2  3  1  0
  3  4  2  0
  4  5  1  0
  5  6  2  0
  5  7  1  0
  7  8  1  0
  9  8  1  1
  9 10  1  0
 10 11  1  0
 11 12  2  0
 12 13  1  0
 13 14  2  0
  9 15  1  0
 15 16  1  0
 15 17  1  0
 15 18  1  0
  4 19  1  0
 19 20  2  0
 20 21  1  0
 21 22  1  0
 21 23  2  0
 23 24  1  0
 24 25  2  0
 25  2  1  0
 14 10  1  0
 25 19  1  0
M  END
>  <distance_score>  (316) 
1.058025

>  <smiles>  (316) 
Cn1nc(C(=O)NCC(n2cncn2)C(F)(F)F)c2cc(F)ccc21

>  <fragmenstein_error>  (316) 


>  <fragmenstein_runtime>  (316) 
3.849052

>  <gnina_score_min>  (316) 
6.177

>  <orig_smiles>  (316) 
Cn1nc(C(=O)NCC(n2cncn2)C(F)(F)F)c2cc(F)ccc21

>  <fragmenstein_mode>  (316) 
expansion

>  <rmsd(smina/fragmenstein)>  (316) 
0.962

>  <inspiration_score>  (316) 
None

>  <name>  (316) 
VFTTWDVHDNVEKD-UHFFFAOYSA-N-P141-P141-P180-601502

>  <ref_pdb>  (316) 
A0514a

>  <ref_mols>  (316) 
A3417a,A3176a

>  <subsites>  (316) 
None

>  <tags>  (316) 
openbind_a71ev2a_c1_elabs_filtered,fragmenstein_placed,a71ev2a_c1_elab_bulkdock_input,openbind_a71ev2a_c1_elab_chemspace_filtered_scored

>  <inchikey>  (316) 
VFTTWDVHDNVEKD-UHFFFAOYSA-N

>  <scratch_subdir>  (316) 
/opt/xchem-fragalysis-2/maxwin/BulkDock/SCRATCH/601502/VFTTWDVHDNVEKD-UHFFFAOYSA-N-P141-P141-P180-601502

>  <smina_score_min>  (316) 
-7.108

>  <energy_score>  (316) 
-32.960919

>  <Energy>  (316) 
52.110926

>  <fragmenstein_outcome>  (316) 
too moved

>  <alias>  (316) 
VFTTWDVHDNVEKD-UHFFFAOYSA-N-P141-P141-P180-601502

>  <HIPPO Pose ID>  (316) 
503576

>  <exports>  (316) 
['/opt/xchem-fragalysis-2/maxwin/openbind-hippo/a71ev2a/cycle_01/bulkdock/openbind_a71ev2a_c1_elab_chemspace.sdf', '/opt/xchem-fragalysis-2/maxwin/openbind-hippo/a71ev2a/cycle_01/syndirella/elabs/openbind_a71ev2a_c1_elab_chemspace_filtered.sdf']

>  <HIPPO Compound ID>  (316) 
299816

>  <gnina_score>  (316) 
5.77

$$$$
UGXRHTOVWXZEJA-UHFFFAOYSA-N-P141-P141-P180-601502
     RDKit          3D

 26 29  0  0  0  0  0  0  0  0999 V2000
    8.9832   18.4987   18.4033 C   0  0  0  0  0  0  0  0  0  0  0  0
    8.3780   18.2781   19.6658 O   0  0  0  0  0  0  0  0  0  0  0  0
    8.7874   17.2427   20.4501 C   0  0  0  0  0  0  0  0  0  0  0  0
    8.1107   16.8190   21.3863 O   0  0  0  0  0  0  0  0  0  0  0  0
   10.0432   16.5787   20.1136 C   0  0  0  0  0  0  0  0  0  0  0  0
   10.2806   15.8448   18.9756 N   0  0  0  0  0  0  0  0  0  0  0  0
   11.2945   15.0784   19.3166 C   0  0  0  0  0  0  0  0  0  0  0  0
   11.5925   15.2953   20.6320 N   0  0  0  0  0  0  0  0  0  0  0  0
   11.7368   14.2149   21.6024 C   0  0  0  0  0  0  0  0  0  0  0  0
   11.9569   14.5956   23.0439 C   0  0  0  0  0  0  0  0  0  0  0  0
   10.9276   13.5485   23.4625 N   0  0  0  0  0  0  0  0  0  0  0  0
    9.8860   13.5765   24.5412 C   0  0  0  0  0  0  0  0  0  0  0  0
    9.5653   14.4454   25.2687 O   0  0  0  0  0  0  0  0  0  0  0  0
    9.1836   12.2806   24.5004 C   0  0  0  0  0  0  0  0  0  0  0  0
    9.6188   11.2727   23.7204 N   0  0  0  0  0  0  0  0  0  0  0  0
    8.7716   10.2662   23.9447 N   0  0  0  0  0  0  0  0  0  0  0  0
    9.0216    9.0150   23.2696 C   0  0  0  0  0  0  0  0  0  0  0  0
    7.7832   10.5849   24.8404 C   0  0  0  0  0  0  0  0  0  0  0  0
    6.7505    9.8422   25.4096 C   0  0  0  0  0  0  0  0  0  0  0  0
    5.9138   10.4789   26.3279 C   0  0  0  0  0  0  0  0  0  0  0  0
    6.0564   11.8313   26.5967 C   0  0  0  0  0  0  0  0  0  0  0  0
    5.2240   12.4139   27.4705 F   0  0  0  0  0  0  0  0  0  0  0  0
    7.0764   12.5798   26.0192 C   0  0  0  0  0  0  0  0  0  0  0  0
    7.9834   11.9260   25.1636 C   0  0  0  0  0  0  0  0  0  0  0  0
   10.3532   13.9657   22.1306 C   0  0  0  0  0  0  0  0  0  0  0  0
   10.9809   16.3989   21.0493 N   0  0  0  0  0  0  0  0  0  0  0  0
  1  2  1  0
  2  3  1  0
  3  4  2  0
  3  5  1  0
  5  6  1  0
  6  7  2  0
  7  8  1  0
  8  9  1  0
  9 10  1  0
 10 11  1  0
 11 12  1  0
 12 13  2  0
 12 14  1  0
 14 15  2  0
 15 16  1  0
 16 17  1  0
 16 18  1  0
 18 19  2  0
 19 20  1  0
 20 21  2  0
 21 22  1  0
 21 23  1  0
 23 24  2  0
 11 25  1  0
  8 26  1  0
 26  5  2  0
 25  9  1  0
 24 14  1  0
 24 18  1  0
M  END
>  <distance_score>  (317) 
0.837418

>  <smiles>  (317) 
COC(=O)c1ncn(C2CN(C(=O)c3nn(C)c4ccc(F)cc34)C2)n1

>  <fragmenstein_error>  (317) 


>  <fragmenstein_runtime>  (317) 
4.827649

>  <gnina_score_min>  (317) 
6.024

>  <orig_smiles>  (317) 
COC(=O)c1ncn(C2CN(C(=O)c3nn(C)c4ccc(F)cc34)C2)n1

>  <fragmenstein_mode>  (317) 
expansion

>  <rmsd(smina/fragmenstein)>  (317) 
0.638

>  <inspiration_score>  (317) 
None

>  <name>  (317) 
UGXRHTOVWXZEJA-UHFFFAOYSA-N-P141-P141-P180-601502

>  <ref_pdb>  (317) 
A0514a

>  <ref_mols>  (317) 
A3417a,A3176a

>  <subsites>  (317) 
None

>  <tags>  (317) 
fragmenstein_placed,openbind_a71ev2a_c1_elabs_filtered,BulkDock Fragalysis export,a71ev2a_c1_elab_bulkdock_input,openbind_a71ev2a_c1_elab_chemspace_filtered_scored

>  <inchikey>  (317) 
UGXRHTOVWXZEJA-UHFFFAOYSA-N

>  <scratch_subdir>  (317) 
/opt/xchem-fragalysis-2/maxwin/BulkDock/SCRATCH/601502/UGXRHTOVWXZEJA-UHFFFAOYSA-N-P141-P141-P180-601502

>  <smina_score_min>  (317) 
-5.713

>  <energy_score>  (317) 
-7.73478

>  <Energy>  (317) 
180.284311

>  <fragmenstein_outcome>  (317) 
acceptable

>  <alias>  (317) 
UGXRHTOVWXZEJA-UHFFFAOYSA-N-P141-P141-P180-601502

>  <HIPPO Pose ID>  (317) 
503610

>  <exports>  (317) 
['/opt/xchem-fragalysis-2/maxwin/openbind-hippo/a71ev2a/cycle_01/bulkdock/openbind_a71ev2a_c1_elab_chemspace.sdf', '/opt/xchem-fragalysis-2/maxwin/openbind-hippo/a71ev2a/cycle_01/syndirella/elabs/openbind_a71ev2a_c1_elab_chemspace_filtered.sdf', '/opt/xchem-fragalysis-2/maxwin/BulkDock/OUTPUTS/a71ev2a_c1_elab_bulkdock_input_1GFT2LV.sdf']

>  <HIPPO Compound ID>  (317) 
299834

>  <gnina_score>  (317) 
6.003

$$$$
ZSYQUYSXUNBJIZ-UHFFFAOYSA-N-P141-P141-P180-601502
     RDKit          3D

 27 30  0  0  0  0  0  0  0  0999 V2000
    8.9075    8.8883   23.5157 C   0  0  0  0  0  0  0  0  0  0  0  0
    8.4965   10.2293   23.8503 N   0  0  0  0  0  0  0  0  0  0  0  0
    9.1793   11.2433   23.3136 N   0  0  0  0  0  0  0  0  0  0  0  0
    8.7278   12.3301   23.9693 C   0  0  0  0  0  0  0  0  0  0  0  0
    9.5000   13.5691   23.9229 C   0  0  0  0  0  0  0  0  0  0  0  0
    9.1639   14.5583   24.4350 O   0  0  0  0  0  0  0  0  0  0  0  0
   10.7950   13.2234   23.1873 N   0  0  0  0  0  0  0  0  0  0  0  0
   11.9851   13.9805   23.0054 C   0  0  1  0  0  0  0  0  0  0  0  0
   11.7659   15.2968   22.2501 C   0  0  0  0  0  0  0  0  0  0  0  0
   11.3818   15.1506   20.8611 N   0  0  0  0  0  0  0  0  0  0  0  0
   12.0819   14.5477   19.8692 C   0  0  0  0  0  0  0  0  0  0  0  0
   11.5407   14.8075   18.7097 N   0  0  0  0  0  0  0  0  0  0  0  0
   10.5129   15.6463   19.0412 C   0  0  0  0  0  0  0  0  0  0  0  0
   10.3445   15.8402   20.3536 N   0  0  0  0  0  0  0  0  0  0  0  0
   12.5780   14.0598   24.4208 C   0  0  0  0  0  0  0  0  0  0  0  0
   12.1709   15.0173   25.3530 C   0  0  0  0  0  0  0  0  0  0  0  0
   12.6188   14.9887   26.6785 C   0  0  0  0  0  0  0  0  0  0  0  0
   13.5258   14.0215   27.0973 C   0  0  0  0  0  0  0  0  0  0  0  0
   13.9013   13.0209   26.2133 C   0  0  0  0  0  0  0  0  0  0  0  0
   13.3707   13.0118   24.9205 C   0  0  0  0  0  0  0  0  0  0  0  0
    7.6717   12.0157   24.8510 C   0  0  0  0  0  0  0  0  0  0  0  0
    6.8801   12.7295   25.7696 C   0  0  0  0  0  0  0  0  0  0  0  0
    5.9844   12.0189   26.5617 C   0  0  0  0  0  0  0  0  0  0  0  0
    5.2378   12.6723   27.4621 F   0  0  0  0  0  0  0  0  0  0  0  0
    5.8640   10.6411   26.4605 C   0  0  0  0  0  0  0  0  0  0  0  0
    6.6340    9.9266   25.5413 C   0  0  0  0  0  0  0  0  0  0  0  0
    7.5548   10.6307   24.7658 C   0  0  0  0  0  0  0  0  0  0  0  0
  1  2  1  0
  2  3  1  0
  3  4  2  0
  4  5  1  0
  5  6  2  0
  5  7  1  0
  7  8  1  0
  8  9  1  1
  9 10  1  0
 10 11  1  0
 11 12  2  0
 12 13  1  0
 13 14  2  0
  8 15  1  0
 15 16  2  0
 16 17  1  0
 17 18  2  0
 18 19  1  0
 19 20  2  0
  4 21  1  0
 21 22  2  0
 22 23  1  0
 23 24  1  0
 23 25  2  0
 25 26  1  0
 26 27  2  0
 27  2  1  0
 14 10  1  0
 20 15  1  0
 27 21  1  0
M  END
>  <distance_score>  (318) 
0.78349

>  <smiles>  (318) 
Cn1nc(C(=O)NC(Cn2cncn2)c2ccccc2)c2cc(F)ccc21

>  <fragmenstein_error>  (318) 


>  <fragmenstein_runtime>  (318) 
3.875428

>  <gnina_score_min>  (318) 
6.206

>  <orig_smiles>  (318) 
Cn1nc(C(=O)NC(Cn2cncn2)c2ccccc2)c2cc(F)ccc21

>  <fragmenstein_mode>  (318) 
expansion

>  <rmsd(smina/fragmenstein)>  (318) 
0.633

>  <inspiration_score>  (318) 
None

>  <name>  (318) 
ZSYQUYSXUNBJIZ-UHFFFAOYSA-N-P141-P141-P180-601502

>  <ref_pdb>  (318) 
A0514a

>  <ref_mols>  (318) 
A3417a,A3176a

>  <subsites>  (318) 
None

>  <tags>  (318) 
fragmenstein_placed,openbind_a71ev2a_c1_elabs_filtered,BulkDock Fragalysis export,a71ev2a_c1_elab_bulkdock_input,openbind_a71ev2a_c1_elab_chemspace_filtered_scored

>  <inchikey>  (318) 
ZSYQUYSXUNBJIZ-UHFFFAOYSA-N

>  <scratch_subdir>  (318) 
/opt/xchem-fragalysis-2/maxwin/BulkDock/SCRATCH/601502/ZSYQUYSXUNBJIZ-UHFFFAOYSA-N-P141-P141-P180-601502

>  <smina_score_min>  (318) 
-3.386

>  <energy_score>  (318) 
-10.433306

>  <Energy>  (318) 
86.436498

>  <fragmenstein_outcome>  (318) 
acceptable

>  <alias>  (318) 
ZSYQUYSXUNBJIZ-UHFFFAOYSA-N-P141-P141-P180-601502

>  <HIPPO Pose ID>  (318) 
503620

>  <exports>  (318) 
['/opt/xchem-fragalysis-2/maxwin/openbind-hippo/a71ev2a/cycle_01/bulkdock/openbind_a71ev2a_c1_elab_chemspace.sdf', '/opt/xchem-fragalysis-2/maxwin/openbind-hippo/a71ev2a/cycle_01/syndirella/elabs/openbind_a71ev2a_c1_elab_chemspace_filtered.sdf', '/opt/xchem-fragalysis-2/maxwin/BulkDock/OUTPUTS/a71ev2a_c1_elab_bulkdock_input_1GFT2LV.sdf']

>  <HIPPO Compound ID>  (318) 
299839

>  <gnina_score>  (318) 
6.304

$$$$
QJXGJNXCMRTAMS-UHFFFAOYSA-N-P637-P178-P637-601502
     RDKit          3D

 19 20  0  0  0  0  0  0  0  0999 V2000
    6.2806   14.7693   24.5554 C   0  0  0  0  0  0  0  0  0  0  0  0
    5.8914   13.5208   25.2914 C   0  0  0  0  0  0  0  0  0  0  0  0
    4.6719   13.4568   25.9599 C   0  0  0  0  0  0  0  0  0  0  0  0
    4.3199   12.3116   26.6665 C   0  0  0  0  0  0  0  0  0  0  0  0
    5.1660   11.2057   26.6789 C   0  0  0  0  0  0  0  0  0  0  0  0
    4.6712    9.7491   27.7682 Br  0  0  0  0  0  0  0  0  0  0  0  0
    6.3764   11.2275   25.9933 C   0  0  0  0  0  0  0  0  0  0  0  0
    6.7462   12.4116   25.3433 C   0  0  0  0  0  0  0  0  0  0  0  0
    8.1260   12.6195   24.8685 C   0  0  0  0  0  0  0  0  0  0  0  0
    8.6951   13.5416   25.2872 O   0  0  0  0  0  0  0  0  0  0  0  0
    8.5794   11.5345   23.9012 N   0  0  0  0  0  0  0  0  0  0  0  0
    9.7987   11.3959   23.1630 C   0  0  0  0  0  0  0  0  0  0  0  0
   10.5861   12.7142   23.0796 C   0  0  0  0  0  0  0  0  0  0  0  0
    9.9384   13.8277   22.3385 C   0  0  0  0  0  0  0  0  0  0  0  0
    8.5891   13.8668   22.0633 N   0  0  0  0  0  0  0  0  0  0  0  0
    8.4412   15.0202   21.4566 C   0  0  0  0  0  0  0  0  0  0  0  0
    9.5812   15.7110   21.2260 O   0  0  0  0  0  0  0  0  0  0  0  0
   10.5442   14.9529   21.8183 C   0  0  0  0  0  0  0  0  0  0  0  0
   11.9149   15.4708   21.7537 C   0  0  0  0  0  0  0  0  0  0  0  0
  1  2  1  0
  2  3  2  0
  3  4  1  0
  4  5  2  0
  5  6  1  0
  5  7  1  0
  7  8  2  0
  8  9  1  0
  9 10  2  0
  9 11  1  0
 11 12  1  0
 12 13  1  0
 13 14  1  0
 14 15  1  0
 15 16  2  0
 16 17  1  0
 17 18  1  0
 18 19  1  0
  8  2  1  0
 18 14  2  0
M  END
>  <distance_score>  (319) 
1.933384

>  <smiles>  (319) 
Cc1ccc(Br)cc1C(=O)NCCc1ncoc1C

>  <fragmenstein_error>  (319) 


>  <fragmenstein_runtime>  (319) 
2.447922

>  <gnina_score_min>  (319) 
4.614

>  <orig_smiles>  (319) 
Cc1ccc(Br)cc1C(=O)NCCc1ncoc1C

>  <fragmenstein_mode>  (319) 
expansion

>  <rmsd(smina/fragmenstein)>  (319) 
0.911

>  <inspiration_score>  (319) 
None

>  <name>  (319) 
QJXGJNXCMRTAMS-UHFFFAOYSA-N-P637-P178-P637-601502

>  <ref_pdb>  (319) 
A0514a

>  <ref_mols>  (319) 
A3408a,A5594a

>  <subsites>  (319) 
None

>  <tags>  (319) 
openbind_a71ev2a_c1_elabs_filtered,fragmenstein_placed,a71ev2a_c1_elab_bulkdock_input,openbind_a71ev2a_c1_elab_chemspace_filtered_scored

>  <inchikey>  (319) 
QJXGJNXCMRTAMS-UHFFFAOYSA-N

>  <scratch_subdir>  (319) 
/opt/xchem-fragalysis-2/maxwin/BulkDock/SCRATCH/601502/QJXGJNXCMRTAMS-UHFFFAOYSA-N-P637-P178-P637-601502

>  <smina_score_min>  (319) 
-5.56

>  <energy_score>  (319) 
-0.963605

>  <Energy>  (319) 
48.926596

>  <fragmenstein_outcome>  (319) 
too moved

>  <alias>  (319) 
QJXGJNXCMRTAMS-UHFFFAOYSA-N-P637-P178-P637-601502

>  <HIPPO Pose ID>  (319) 
503648

>  <exports>  (319) 
['/opt/xchem-fragalysis-2/maxwin/openbind-hippo/a71ev2a/cycle_01/bulkdock/openbind_a71ev2a_c1_elab_chemspace.sdf', '/opt/xchem-fragalysis-2/maxwin/openbind-hippo/a71ev2a/cycle_01/syndirella/elabs/openbind_a71ev2a_c1_elab_chemspace_filtered.sdf']

>  <HIPPO Compound ID>  (319) 
306241

>  <gnina_score>  (319) 
4.921

$$$$
BWCBNWZPONGZGT-UHFFFAOYSA-N-P637-P178-P637-601502
     RDKit          3D

 19 20  0  0  0  0  0  0  0  0999 V2000
    6.8130   14.0404   23.9301 C   0  0  0  0  0  0  0  0  0  0  0  0
    6.4325   13.0112   24.9466 C   0  0  0  0  0  0  0  0  0  0  0  0
    5.3397   13.3177   25.7668 C   0  0  0  0  0  0  0  0  0  0  0  0
    4.8318   12.3785   26.6510 C   0  0  0  0  0  0  0  0  0  0  0  0
    5.3940   11.1087   26.7061 C   0  0  0  0  0  0  0  0  0  0  0  0
    4.5699    9.7856   28.0786 I   0  0  0  0  0  0  0  0  0  0  0  0
    6.4948   10.7853   25.9083 C   0  0  0  0  0  0  0  0  0  0  0  0
    7.0665   11.7650   25.0785 C   0  0  0  0  0  0  0  0  0  0  0  0
    8.3357   11.4279   24.3493 C   0  0  0  0  0  0  0  0  0  0  0  0
    8.4202   10.3852   23.8376 O   0  0  0  0  0  0  0  0  0  0  0  0
    9.3348   12.6028   24.3954 N   0  0  0  0  0  0  0  0  0  0  0  0
   10.6111   12.7760   23.7396 C   0  0  0  0  0  0  0  0  0  0  0  0
   11.0899   14.2218   23.7352 C   0  0  0  0  0  0  0  0  0  0  0  0
   10.3555   15.0127   22.7299 C   0  0  0  0  0  0  0  0  0  0  0  0
    9.1393   15.5813   23.0040 N   0  0  0  0  0  0  0  0  0  0  0  0
    8.7997   16.1408   21.8628 C   0  0  0  0  0  0  0  0  0  0  0  0
    9.6851   15.9718   20.8505 O   0  0  0  0  0  0  0  0  0  0  0  0
   10.6990   15.2706   21.4248 C   0  0  0  0  0  0  0  0  0  0  0  0
   11.8504   14.9611   20.5786 C   0  0  0  0  0  0  0  0  0  0  0  0
  1  2  1  0
  2  3  2  0
  3  4  1  0
  4  5  2  0
  5  6  1  0
  5  7  1  0
  7  8  2  0
  8  9  1  0
  9 10  2  0
  9 11  1  0
 11 12  1  0
 12 13  1  0
 13 14  1  0
 14 15  1  0
 15 16  2  0
 16 17  1  0
 17 18  1  0
 18 19  1  0
  8  2  1  0
 18 14  2  0
M  END
>  <distance_score>  (320) 
1.476185

>  <smiles>  (320) 
Cc1ccc(I)cc1C(=O)NCCc1ncoc1C

>  <fragmenstein_error>  (320) 


>  <fragmenstein_runtime>  (320) 
2.382644

>  <gnina_score_min>  (320) 
4.732

>  <orig_smiles>  (320) 
Cc1ccc(I)cc1C(=O)NCCc1ncoc1C

>  <fragmenstein_mode>  (320) 
expansion

>  <rmsd(smina/fragmenstein)>  (320) 
1.277

>  <inspiration_score>  (320) 
None

>  <name>  (320) 
BWCBNWZPONGZGT-UHFFFAOYSA-N-P637-P178-P637-601502

>  <ref_pdb>  (320) 
A0514a

>  <ref_mols>  (320) 
A3408a,A5594a

>  <subsites>  (320) 
None

>  <tags>  (320) 
openbind_a71ev2a_c1_elabs_filtered,fragmenstein_placed,a71ev2a_c1_elab_bulkdock_input,openbind_a71ev2a_c1_elab_chemspace_filtered_scored

>  <inchikey>  (320) 
BWCBNWZPONGZGT-UHFFFAOYSA-N

>  <scratch_subdir>  (320) 
/opt/xchem-fragalysis-2/maxwin/BulkDock/SCRATCH/601502/BWCBNWZPONGZGT-UHFFFAOYSA-N-P637-P178-P637-601502

>  <smina_score_min>  (320) 
-6.743

>  <energy_score>  (320) 
-4.945477

>  <Energy>  (320) 
46.184635

>  <fragmenstein_outcome>  (320) 
too moved

>  <alias>  (320) 
BWCBNWZPONGZGT-UHFFFAOYSA-N-P637-P178-P637-601502

>  <HIPPO Pose ID>  (320) 
503662

>  <exports>  (320) 
['/opt/xchem-fragalysis-2/maxwin/openbind-hippo/a71ev2a/cycle_01/bulkdock/openbind_a71ev2a_c1_elab_chemspace.sdf', '/opt/xchem-fragalysis-2/maxwin/openbind-hippo/a71ev2a/cycle_01/syndirella/elabs/openbind_a71ev2a_c1_elab_chemspace_filtered.sdf']

>  <HIPPO Compound ID>  (320) 
306255

>  <gnina_score>  (320) 
5.024

$$$$
XMQBKDVBLVABMW-UHFFFAOYSA-N-P637-P178-P637-601502
     RDKit          3D

 19 20  0  0  0  0  0  0  0  0999 V2000
    7.0696   14.0619   24.3572 C   0  0  0  0  0  0  0  0  0  0  0  0
    6.7545   12.7679   25.0369 C   0  0  0  0  0  0  0  0  0  0  0  0
    5.6376   12.7344   25.8862 C   0  0  0  0  0  0  0  0  0  0  0  0
    5.1947   11.5305   26.4117 C   0  0  0  0  0  0  0  0  0  0  0  0
    4.1050   11.5127   27.1902 F   0  0  0  0  0  0  0  0  0  0  0  0
    5.8428   10.3449   26.1067 C   0  0  0  0  0  0  0  0  0  0  0  0
    6.9883   10.3697   25.3075 C   0  0  0  0  0  0  0  0  0  0  0  0
    7.4801   11.5853   24.8067 C   0  0  0  0  0  0  0  0  0  0  0  0
    8.7458   11.5332   24.0010 C   0  0  0  0  0  0  0  0  0  0  0  0
    8.8647   10.6780   23.2216 O   0  0  0  0  0  0  0  0  0  0  0  0
    9.7141   12.6588   24.4009 N   0  0  0  0  0  0  0  0  0  0  0  0
   10.9997   13.0272   23.8571 C   0  0  0  0  0  0  0  0  0  0  0  0
   11.2279   14.5317   23.8468 C   0  0  0  0  0  0  0  0  0  0  0  0
   10.4012   15.1711   22.8042 C   0  0  0  0  0  0  0  0  0  0  0  0
    9.1631   15.6933   23.0759 N   0  0  0  0  0  0  0  0  0  0  0  0
    8.7522   16.1256   21.9025 C   0  0  0  0  0  0  0  0  0  0  0  0
    9.6028   15.8967   20.8708 O   0  0  0  0  0  0  0  0  0  0  0  0
   10.6762   15.3092   21.4648 C   0  0  0  0  0  0  0  0  0  0  0  0
   11.8111   14.9720   20.6054 C   0  0  0  0  0  0  0  0  0  0  0  0
  1  2  1  0
  2  3  2  0
  3  4  1  0
  4  5  1  0
  4  6  2  0
  6  7  1  0
  7  8  2  0
  8  9  1  0
  9 10  2  0
  9 11  1  0
 11 12  1  0
 12 13  1  0
 13 14  1  0
 14 15  1  0
 15 16  2  0
 16 17  1  0
 17 18  1  0
 18 19  1  0
  8  2  1  0
 18 14  2  0
M  END
>  <distance_score>  (321) 
1.211698

>  <smiles>  (321) 
Cc1cc(F)ccc1C(=O)NCCc1ncoc1C

>  <fragmenstein_error>  (321) 


>  <fragmenstein_runtime>  (321) 
2.210618

>  <gnina_score_min>  (321) 
4.584

>  <orig_smiles>  (321) 
Cc1cc(F)ccc1C(=O)NCCc1ncoc1C

>  <fragmenstein_mode>  (321) 
expansion

>  <rmsd(smina/fragmenstein)>  (321) 
1.496

>  <inspiration_score>  (321) 
None

>  <name>  (321) 
XMQBKDVBLVABMW-UHFFFAOYSA-N-P637-P178-P637-601502

>  <ref_pdb>  (321) 
A0514a

>  <ref_mols>  (321) 
A3408a,A5594a

>  <subsites>  (321) 
None

>  <tags>  (321) 
openbind_a71ev2a_c1_elabs_filtered,fragmenstein_placed,a71ev2a_c1_elab_bulkdock_input,openbind_a71ev2a_c1_elab_chemspace_filtered_scored

>  <inchikey>  (321) 
XMQBKDVBLVABMW-UHFFFAOYSA-N

>  <scratch_subdir>  (321) 
/opt/xchem-fragalysis-2/maxwin/BulkDock/SCRATCH/601502/XMQBKDVBLVABMW-UHFFFAOYSA-N-P637-P178-P637-601502

>  <smina_score_min>  (321) 
-6.605

>  <energy_score>  (321) 
-7.64121

>  <Energy>  (321) 
47.59338

>  <fragmenstein_outcome>  (321) 
too moved

>  <alias>  (321) 
XMQBKDVBLVABMW-UHFFFAOYSA-N-P637-P178-P637-601502

>  <HIPPO Pose ID>  (321) 
503665

>  <exports>  (321) 
['/opt/xchem-fragalysis-2/maxwin/openbind-hippo/a71ev2a/cycle_01/bulkdock/openbind_a71ev2a_c1_elab_chemspace.sdf', '/opt/xchem-fragalysis-2/maxwin/openbind-hippo/a71ev2a/cycle_01/syndirella/elabs/openbind_a71ev2a_c1_elab_chemspace_filtered.sdf']

>  <HIPPO Compound ID>  (321) 
306258

>  <gnina_score>  (321) 
4.979

$$$$
SPMSOEPHPXNFEO-UHFFFAOYSA-N-P637-P178-P637-601502
     RDKit          3D

 19 20  0  0  0  0  0  0  0  0999 V2000
    5.2060    9.7205   26.2416 C   0  0  0  0  0  0  0  0  0  0  0  0
    5.3974   11.1981   26.1670 C   0  0  0  0  0  0  0  0  0  0  0  0
    4.4082   11.9655   26.8009 C   0  0  0  0  0  0  0  0  0  0  0  0
    4.4792   13.3486   26.8230 C   0  0  0  0  0  0  0  0  0  0  0  0
    5.5565   13.9897   26.2360 C   0  0  0  0  0  0  0  0  0  0  0  0
    6.5644   13.2405   25.6346 C   0  0  0  0  0  0  0  0  0  0  0  0
    7.6342   13.9488   25.1512 O   0  0  0  0  0  0  0  0  0  0  0  0
    6.5107   11.8315   25.5738 C   0  0  0  0  0  0  0  0  0  0  0  0
    7.6316   11.0056   24.9496 C   0  0  0  0  0  0  0  0  0  0  0  0
    7.7238    9.8797   25.2183 O   0  0  0  0  0  0  0  0  0  0  0  0
    8.5372   11.8993   24.1052 N   0  0  0  0  0  0  0  0  0  0  0  0
    9.6974   11.5822   23.3335 C   0  0  0  0  0  0  0  0  0  0  0  0
   10.5690   12.8384   23.2399 C   0  0  0  0  0  0  0  0  0  0  0  0
    9.9356   13.9705   22.5020 C   0  0  0  0  0  0  0  0  0  0  0  0
    8.5651   14.1316   22.4171 N   0  0  0  0  0  0  0  0  0  0  0  0
    8.4287   15.1978   21.6640 C   0  0  0  0  0  0  0  0  0  0  0  0
    9.5865   15.7654   21.2492 O   0  0  0  0  0  0  0  0  0  0  0  0
   10.5544   14.9908   21.8134 C   0  0  0  0  0  0  0  0  0  0  0  0
   11.9417   15.3812   21.5478 C   0  0  0  0  0  0  0  0  0  0  0  0
  1  2  1  0
  2  3  2  0
  3  4  1  0
  4  5  2  0
  5  6  1  0
  6  7  1  0
  6  8  2  0
  8  9  1  0
  9 10  2  0
  9 11  1  0
 11 12  1  0
 12 13  1  0
 13 14  1  0
 14 15  1  0
 15 16  2  0
 16 17  1  0
 17 18  1  0
 18 19  1  0
  8  2  1  0
 18 14  2  0
M  END
>  <distance_score>  (322) 
1.78046

>  <smiles>  (322) 
Cc1cccc(O)c1C(=O)NCCc1ncoc1C

>  <fragmenstein_error>  (322) 


>  <fragmenstein_runtime>  (322) 
3.531905

>  <gnina_score_min>  (322) 
4.454

>  <orig_smiles>  (322) 
Cc1cccc(O)c1C(=O)NCCc1ncoc1C

>  <fragmenstein_mode>  (322) 
expansion

>  <rmsd(smina/fragmenstein)>  (322) 
0.882

>  <inspiration_score>  (322) 
None

>  <name>  (322) 
SPMSOEPHPXNFEO-UHFFFAOYSA-N-P637-P178-P637-601502

>  <ref_pdb>  (322) 
A0514a

>  <ref_mols>  (322) 
A3408a,A5594a

>  <subsites>  (322) 
None

>  <tags>  (322) 
openbind_a71ev2a_c1_elabs_filtered,fragmenstein_placed,a71ev2a_c1_elab_bulkdock_input,openbind_a71ev2a_c1_elab_chemspace_filtered_scored

>  <inchikey>  (322) 
SPMSOEPHPXNFEO-UHFFFAOYSA-N

>  <scratch_subdir>  (322) 
/opt/xchem-fragalysis-2/maxwin/BulkDock/SCRATCH/601502/SPMSOEPHPXNFEO-UHFFFAOYSA-N-P637-P178-P637-601502

>  <smina_score_min>  (322) 
-5.805

>  <energy_score>  (322) 
-24.925266

>  <Energy>  (322) 
56.056589

>  <fragmenstein_outcome>  (322) 
too moved

>  <alias>  (322) 
SPMSOEPHPXNFEO-UHFFFAOYSA-N-P637-P178-P637-601502

>  <HIPPO Pose ID>  (322) 
503671

>  <exports>  (322) 
['/opt/xchem-fragalysis-2/maxwin/openbind-hippo/a71ev2a/cycle_01/bulkdock/openbind_a71ev2a_c1_elab_chemspace.sdf', '/opt/xchem-fragalysis-2/maxwin/openbind-hippo/a71ev2a/cycle_01/syndirella/elabs/openbind_a71ev2a_c1_elab_chemspace_filtered.sdf']

>  <HIPPO Compound ID>  (322) 
306264

>  <gnina_score>  (322) 
4.79

$$$$
OGLWVUIGHWZHIV-UHFFFAOYSA-N-P637-P178-P637-601502
     RDKit          3D

 19 20  0  0  0  0  0  0  0  0999 V2000
    7.2304   14.1146   22.7753 C   0  0  0  0  0  0  0  0  0  0  0  0
    7.2476   14.1737   24.2947 C   0  0  0  0  0  0  0  0  0  0  0  0
    6.8940   12.8610   24.9584 C   0  0  0  0  0  0  0  0  0  0  0  0
    5.7680   12.8332   25.8007 C   0  0  0  0  0  0  0  0  0  0  0  0
    5.2950   11.6354   26.3373 C   0  0  0  0  0  0  0  0  0  0  0  0
    5.9256   10.4370   26.0263 C   0  0  0  0  0  0  0  0  0  0  0  0
    7.0661   10.4424   25.2263 C   0  0  0  0  0  0  0  0  0  0  0  0
    7.5758   11.6505   24.7277 C   0  0  0  0  0  0  0  0  0  0  0  0
    8.8579   11.5697   23.9678 C   0  0  0  0  0  0  0  0  0  0  0  0
    8.9738   10.7809   23.1229 O   0  0  0  0  0  0  0  0  0  0  0  0
    9.8529   12.6061   24.5035 N   0  0  0  0  0  0  0  0  0  0  0  0
   11.1711   12.9565   24.0500 C   0  0  0  0  0  0  0  0  0  0  0  0
   11.4610   14.4371   24.2347 C   0  0  0  0  0  0  0  0  0  0  0  0
   11.3021   15.1114   22.9412 C   0  0  0  0  0  0  0  0  0  0  0  0
   12.2728   15.7172   22.1896 C   0  0  0  0  0  0  0  0  0  0  0  0
   11.7684   15.9626   20.9664 O   0  0  0  0  0  0  0  0  0  0  0  0
   10.5051   15.4714   21.0366 C   0  0  0  0  0  0  0  0  0  0  0  0
    9.7994   15.4619   19.7660 C   0  0  0  0  0  0  0  0  0  0  0  0
   10.1430   15.0184   22.2183 N   0  0  0  0  0  0  0  0  0  0  0  0
  1  2  1  0
  2  3  1  0
  3  4  2  0
  4  5  1  0
  5  6  2  0
  6  7  1  0
  7  8  2  0
  8  9  1  0
  9 10  2  0
  9 11  1  0
 11 12  1  0
 12 13  1  0
 13 14  1  0
 14 15  2  0
 15 16  1  0
 16 17  1  0
 17 18  1  0
 17 19  2  0
  8  3  1  0
 19 14  1  0
M  END
>  <distance_score>  (323) 
1.15748

>  <smiles>  (323) 
CCc1ccccc1C(=O)NCCc1coc(C)n1

>  <fragmenstein_error>  (323) 


>  <fragmenstein_runtime>  (323) 
2.631611

>  <gnina_score_min>  (323) 
4.579

>  <orig_smiles>  (323) 
CCc1ccccc1C(=O)NCCc1coc(C)n1

>  <fragmenstein_mode>  (323) 
expansion

>  <rmsd(smina/fragmenstein)>  (323) 
1.401

>  <inspiration_score>  (323) 
None

>  <name>  (323) 
OGLWVUIGHWZHIV-UHFFFAOYSA-N-P637-P178-P637-601502

>  <ref_pdb>  (323) 
A0514a

>  <ref_mols>  (323) 
A3408a,A5594a

>  <subsites>  (323) 
None

>  <tags>  (323) 
openbind_a71ev2a_c1_elabs_filtered,fragmenstein_placed,a71ev2a_c1_elab_bulkdock_input,openbind_a71ev2a_c1_elab_chemspace_filtered_scored

>  <inchikey>  (323) 
OGLWVUIGHWZHIV-UHFFFAOYSA-N

>  <scratch_subdir>  (323) 
/opt/xchem-fragalysis-2/maxwin/BulkDock/SCRATCH/601502/OGLWVUIGHWZHIV-UHFFFAOYSA-N-P637-P178-P637-601502

>  <smina_score_min>  (323) 
-6.642

>  <energy_score>  (323) 
-11.749265

>  <Energy>  (323) 
56.718387

>  <fragmenstein_outcome>  (323) 
too moved

>  <alias>  (323) 
OGLWVUIGHWZHIV-UHFFFAOYSA-N-P637-P178-P637-601502

>  <HIPPO Pose ID>  (323) 
503693

>  <exports>  (323) 
['/opt/xchem-fragalysis-2/maxwin/openbind-hippo/a71ev2a/cycle_01/bulkdock/openbind_a71ev2a_c1_elab_chemspace.sdf', '/opt/xchem-fragalysis-2/maxwin/openbind-hippo/a71ev2a/cycle_01/syndirella/elabs/openbind_a71ev2a_c1_elab_chemspace_filtered.sdf']

>  <HIPPO Compound ID>  (323) 
306286

>  <gnina_score>  (323) 
4.88

$$$$
IVLUXAZQIRRFDV-UHFFFAOYSA-N-P637-P178-P637-601502
     RDKit          3D

 19 20  0  0  0  0  0  0  0  0999 V2000
    7.4250   14.4463   24.8582 C   0  0  0  0  0  0  0  0  0  0  0  0
    7.1955   13.0189   25.2426 C   0  0  0  0  0  0  0  0  0  0  0  0
    6.0620   12.7463   26.0360 C   0  0  0  0  0  0  0  0  0  0  0  0
    5.6619   11.4400   26.2908 C   0  0  0  0  0  0  0  0  0  0  0  0
    4.2925   11.1427   27.2862 Cl  0  0  0  0  0  0  0  0  0  0  0  0
    6.3652   10.3821   25.7360 C   0  0  0  0  0  0  0  0  0  0  0  0
    7.5082   10.6317   24.9688 C   0  0  0  0  0  0  0  0  0  0  0  0
    7.9575   11.9476   24.7421 C   0  0  0  0  0  0  0  0  0  0  0  0
    9.1833   12.1019   23.8829 C   0  0  0  0  0  0  0  0  0  0  0  0
    9.2255   11.4407   22.9249 O   0  0  0  0  0  0  0  0  0  0  0  0
   10.2018   13.1174   24.4427 N   0  0  0  0  0  0  0  0  0  0  0  0
   11.4588   13.6073   23.8825 C   0  0  2  0  0  0  0  0  0  0  0  0
   12.5960   13.5591   24.8815 C   0  0  0  0  0  0  0  0  0  0  0  0
   11.3351   15.0537   23.3949 C   0  0  0  0  0  0  0  0  0  0  0  0
   10.3781   15.1449   22.2907 C   0  0  0  0  0  0  0  0  0  0  0  0
   10.6019   14.9652   20.9504 C   0  0  0  0  0  0  0  0  0  0  0  0
    9.4021   15.0615   20.3219 O   0  0  0  0  0  0  0  0  0  0  0  0
    8.5230   15.2756   21.3318 C   0  0  0  0  0  0  0  0  0  0  0  0
    9.0497   15.3637   22.5269 N   0  0  0  0  0  0  0  0  0  0  0  0
  1  2  1  0
  2  3  2  0
  3  4  1  0
  4  5  1  0
  4  6  2  0
  6  7  1  0
  7  8  2  0
  8  9  1  0
  9 10  2  0
  9 11  1  0
 11 12  1  0
 12 13  1  1
 12 14  1  0
 14 15  1  0
 15 16  2  0
 16 17  1  0
 17 18  1  0
 18 19  2  0
  8  2  1  0
 19 15  1  0
M  END
>  <distance_score>  (324) 
1.295297

>  <smiles>  (324) 
Cc1cc(Cl)ccc1C(=O)NC(C)Cc1cocn1

>  <fragmenstein_error>  (324) 


>  <fragmenstein_runtime>  (324) 
2.221965

>  <gnina_score_min>  (324) 
5.054

>  <orig_smiles>  (324) 
Cc1cc(Cl)ccc1C(=O)NC(C)Cc1cocn1

>  <fragmenstein_mode>  (324) 
expansion

>  <rmsd(smina/fragmenstein)>  (324) 
0.876

>  <inspiration_score>  (324) 
None

>  <name>  (324) 
IVLUXAZQIRRFDV-UHFFFAOYSA-N-P637-P178-P637-601502

>  <ref_pdb>  (324) 
A0514a

>  <ref_mols>  (324) 
A3408a,A5594a

>  <subsites>  (324) 
None

>  <tags>  (324) 
openbind_a71ev2a_c1_elabs_filtered,fragmenstein_placed,a71ev2a_c1_elab_bulkdock_input,openbind_a71ev2a_c1_elab_chemspace_filtered_scored

>  <inchikey>  (324) 
IVLUXAZQIRRFDV-UHFFFAOYSA-N

>  <scratch_subdir>  (324) 
/opt/xchem-fragalysis-2/maxwin/BulkDock/SCRATCH/601502/IVLUXAZQIRRFDV-UHFFFAOYSA-N-P637-P178-P637-601502

>  <smina_score_min>  (324) 
-5.899

>  <energy_score>  (324) 
-4.125073

>  <Energy>  (324) 
54.926257

>  <fragmenstein_outcome>  (324) 
too moved

>  <alias>  (324) 
IVLUXAZQIRRFDV-UHFFFAOYSA-N-P637-P178-P637-601502

>  <HIPPO Pose ID>  (324) 
503710

>  <exports>  (324) 
['/opt/xchem-fragalysis-2/maxwin/openbind-hippo/a71ev2a/cycle_01/bulkdock/openbind_a71ev2a_c1_elab_chemspace.sdf', '/opt/xchem-fragalysis-2/maxwin/openbind-hippo/a71ev2a/cycle_01/syndirella/elabs/openbind_a71ev2a_c1_elab_chemspace_filtered.sdf']

>  <HIPPO Compound ID>  (324) 
306303

>  <gnina_score>  (324) 
5.093

$$$$
ZQWQSLMHSKINMQ-UHFFFAOYSA-N-P637-P178-P637-601502
     RDKit          3D

 19 20  0  0  0  0  0  0  0  0999 V2000
    6.8392   14.1401   24.2699 C   0  0  0  0  0  0  0  0  0  0  0  0
    6.5462   12.9469   25.1274 C   0  0  0  0  0  0  0  0  0  0  0  0
    5.4439   13.0141   25.9927 C   0  0  0  0  0  0  0  0  0  0  0  0
    5.0151   11.8841   26.6776 C   0  0  0  0  0  0  0  0  0  0  0  0
    5.6664   10.6781   26.4767 C   0  0  0  0  0  0  0  0  0  0  0  0
    5.2444    9.6063   27.1525 F   0  0  0  0  0  0  0  0  0  0  0  0
    6.7705   10.5848   25.6411 C   0  0  0  0  0  0  0  0  0  0  0  0
    7.2550   11.7362   25.0132 C   0  0  0  0  0  0  0  0  0  0  0  0
    8.5271   11.5988   24.2420 C   0  0  0  0  0  0  0  0  0  0  0  0
    8.6480   10.6906   23.5242 O   0  0  0  0  0  0  0  0  0  0  0  0
    9.5063   12.7372   24.5852 N   0  0  0  0  0  0  0  0  0  0  0  0
   10.8054   13.0495   24.0445 C   0  0  0  0  0  0  0  0  0  0  0  0
   10.7911   13.0794   22.5309 C   0  0  0  0  0  0  0  0  0  0  0  0
   10.1462   14.3019   22.0346 C   0  0  0  0  0  0  0  0  0  0  0  0
    8.7875   14.4437   21.9419 N   0  0  0  0  0  0  0  0  0  0  0  0
    8.6490   15.6758   21.5098 C   0  0  0  0  0  0  0  0  0  0  0  0
    9.8058   16.3407   21.2655 O   0  0  0  0  0  0  0  0  0  0  0  0
   10.7670   15.4556   21.6330 C   0  0  0  0  0  0  0  0  0  0  0  0
   12.1625   15.8734   21.5287 C   0  0  0  0  0  0  0  0  0  0  0  0
  1  2  1  0
  2  3  2  0
  3  4  1  0
  4  5  2  0
  5  6  1  0
  5  7  1  0
  7  8  2  0
  8  9  1  0
  9 10  2  0
  9 11  1  0
 11 12  1  0
 12 13  1  0
 13 14  1  0
 14 15  1  0
 15 16  2  0
 16 17  1  0
 17 18  1  0
 18 19  1  0
  8  2  1  0
 18 14  2  0
M  END
>  <distance_score>  (325) 
1.556575

>  <smiles>  (325) 
Cc1ccc(F)cc1C(=O)NCCc1ncoc1C

>  <fragmenstein_error>  (325) 


>  <fragmenstein_runtime>  (325) 
2.872972

>  <gnina_score_min>  (325) 
4.61

>  <orig_smiles>  (325) 
Cc1ccc(F)cc1C(=O)NCCc1ncoc1C

>  <fragmenstein_mode>  (325) 
expansion

>  <rmsd(smina/fragmenstein)>  (325) 
0.611

>  <inspiration_score>  (325) 
None

>  <name>  (325) 
ZQWQSLMHSKINMQ-UHFFFAOYSA-N-P637-P178-P637-601502

>  <ref_pdb>  (325) 
A0514a

>  <ref_mols>  (325) 
A3408a,A5594a

>  <subsites>  (325) 
None

>  <tags>  (325) 
openbind_a71ev2a_c1_elabs_filtered,fragmenstein_placed,a71ev2a_c1_elab_bulkdock_input,openbind_a71ev2a_c1_elab_chemspace_filtered_scored

>  <inchikey>  (325) 
ZQWQSLMHSKINMQ-UHFFFAOYSA-N

>  <scratch_subdir>  (325) 
/opt/xchem-fragalysis-2/maxwin/BulkDock/SCRATCH/601502/ZQWQSLMHSKINMQ-UHFFFAOYSA-N-P637-P178-P637-601502

>  <smina_score_min>  (325) 
-6.198

>  <energy_score>  (325) 
-1.163801

>  <Energy>  (325) 
41.446796

>  <fragmenstein_outcome>  (325) 
too moved

>  <alias>  (325) 
ZQWQSLMHSKINMQ-UHFFFAOYSA-N-P637-P178-P637-601502

>  <HIPPO Pose ID>  (325) 
503723

>  <exports>  (325) 
['/opt/xchem-fragalysis-2/maxwin/openbind-hippo/a71ev2a/cycle_01/bulkdock/openbind_a71ev2a_c1_elab_chemspace.sdf', '/opt/xchem-fragalysis-2/maxwin/openbind-hippo/a71ev2a/cycle_01/syndirella/elabs/openbind_a71ev2a_c1_elab_chemspace_filtered.sdf']

>  <HIPPO Compound ID>  (325) 
306316

>  <gnina_score>  (325) 
4.878

$$$$
HVQXGMVMDKKIQQ-UHFFFAOYSA-N-P637-P178-P637-601502
     RDKit          3D

 20 21  0  0  0  0  0  0  0  0999 V2000
    6.5832   14.4627   23.1702 C   0  0  0  0  0  0  0  0  0  0  0  0
    6.1747   14.5129   24.6469 C   0  0  0  0  0  0  0  0  0  0  0  0
    5.8735   13.1771   25.2976 C   0  0  0  0  0  0  0  0  0  0  0  0
    4.6944   12.9721   26.0134 C   0  0  0  0  0  0  0  0  0  0  0  0
    4.4153   11.7265   26.5921 C   0  0  0  0  0  0  0  0  0  0  0  0
    5.2844   10.6490   26.4291 C   0  0  0  0  0  0  0  0  0  0  0  0
    6.4833   10.8419   25.7600 C   0  0  0  0  0  0  0  0  0  0  0  0
    6.7775   12.1137   25.2507 C   0  0  0  0  0  0  0  0  0  0  0  0
    8.1410   12.4428   24.8467 C   0  0  0  0  0  0  0  0  0  0  0  0
    8.6117   13.3949   25.3101 O   0  0  0  0  0  0  0  0  0  0  0  0
    8.7276   11.4186   23.8978 N   0  0  0  0  0  0  0  0  0  0  0  0
    9.9887   11.3855   23.2339 C   0  0  0  0  0  0  0  0  0  0  0  0
   10.8564   12.5919   23.6235 C   0  0  0  0  0  0  0  0  0  0  0  0
   10.4840   13.8580   22.9701 C   0  0  0  0  0  0  0  0  0  0  0  0
   10.1648   13.9073   21.6463 N   0  0  0  0  0  0  0  0  0  0  0  0
   10.1938   15.1901   21.3691 C   0  0  0  0  0  0  0  0  0  0  0  0
   10.1760   15.8267   20.0475 C   0  0  0  0  0  0  0  0  0  0  0  0
   10.3709   16.0010   22.4570 O   0  0  0  0  0  0  0  0  0  0  0  0
   10.5241   15.1261   23.4931 C   0  0  0  0  0  0  0  0  0  0  0  0
   10.7147   15.6562   24.8509 C   0  0  0  0  0  0  0  0  0  0  0  0
  1  2  1  0
  2  3  1  0
  3  4  2  0
  4  5  1  0
  5  6  2  0
  6  7  1  0
  7  8  2  0
  8  9  1  0
  9 10  2  0
  9 11  1  0
 11 12  1  0
 12 13  1  0
 13 14  1  0
 14 15  1  0
 15 16  2  0
 16 17  1  0
 16 18  1  0
 18 19  1  0
 19 20  1  0
  8  3  1  0
 19 14  2  0
M  END
>  <distance_score>  (326) 
1.862563

>  <smiles>  (326) 
CCc1ccccc1C(=O)NCCc1nc(C)oc1C

>  <fragmenstein_error>  (326) 


>  <fragmenstein_runtime>  (326) 
4.48816

>  <gnina_score_min>  (326) 
4.595

>  <orig_smiles>  (326) 
CCc1ccccc1C(=O)NCCc1nc(C)oc1C

>  <fragmenstein_mode>  (326) 
expansion

>  <rmsd(smina/fragmenstein)>  (326) 
2.623

>  <inspiration_score>  (326) 
None

>  <name>  (326) 
HVQXGMVMDKKIQQ-UHFFFAOYSA-N-P637-P178-P637-601502

>  <ref_pdb>  (326) 
A0514a

>  <ref_mols>  (326) 
A3408a,A5594a

>  <subsites>  (326) 
None

>  <tags>  (326) 
openbind_a71ev2a_c1_elabs_filtered,fragmenstein_placed,a71ev2a_c1_elab_bulkdock_input,openbind_a71ev2a_c1_elab_chemspace_filtered_scored

>  <inchikey>  (326) 
HVQXGMVMDKKIQQ-UHFFFAOYSA-N

>  <scratch_subdir>  (326) 
/opt/xchem-fragalysis-2/maxwin/BulkDock/SCRATCH/601502/HVQXGMVMDKKIQQ-UHFFFAOYSA-N-P637-P178-P637-601502

>  <smina_score_min>  (326) 
-5.718

>  <energy_score>  (326) 
-0.640064

>  <Energy>  (326) 
57.654819

>  <fragmenstein_outcome>  (326) 
too moved

>  <alias>  (326) 
HVQXGMVMDKKIQQ-UHFFFAOYSA-N-P637-P178-P637-601502

>  <HIPPO Pose ID>  (326) 
503777

>  <exports>  (326) 
['/opt/xchem-fragalysis-2/maxwin/openbind-hippo/a71ev2a/cycle_01/bulkdock/openbind_a71ev2a_c1_elab_chemspace.sdf', '/opt/xchem-fragalysis-2/maxwin/openbind-hippo/a71ev2a/cycle_01/syndirella/elabs/openbind_a71ev2a_c1_elab_chemspace_filtered.sdf']

>  <HIPPO Compound ID>  (326) 
306370

>  <gnina_score>  (326) 
5.022

$$$$
NIGAQWFHEQGEFP-UHFFFAOYSA-N-P637-P178-P637-601502
     RDKit          3D

 20 21  0  0  0  0  0  0  0  0999 V2000
    6.9251   14.4606   23.4118 C   0  0  0  0  0  0  0  0  0  0  0  0
    7.2761   14.1631   24.7678 O   0  0  0  0  0  0  0  0  0  0  0  0
    7.0186   12.8402   25.0101 C   0  0  0  0  0  0  0  0  0  0  0  0
    5.8927   12.5553   25.7793 C   0  0  0  0  0  0  0  0  0  0  0  0
    5.5674   11.2350   26.0372 C   0  0  0  0  0  0  0  0  0  0  0  0
    6.3593   10.2187   25.5042 C   0  0  0  0  0  0  0  0  0  0  0  0
    7.5247   10.4962   24.7629 C   0  0  0  0  0  0  0  0  0  0  0  0
    8.3256    9.3707   24.1759 C   0  0  0  0  0  0  0  0  0  0  0  0
    7.8833   11.8347   24.5528 C   0  0  0  0  0  0  0  0  0  0  0  0
    9.2250   12.1952   23.9616 C   0  0  0  0  0  0  0  0  0  0  0  0
    9.6767   11.5641   23.0967 O   0  0  0  0  0  0  0  0  0  0  0  0
    9.8186   13.3702   24.7511 N   0  0  0  0  0  0  0  0  0  0  0  0
   11.0602   14.0808   24.5803 C   0  0  2  0  0  0  0  0  0  0  0  0
   10.9284   15.3986   25.3395 C   0  0  0  0  0  0  0  0  0  0  0  0
   11.5628   14.2118   23.1514 C   0  0  0  0  0  0  0  0  0  0  0  0
   10.6719   14.8820   22.1933 C   0  0  0  0  0  0  0  0  0  0  0  0
   10.7882   14.8665   20.8258 C   0  0  0  0  0  0  0  0  0  0  0  0
    9.8197   15.6643   20.3099 O   0  0  0  0  0  0  0  0  0  0  0  0
    9.1832   16.1423   21.4086 C   0  0  0  0  0  0  0  0  0  0  0  0
    9.6235   15.6853   22.5578 N   0  0  0  0  0  0  0  0  0  0  0  0
  1  2  1  0
  2  3  1  0
  3  4  2  0
  4  5  1  0
  5  6  2  0
  6  7  1  0
  7  8  1  0
  7  9  2  0
  9 10  1  0
 10 11  2  0
 10 12  1  0
 12 13  1  0
 13 14  1  6
 13 15  1  0
 15 16  1  0
 16 17  2  0
 17 18  1  0
 18 19  1  0
 19 20  2  0
  9  3  1  0
 20 16  1  0
M  END
>  <distance_score>  (327) 
1.629659

>  <smiles>  (327) 
COc1cccc(C)c1C(=O)NC(C)Cc1cocn1

>  <fragmenstein_error>  (327) 


>  <fragmenstein_runtime>  (327) 
2.216067

>  <gnina_score_min>  (327) 
4.64

>  <orig_smiles>  (327) 
COc1cccc(C)c1C(=O)NC(C)Cc1cocn1

>  <fragmenstein_mode>  (327) 
expansion

>  <rmsd(smina/fragmenstein)>  (327) 
1.693

>  <inspiration_score>  (327) 
None

>  <name>  (327) 
NIGAQWFHEQGEFP-UHFFFAOYSA-N-P637-P178-P637-601502

>  <ref_pdb>  (327) 
A0514a

>  <ref_mols>  (327) 
A3408a,A5594a

>  <subsites>  (327) 
None

>  <tags>  (327) 
openbind_a71ev2a_c1_elabs_filtered,fragmenstein_placed,a71ev2a_c1_elab_bulkdock_input,openbind_a71ev2a_c1_elab_chemspace_filtered_scored

>  <inchikey>  (327) 
NIGAQWFHEQGEFP-UHFFFAOYSA-N

>  <scratch_subdir>  (327) 
/opt/xchem-fragalysis-2/maxwin/BulkDock/SCRATCH/601502/NIGAQWFHEQGEFP-UHFFFAOYSA-N-P637-P178-P637-601502

>  <smina_score_min>  (327) 
-6.022

>  <energy_score>  (327) 
-21.954384

>  <Energy>  (327) 
69.612012

>  <fragmenstein_outcome>  (327) 
too moved

>  <alias>  (327) 
NIGAQWFHEQGEFP-UHFFFAOYSA-N-P637-P178-P637-601502

>  <HIPPO Pose ID>  (327) 
503791

>  <exports>  (327) 
['/opt/xchem-fragalysis-2/maxwin/openbind-hippo/a71ev2a/cycle_01/bulkdock/openbind_a71ev2a_c1_elab_chemspace.sdf', '/opt/xchem-fragalysis-2/maxwin/openbind-hippo/a71ev2a/cycle_01/syndirella/elabs/openbind_a71ev2a_c1_elab_chemspace_filtered.sdf']

>  <HIPPO Compound ID>  (327) 
306384

>  <gnina_score>  (327) 
5.053

$$$$
UBRYYXQIKHWCBC-UHFFFAOYSA-N-P637-P178-P637-601502
     RDKit          3D

 20 21  0  0  0  0  0  0  0  0999 V2000
    7.3881   14.5025   23.3218 C   0  0  0  0  0  0  0  0  0  0  0  0
    7.6668   14.1578   24.6852 O   0  0  0  0  0  0  0  0  0  0  0  0
    7.2077   12.8969   24.9561 C   0  0  0  0  0  0  0  0  0  0  0  0
    6.0836   12.7886   25.7728 C   0  0  0  0  0  0  0  0  0  0  0  0
    5.5936   11.5299   26.1058 C   0  0  0  0  0  0  0  0  0  0  0  0
    6.2313   10.3853   25.6250 C   0  0  0  0  0  0  0  0  0  0  0  0
    7.3880   10.4856   24.8339 C   0  0  0  0  0  0  0  0  0  0  0  0
    8.0791    9.2629   24.3117 C   0  0  0  0  0  0  0  0  0  0  0  0
    7.8841   11.7564   24.5127 C   0  0  0  0  0  0  0  0  0  0  0  0
    9.1648   11.8603   23.7527 C   0  0  0  0  0  0  0  0  0  0  0  0
    9.3331   11.1823   22.8275 O   0  0  0  0  0  0  0  0  0  0  0  0
   10.0889   12.8750   24.4157 N   0  0  0  0  0  0  0  0  0  0  0  0
   11.4507   13.2074   24.1428 C   0  0  0  0  0  0  0  0  0  0  0  0
   11.6483   14.7034   24.1817 C   0  0  0  0  0  0  0  0  0  0  0  0
   11.4167   15.2574   22.8426 C   0  0  0  0  0  0  0  0  0  0  0  0
   12.3535   15.8257   22.0228 C   0  0  0  0  0  0  0  0  0  0  0  0
   11.8101   15.9796   20.8048 O   0  0  0  0  0  0  0  0  0  0  0  0
   10.5526   15.4934   20.9485 C   0  0  0  0  0  0  0  0  0  0  0  0
    9.7984   15.4490   19.7085 C   0  0  0  0  0  0  0  0  0  0  0  0
   10.2367   15.0949   22.1633 N   0  0  0  0  0  0  0  0  0  0  0  0
  1  2  1  0
  2  3  1  0
  3  4  2  0
  4  5  1  0
  5  6  2  0
  6  7  1  0
  7  8  1  0
  7  9  2  0
  9 10  1  0
 10 11  2  0
 10 12  1  0
 12 13  1  0
 13 14  1  0
 14 15  1  0
 15 16  2  0
 16 17  1  0
 17 18  1  0
 18 19  1  0
 18 20  2  0
  9  3  1  0
 20 15  1  0
M  END
>  <distance_score>  (328) 
1.336713

>  <smiles>  (328) 
COc1cccc(C)c1C(=O)NCCc1coc(C)n1

>  <fragmenstein_error>  (328) 


>  <fragmenstein_runtime>  (328) 
2.279915

>  <gnina_score_min>  (328) 
4.967

>  <orig_smiles>  (328) 
COc1cccc(C)c1C(=O)NCCc1coc(C)n1

>  <fragmenstein_mode>  (328) 
expansion

>  <rmsd(smina/fragmenstein)>  (328) 
1.585

>  <inspiration_score>  (328) 
None

>  <name>  (328) 
UBRYYXQIKHWCBC-UHFFFAOYSA-N-P637-P178-P637-601502

>  <ref_pdb>  (328) 
A0514a

>  <ref_mols>  (328) 
A3408a,A5594a

>  <subsites>  (328) 
None

>  <tags>  (328) 
openbind_a71ev2a_c1_elabs_filtered,fragmenstein_placed,a71ev2a_c1_elab_bulkdock_input,openbind_a71ev2a_c1_elab_chemspace_filtered_scored

>  <inchikey>  (328) 
UBRYYXQIKHWCBC-UHFFFAOYSA-N

>  <scratch_subdir>  (328) 
/opt/xchem-fragalysis-2/maxwin/BulkDock/SCRATCH/601502/UBRYYXQIKHWCBC-UHFFFAOYSA-N-P637-P178-P637-601502

>  <smina_score_min>  (328) 
-5.98

>  <energy_score>  (328) 
-11.398215

>  <Energy>  (328) 
66.758217

>  <fragmenstein_outcome>  (328) 
too moved

>  <alias>  (328) 
UBRYYXQIKHWCBC-UHFFFAOYSA-N-P637-P178-P637-601502

>  <HIPPO Pose ID>  (328) 
503792

>  <exports>  (328) 
['/opt/xchem-fragalysis-2/maxwin/openbind-hippo/a71ev2a/cycle_01/bulkdock/openbind_a71ev2a_c1_elab_chemspace.sdf', '/opt/xchem-fragalysis-2/maxwin/openbind-hippo/a71ev2a/cycle_01/syndirella/elabs/openbind_a71ev2a_c1_elab_chemspace_filtered.sdf']

>  <HIPPO Compound ID>  (328) 
306385

>  <gnina_score>  (328) 
5.094

$$$$
TYTRDFYIXLCNAD-UHFFFAOYSA-N-P637-P178-P637-601502
     RDKit          3D

 26 27  0  0  0  0  0  0  0  0999 V2000
    6.6365   14.5099   23.3749 C   0  0  0  0  0  0  0  0  0  0  0  0
    6.6966   14.3317   24.8008 O   0  0  0  0  0  0  0  0  0  0  0  0
    6.6366   12.9990   25.1200 C   0  0  0  0  0  0  0  0  0  0  0  0
    5.5103   12.5680   25.8104 C   0  0  0  0  0  0  0  0  0  0  0  0
    5.3576   11.2167   26.0749 C   0  0  0  0  0  0  0  0  0  0  0  0
    6.2934   10.3119   25.5754 C   0  0  0  0  0  0  0  0  0  0  0  0
    7.4568   10.7448   24.9123 C   0  0  0  0  0  0  0  0  0  0  0  0
    8.3432    9.7300   24.2497 C   0  0  0  0  0  0  0  0  0  0  0  0
    7.6861   12.1261   24.8060 C   0  0  0  0  0  0  0  0  0  0  0  0
    9.0270   12.7177   24.4331 C   0  0  0  0  0  0  0  0  0  0  0  0
    9.7388   12.1271   23.7242 O   0  0  0  0  0  0  0  0  0  0  0  0
    9.2082   14.0983   25.1159 N   0  0  0  0  0  0  0  0  0  0  0  0
   10.2651   15.0778   24.9884 C   0  0  2  0  0  0  0  0  0  0  0  0
   11.3407   14.7309   23.9765 C   0  0  0  0  0  0  0  0  0  0  0  0
   10.8668   14.9012   22.5798 C   0  0  0  0  0  0  0  0  0  0  0  0
    9.9265   15.7481   22.0399 C   0  0  0  0  0  0  0  0  0  0  0  0
    9.8854   15.5552   20.6966 O   0  0  0  0  0  0  0  0  0  0  0  0
   10.8405   14.6188   20.4896 C   0  0  0  0  0  0  0  0  0  0  0  0
   11.4308   14.1742   21.5743 N   0  0  0  0  0  0  0  0  0  0  0  0
   10.8356   15.4723   26.3495 C   0  0  0  0  0  0  0  0  0  0  0  0
   11.7892   14.9521   26.9035 O   0  0  0  0  0  0  0  0  0  0  0  0
   10.0791   16.4783   26.8819 O   0  0  0  0  0  0  0  0  0  0  0  0
   10.3914   17.0348   28.1860 C   0  0  0  0  0  0  0  0  0  0  0  0
   10.2404   15.9815   29.2887 C   0  0  0  0  0  0  0  0  0  0  0  0
    9.3346   18.1281   28.4050 C   0  0  0  0  0  0  0  0  0  0  0  0
   11.7792   17.6847   28.1981 C   0  0  0  0  0  0  0  0  0  0  0  0
  1  2  1  0
  2  3  1  0
  3  4  2  0
  4  5  1  0
  5  6  2  0
  6  7  1  0
  7  8  1  0
  7  9  2  0
  9 10  1  0
 10 11  2  0
 10 12  1  0
 12 13  1  0
 13 14  1  6
 14 15  1  0
 15 16  2  0
 16 17  1  0
 17 18  1  0
 18 19  2  0
 13 20  1  0
 20 21  2  0
 20 22  1  0
 22 23  1  0
 23 24  1  0
 23 25  1  0
 23 26  1  0
  9  3  1  0
 19 15  1  0
M  END
>  <distance_score>  (329) 
1.892342

>  <smiles>  (329) 
COc1cccc(C)c1C(=O)NC(Cc1cocn1)C(=O)OC(C)(C)C

>  <fragmenstein_error>  (329) 


>  <fragmenstein_runtime>  (329) 
5.179589

>  <gnina_score_min>  (329) 
5.037

>  <orig_smiles>  (329) 
COc1cccc(C)c1C(=O)NC(Cc1cocn1)C(=O)OC(C)(C)C

>  <fragmenstein_mode>  (329) 
expansion

>  <rmsd(smina/fragmenstein)>  (329) 
1.472

>  <inspiration_score>  (329) 
None

>  <name>  (329) 
TYTRDFYIXLCNAD-UHFFFAOYSA-N-P637-P178-P637-601502

>  <ref_pdb>  (329) 
A0514a

>  <ref_mols>  (329) 
A3408a,A5594a

>  <subsites>  (329) 
None

>  <tags>  (329) 
openbind_a71ev2a_c1_elabs_filtered,fragmenstein_placed,a71ev2a_c1_elab_bulkdock_input,openbind_a71ev2a_c1_elab_chemspace_filtered_scored

>  <inchikey>  (329) 
TYTRDFYIXLCNAD-UHFFFAOYSA-N

>  <scratch_subdir>  (329) 
/opt/xchem-fragalysis-2/maxwin/BulkDock/SCRATCH/601502/TYTRDFYIXLCNAD-UHFFFAOYSA-N-P637-P178-P637-601502

>  <smina_score_min>  (329) 
-6.236

>  <energy_score>  (329) 
-44.646559

>  <Energy>  (329) 
106.959325

>  <fragmenstein_outcome>  (329) 
too moved

>  <alias>  (329) 
TYTRDFYIXLCNAD-UHFFFAOYSA-N-P637-P178-P637-601502

>  <HIPPO Pose ID>  (329) 
503943

>  <exports>  (329) 
['/opt/xchem-fragalysis-2/maxwin/openbind-hippo/a71ev2a/cycle_01/bulkdock/openbind_a71ev2a_c1_elab_chemspace.sdf', '/opt/xchem-fragalysis-2/maxwin/openbind-hippo/a71ev2a/cycle_01/syndirella/elabs/openbind_a71ev2a_c1_elab_chemspace_filtered.sdf']

>  <HIPPO Compound ID>  (329) 
306536

>  <gnina_score>  (329) 
5.493

$$$$
WGVVBMPVSAIQED-UHFFFAOYSA-N-P141-P135-P141-601504
     RDKit          3D

 19 21  0  0  0  0  0  0  0  0999 V2000
   10.2689   15.2284   24.7933 O   0  0  0  0  0  0  0  0  0  0  0  0
    9.9429   14.5225   23.9244 C   0  0  0  0  0  0  0  0  0  0  0  0
   10.2348   14.6004   22.4007 N   0  0  0  0  0  0  0  0  0  0  0  0
   11.0801   15.5258   21.6395 C   0  0  0  0  0  0  0  0  0  0  0  0
   12.4234   15.7190   22.3171 C   0  0  0  0  0  0  0  0  0  0  0  0
   12.2939   16.3542   23.5109 F   0  0  0  0  0  0  0  0  0  0  0  0
   10.1707   16.5149   20.8544 C   0  0  0  0  0  0  0  0  0  0  0  0
   10.2039   15.6543   19.6887 O   0  0  0  0  0  0  0  0  0  0  0  0
   11.3885   15.0149   20.2082 C   0  0  0  0  0  0  0  0  0  0  0  0
    9.2136   13.2671   24.1489 C   0  0  0  0  0  0  0  0  0  0  0  0
    9.7753   12.1136   23.5111 C   0  0  0  0  0  0  0  0  0  0  0  0
    9.1618   10.9619   23.6583 C   0  0  0  0  0  0  0  0  0  0  0  0
    8.0743   10.8398   24.4579 N   0  0  0  0  0  0  0  0  0  0  0  0
    7.5515   11.8540   25.2149 C   0  0  0  0  0  0  0  0  0  0  0  0
    6.6829   11.6710   26.0597 O   0  0  0  0  0  0  0  0  0  0  0  0
    8.1628   13.1884   24.9803 C   0  0  0  0  0  0  0  0  0  0  0  0
    7.6480    9.4953   24.6567 C   0  0  0  0  0  0  0  0  0  0  0  0
    8.4298    8.5809   23.7337 C   0  0  0  0  0  0  0  0  0  0  0  0
    9.6954    9.5282   22.9423 S   0  0  0  0  0  0  0  0  0  0  0  0
  1  2  2  0
  2  3  1  0
  3  4  1  0
  4  5  1  0
  5  6  1  0
  4  7  1  0
  7  8  1  0
  8  9  1  0
  2 10  1  0
 10 11  1  0
 11 12  2  0
 12 13  1  0
 13 14  1  0
 14 15  2  0
 14 16  1  0
 13 17  1  0
 17 18  1  0
 18 19  1  0
  9  4  1  0
 16 10  2  0
 19 12  1  0
M  END
>  <distance_score>  (330) 
1.955547

>  <smiles>  (330) 
O=C(NC1(CF)COC1)c1cc2n(c(=O)c1)CCS2

>  <fragmenstein_error>  (330) 


>  <fragmenstein_runtime>  (330) 
4.170289

>  <gnina_score_min>  (330) 
4.766

>  <orig_smiles>  (330) 
O=C(NC1(CF)COC1)c1cc2n(c(=O)c1)CCS2

>  <fragmenstein_mode>  (330) 
expansion

>  <rmsd(smina/fragmenstein)>  (330) 
1.793

>  <inspiration_score>  (330) 
None

>  <name>  (330) 
WGVVBMPVSAIQED-UHFFFAOYSA-N-P141-P135-P141-601504

>  <ref_pdb>  (330) 
A0514b

>  <ref_mols>  (330) 
A3176a,A2629a

>  <subsites>  (330) 
None

>  <tags>  (330) 
openbind_a71ev2a_c1_elabs_filtered,fragmenstein_placed,a71ev2a_c1_elab_bulkdock_input,openbind_a71ev2a_c1_elab_chemspace_filtered_scored

>  <inchikey>  (330) 
WGVVBMPVSAIQED-UHFFFAOYSA-N

>  <scratch_subdir>  (330) 
/opt/xchem-fragalysis-2/maxwin/BulkDock/SCRATCH/601504/WGVVBMPVSAIQED-UHFFFAOYSA-N-P141-P135-P141-601504

>  <smina_score_min>  (330) 
-4.981

>  <energy_score>  (330) 
-7.563335

>  <Energy>  (330) 
21.254099

>  <fragmenstein_outcome>  (330) 
too moved

>  <alias>  (330) 
WGVVBMPVSAIQED-UHFFFAOYSA-N-P141-P135-P141-601504

>  <HIPPO Pose ID>  (330) 
506812

>  <exports>  (330) 
['/opt/xchem-fragalysis-2/maxwin/openbind-hippo/a71ev2a/cycle_01/bulkdock/openbind_a71ev2a_c1_elab_chemspace.sdf', '/opt/xchem-fragalysis-2/maxwin/openbind-hippo/a71ev2a/cycle_01/syndirella/elabs/openbind_a71ev2a_c1_elab_chemspace_filtered.sdf']

>  <HIPPO Compound ID>  (330) 
290933

>  <gnina_score>  (330) 
4.347

$$$$
XGPZLSPSNZRKLF-UHFFFAOYSA-N-P141-P135-P141-601504
     RDKit          3D

 19 20  0  0  0  0  0  0  0  0999 V2000
   10.8848   15.4339   19.0757 C   0  0  0  0  0  0  0  0  0  0  0  0
   10.9665   15.3860   20.4998 O   0  0  0  0  0  0  0  0  0  0  0  0
   12.0487   14.5681   20.9180 C   0  0  0  0  0  0  0  0  0  0  0  0
   11.9847   14.1120   22.3772 C   0  0  1  0  0  0  0  0  0  0  0  0
   12.2003   15.2221   23.3073 C   0  0  0  0  0  0  0  0  0  0  0  0
   12.2447   15.9425   24.2145 N   0  0  0  0  0  0  0  0  0  0  0  0
   10.8425   13.4316   22.9339 N   0  0  0  0  0  0  0  0  0  0  0  0
    9.3790   13.4386   22.5058 C   0  0  0  0  0  0  0  0  0  0  0  0
    8.8653   13.9307   21.5903 O   0  0  0  0  0  0  0  0  0  0  0  0
    8.6339   12.7442   23.5824 C   0  0  0  0  0  0  0  0  0  0  0  0
    8.0543   13.6439   24.5450 C   0  0  0  0  0  0  0  0  0  0  0  0
    7.2821   13.1511   25.5023 C   0  0  0  0  0  0  0  0  0  0  0  0
    7.0462   11.8102   25.5976 N   0  0  0  0  0  0  0  0  0  0  0  0
    7.6323   10.8696   24.7776 C   0  0  0  0  0  0  0  0  0  0  0  0
    7.4158    9.6661   24.8750 O   0  0  0  0  0  0  0  0  0  0  0  0
    8.5273   11.4140   23.7120 C   0  0  0  0  0  0  0  0  0  0  0  0
    5.9749   11.4743   26.5156 C   0  0  0  0  0  0  0  0  0  0  0  0
    5.1721   12.7314   26.8273 C   0  0  0  0  0  0  0  0  0  0  0  0
    6.3855   14.0734   26.6438 S   0  0  0  0  0  0  0  0  0  0  0  0
  1  2  1  0
  2  3  1  0
  4  3  1  6
  4  5  1  0
  5  6  3  0
  4  7  1  0
  7  8  1  0
  8  9  2  0
  8 10  1  0
 10 11  1  0
 11 12  2  0
 12 13  1  0
 13 14  1  0
 14 15  2  0
 14 16  1  0
 13 17  1  0
 17 18  1  0
 18 19  1  0
 16 10  2  0
 19 12  1  0
M  END
>  <distance_score>  (331) 
1.987533

>  <smiles>  (331) 
COCC(C#N)NC(=O)c1cc2n(c(=O)c1)CCS2

>  <fragmenstein_error>  (331) 


>  <fragmenstein_runtime>  (331) 
3.670372

>  <gnina_score_min>  (331) 
4.562

>  <orig_smiles>  (331) 
COCC(C#N)NC(=O)c1cc2n(c(=O)c1)CCS2

>  <fragmenstein_mode>  (331) 
expansion

>  <rmsd(smina/fragmenstein)>  (331) 
1.873

>  <inspiration_score>  (331) 
None

>  <name>  (331) 
XGPZLSPSNZRKLF-UHFFFAOYSA-N-P141-P135-P141-601504

>  <ref_pdb>  (331) 
A0514b

>  <ref_mols>  (331) 
A3176a,A2629a

>  <subsites>  (331) 
None

>  <tags>  (331) 
openbind_a71ev2a_c1_elabs_filtered,fragmenstein_placed,a71ev2a_c1_elab_bulkdock_input,openbind_a71ev2a_c1_elab_chemspace_filtered_scored

>  <inchikey>  (331) 
XGPZLSPSNZRKLF-UHFFFAOYSA-N

>  <scratch_subdir>  (331) 
/opt/xchem-fragalysis-2/maxwin/BulkDock/SCRATCH/601504/XGPZLSPSNZRKLF-UHFFFAOYSA-N-P141-P135-P141-601504

>  <smina_score_min>  (331) 
-5.927

>  <energy_score>  (331) 
-12.237251

>  <Energy>  (331) 
17.193922

>  <fragmenstein_outcome>  (331) 
too moved

>  <alias>  (331) 
XGPZLSPSNZRKLF-UHFFFAOYSA-N-P141-P135-P141-601504

>  <HIPPO Pose ID>  (331) 
506832

>  <exports>  (331) 
['/opt/xchem-fragalysis-2/maxwin/openbind-hippo/a71ev2a/cycle_01/bulkdock/openbind_a71ev2a_c1_elab_chemspace.sdf', '/opt/xchem-fragalysis-2/maxwin/openbind-hippo/a71ev2a/cycle_01/syndirella/elabs/openbind_a71ev2a_c1_elab_chemspace_filtered.sdf']

>  <HIPPO Compound ID>  (331) 
290943

>  <gnina_score>  (331) 
4.332

$$$$
YJDIOSSIZRBCCU-UHFFFAOYSA-N-P141-P135-P141-601504
     RDKit          3D

 19 20  0  0  0  0  0  0  0  0999 V2000
   12.7909   14.0720   24.0115 C   0  0  0  0  0  0  0  0  0  0  0  0
   12.5505   15.4033   23.2998 C   0  0  0  0  0  0  0  0  0  0  0  0
   11.3914   15.4421   22.3107 C   0  0  1  0  0  0  0  0  0  0  0  0
   11.8114   14.9836   20.9154 C   0  0  0  0  0  0  0  0  0  0  0  0
   10.6643   15.2024   20.1005 O   0  0  0  0  0  0  0  0  0  0  0  0
   10.9571   15.2205   18.7206 C   0  0  0  0  0  0  0  0  0  0  0  0
   10.3436   14.6060   22.7944 N   0  0  0  0  0  0  0  0  0  0  0  0
    9.6412   14.5704   24.1736 C   0  0  0  0  0  0  0  0  0  0  0  0
    9.7579   15.2695   25.0993 O   0  0  0  0  0  0  0  0  0  0  0  0
    8.8021   13.3496   24.1643 C   0  0  0  0  0  0  0  0  0  0  0  0
    9.4511   12.2087   23.5580 C   0  0  0  0  0  0  0  0  0  0  0  0
    8.9339   11.0163   23.7123 C   0  0  0  0  0  0  0  0  0  0  0  0
    7.8282   10.8261   24.4654 N   0  0  0  0  0  0  0  0  0  0  0  0
    7.2175   11.8139   25.1955 C   0  0  0  0  0  0  0  0  0  0  0  0
    6.3659   11.5713   26.0436 O   0  0  0  0  0  0  0  0  0  0  0  0
    7.7381   13.1929   24.9679 C   0  0  0  0  0  0  0  0  0  0  0  0
    7.5499    9.4510   24.7168 C   0  0  0  0  0  0  0  0  0  0  0  0
    8.3966    8.5940   23.7910 C   0  0  0  0  0  0  0  0  0  0  0  0
    9.6592    9.6185   23.0957 S   0  0  0  0  0  0  0  0  0  0  0  0
  1  2  1  0
  3  2  1  1
  3  4  1  0
  4  5  1  0
  5  6  1  0
  3  7  1  0
  7  8  1  0
  8  9  2  0
  8 10  1  0
 10 11  1  0
 11 12  2  0
 12 13  1  0
 13 14  1  0
 14 15  2  0
 14 16  1  0
 13 17  1  0
 17 18  1  0
 18 19  1  0
 16 10  2  0
 19 12  1  0
M  END
>  <distance_score>  (332) 
1.618411

>  <smiles>  (332) 
CCC(COC)NC(=O)c1cc2n(c(=O)c1)CCS2

>  <fragmenstein_error>  (332) 


>  <fragmenstein_runtime>  (332) 
4.224115

>  <gnina_score_min>  (332) 
4.652

>  <orig_smiles>  (332) 
CCC(COC)NC(=O)c1cc2n(c(=O)c1)CCS2

>  <fragmenstein_mode>  (332) 
expansion

>  <rmsd(smina/fragmenstein)>  (332) 
3.354

>  <inspiration_score>  (332) 
None

>  <name>  (332) 
YJDIOSSIZRBCCU-UHFFFAOYSA-N-P141-P135-P141-601504

>  <ref_pdb>  (332) 
A0514b

>  <ref_mols>  (332) 
A3176a,A2629a

>  <subsites>  (332) 
None

>  <tags>  (332) 
openbind_a71ev2a_c1_elabs_filtered,fragmenstein_placed,a71ev2a_c1_elab_bulkdock_input,openbind_a71ev2a_c1_elab_chemspace_filtered_scored

>  <inchikey>  (332) 
YJDIOSSIZRBCCU-UHFFFAOYSA-N

>  <scratch_subdir>  (332) 
/opt/xchem-fragalysis-2/maxwin/BulkDock/SCRATCH/601504/YJDIOSSIZRBCCU-UHFFFAOYSA-N-P141-P135-P141-601504

>  <smina_score_min>  (332) 
-3.976

>  <energy_score>  (332) 
-6.532184

>  <Energy>  (332) 
13.153427

>  <fragmenstein_outcome>  (332) 
too moved

>  <alias>  (332) 
YJDIOSSIZRBCCU-UHFFFAOYSA-N-P141-P135-P141-601504

>  <HIPPO Pose ID>  (332) 
506872

>  <exports>  (332) 
['/opt/xchem-fragalysis-2/maxwin/openbind-hippo/a71ev2a/cycle_01/bulkdock/openbind_a71ev2a_c1_elab_chemspace.sdf', '/opt/xchem-fragalysis-2/maxwin/openbind-hippo/a71ev2a/cycle_01/syndirella/elabs/openbind_a71ev2a_c1_elab_chemspace_filtered.sdf']

>  <HIPPO Compound ID>  (332) 
290963

>  <gnina_score>  (332) 
4.256

$$$$
APUJVGCTMAQZPW-UHFFFAOYSA-N-P141-P135-P141-601504
     RDKit          3D

 19 21  0  0  0  0  0  0  0  0999 V2000
   12.5130   15.8445   22.3371 C   0  0  0  0  0  0  0  0  0  0  0  0
   11.4016   15.3000   21.4623 C   0  0  1  0  0  0  0  0  0  0  0  0
   10.5912   14.4030   22.2458 N   0  0  0  0  0  0  0  0  0  0  0  0
   10.1745   14.4660   23.7371 C   0  0  0  0  0  0  0  0  0  0  0  0
   10.4859   15.2111   24.5776 O   0  0  0  0  0  0  0  0  0  0  0  0
    9.3282   13.2875   23.9943 C   0  0  0  0  0  0  0  0  0  0  0  0
    9.8071   12.0708   23.4131 C   0  0  0  0  0  0  0  0  0  0  0  0
    9.1632   10.9552   23.6579 C   0  0  0  0  0  0  0  0  0  0  0  0
    8.0812   10.9326   24.4731 N   0  0  0  0  0  0  0  0  0  0  0  0
    7.6115   12.0177   25.1620 C   0  0  0  0  0  0  0  0  0  0  0  0
    6.7435   11.9255   26.0221 O   0  0  0  0  0  0  0  0  0  0  0  0
    8.2899   13.3052   24.8463 C   0  0  0  0  0  0  0  0  0  0  0  0
    7.5861    9.6264   24.7490 C   0  0  0  0  0  0  0  0  0  0  0  0
    8.3257    8.6329   23.8770 C   0  0  0  0  0  0  0  0  0  0  0  0
    9.6638    9.4552   23.0620 S   0  0  0  0  0  0  0  0  0  0  0  0
   10.4508   16.2335   20.7175 C   0  0  0  0  0  0  0  0  0  0  0  0
   10.5126   15.7792   19.2609 C   0  0  0  0  0  0  0  0  0  0  0  0
   11.1224   14.4902   19.2666 O   0  0  0  0  0  0  0  0  0  0  0  0
   12.0718   14.5289   20.3237 C   0  0  0  0  0  0  0  0  0  0  0  0
  2  1  1  1
  2  3  1  0
  3  4  1  0
  4  5  2  0
  4  6  1  0
  6  7  1  0
  7  8  2  0
  8  9  1  0
  9 10  1  0
 10 11  2  0
 10 12  1  0
  9 13  1  0
 13 14  1  0
 14 15  1  0
  2 16  1  0
 16 17  1  0
 17 18  1  0
 18 19  1  0
 19  2  1  0
 12  6  2  0
 15  8  1  0
M  END
>  <distance_score>  (333) 
1.753084

>  <smiles>  (333) 
CC1(NC(=O)c2cc3n(c(=O)c2)CCS3)CCOC1

>  <fragmenstein_error>  (333) 


>  <fragmenstein_runtime>  (333) 
4.815512

>  <gnina_score_min>  (333) 
4.942

>  <orig_smiles>  (333) 
CC1(NC(=O)c2cc3n(c(=O)c2)CCS3)CCOC1

>  <fragmenstein_mode>  (333) 
expansion

>  <rmsd(smina/fragmenstein)>  (333) 
1.57

>  <inspiration_score>  (333) 
None

>  <name>  (333) 
APUJVGCTMAQZPW-UHFFFAOYSA-N-P141-P135-P141-601504

>  <ref_pdb>  (333) 
A0514b

>  <ref_mols>  (333) 
A3176a,A2629a

>  <subsites>  (333) 
None

>  <tags>  (333) 
openbind_a71ev2a_c1_elabs_filtered,fragmenstein_placed,a71ev2a_c1_elab_bulkdock_input,openbind_a71ev2a_c1_elab_chemspace_filtered_scored

>  <inchikey>  (333) 
APUJVGCTMAQZPW-UHFFFAOYSA-N

>  <scratch_subdir>  (333) 
/opt/xchem-fragalysis-2/maxwin/BulkDock/SCRATCH/601504/APUJVGCTMAQZPW-UHFFFAOYSA-N-P141-P135-P141-601504

>  <smina_score_min>  (333) 
-4.819

>  <energy_score>  (333) 
-11.674866

>  <Energy>  (333) 
13.324261

>  <fragmenstein_outcome>  (333) 
too moved

>  <alias>  (333) 
APUJVGCTMAQZPW-UHFFFAOYSA-N-P141-P135-P141-601504

>  <HIPPO Pose ID>  (333) 
506888

>  <exports>  (333) 
['/opt/xchem-fragalysis-2/maxwin/openbind-hippo/a71ev2a/cycle_01/bulkdock/openbind_a71ev2a_c1_elab_chemspace.sdf', '/opt/xchem-fragalysis-2/maxwin/openbind-hippo/a71ev2a/cycle_01/syndirella/elabs/openbind_a71ev2a_c1_elab_chemspace_filtered.sdf']

>  <HIPPO Compound ID>  (333) 
290971

>  <gnina_score>  (333) 
4.519

$$$$
HCQOGGNDLJEIHN-UHFFFAOYSA-N-P135-P135-P141-601504
     RDKit          3D

 20 23  0  0  0  0  0  0  0  0999 V2000
   10.4635   13.6326   20.7089 O   0  0  0  0  0  0  0  0  0  0  0  0
   11.3674   13.9682   21.4118 C   0  0  0  0  0  0  0  0  0  0  0  0
   11.6372   13.6771   22.7826 N   0  0  0  0  0  0  0  0  0  0  0  0
   10.8572   12.9671   23.7735 C   0  0  2  0  0  0  0  0  0  0  0  0
   10.5558   11.5221   23.3751 C   0  0  0  0  0  0  0  0  0  0  0  0
    9.0719   11.4029   23.6645 C   0  0  1  0  0  0  0  0  0  0  0  0
    8.7632   11.5663   25.1483 C   0  0  0  0  0  0  0  0  0  0  0  0
    8.8897   13.0765   25.3312 C   0  0  0  0  0  0  0  0  0  0  0  0
    9.4171   13.5166   23.9673 C   0  0  2  0  0  0  0  0  0  0  0  0
    8.5937   12.6551   23.1322 O   0  0  0  0  0  0  0  0  0  0  0  0
   12.3847   14.9349   20.7752 C   0  0  0  0  0  0  0  0  0  0  0  0
   12.3406   15.1199   19.3219 C   0  0  0  0  0  0  0  0  0  0  0  0
   12.9663   16.1602   18.7656 C   0  0  0  0  0  0  0  0  0  0  0  0
   13.7585   16.9979   19.4966 N   0  0  0  0  0  0  0  0  0  0  0  0
   13.8990   16.8900   20.8517 C   0  0  0  0  0  0  0  0  0  0  0  0
   14.5806   17.6715   21.5091 O   0  0  0  0  0  0  0  0  0  0  0  0
   13.1225   15.7975   21.4971 C   0  0  0  0  0  0  0  0  0  0  0  0
   14.3320   18.1076   18.7629 C   0  0  0  0  0  0  0  0  0  0  0  0
   14.2924   17.7583   17.2904 C   0  0  0  0  0  0  0  0  0  0  0  0
   12.8124   16.7130   17.1421 S   0  0  0  0  0  0  0  0  0  0  0  0
  1  2  2  0
  2  3  1  0
  4  3  1  6
  4  5  1  0
  6  5  1  1
  6  7  1  0
  7  8  1  0
  9  8  1  1
  9 10  1  0
  2 11  1  0
 11 12  1  0
 12 13  2  0
 13 14  1  0
 14 15  1  0
 15 16  2  0
 15 17  1  0
 14 18  1  0
 18 19  1  0
 19 20  1  0
  9  4  1  0
 17 11  2  0
 10  6  1  0
 20 13  1  0
M  END
>  <distance_score>  (334) 
1.869938

>  <smiles>  (334) 
O=C(NC1CC2CCC1O2)c1cc2n(c(=O)c1)CCS2

>  <fragmenstein_error>  (334) 


>  <fragmenstein_runtime>  (334) 
7.259935

>  <gnina_score_min>  (334) 
4.961

>  <orig_smiles>  (334) 
O=C(NC1CC2CCC1O2)c1cc2n(c(=O)c1)CCS2

>  <fragmenstein_mode>  (334) 
expansion

>  <rmsd(smina/fragmenstein)>  (334) 
3.617

>  <inspiration_score>  (334) 
None

>  <name>  (334) 
HCQOGGNDLJEIHN-UHFFFAOYSA-N-P135-P135-P141-601504

>  <ref_pdb>  (334) 
A0514b

>  <ref_mols>  (334) 
A3176a,A2629a

>  <subsites>  (334) 
None

>  <tags>  (334) 
openbind_a71ev2a_c1_elabs_filtered,fragmenstein_placed,a71ev2a_c1_elab_bulkdock_input,openbind_a71ev2a_c1_elab_chemspace_filtered_scored

>  <inchikey>  (334) 
HCQOGGNDLJEIHN-UHFFFAOYSA-N

>  <scratch_subdir>  (334) 
/opt/xchem-fragalysis-2/maxwin/BulkDock/SCRATCH/601504/HCQOGGNDLJEIHN-UHFFFAOYSA-N-P135-P135-P141-601504

>  <smina_score_min>  (334) 
3.35

>  <energy_score>  (334) 
-18.684858

>  <Energy>  (334) 
7.702381

>  <fragmenstein_outcome>  (334) 
too moved

>  <alias>  (334) 
HCQOGGNDLJEIHN-UHFFFAOYSA-N-P135-P135-P141-601504

>  <HIPPO Pose ID>  (334) 
506909

>  <exports>  (334) 
['/opt/xchem-fragalysis-2/maxwin/openbind-hippo/a71ev2a/cycle_01/bulkdock/openbind_a71ev2a_c1_elab_chemspace.sdf', '/opt/xchem-fragalysis-2/maxwin/openbind-hippo/a71ev2a/cycle_01/syndirella/elabs/openbind_a71ev2a_c1_elab_chemspace_filtered.sdf']

>  <HIPPO Compound ID>  (334) 
290982

>  <gnina_score>  (334) 
3.817

$$$$
BEODMKGCEBJHBY-UHFFFAOYSA-N-P135-P135-P141-601504
     RDKit          3D

 20 22  0  0  0  0  0  0  0  0999 V2000
    7.6909   11.6326   25.2944 C   0  0  0  0  0  0  0  0  0  0  0  0
    7.7010   12.9608   24.5404 C   0  0  0  0  0  0  0  0  0  0  0  0
    9.0337   13.5678   24.0305 C   0  0  1  0  0  0  0  0  0  0  0  0
   10.0481   13.2798   24.9829 O   0  0  0  0  0  0  0  0  0  0  0  0
   10.6723   12.0662   24.5476 C   0  0  0  0  0  0  0  0  0  0  0  0
   10.1578   11.6831   23.1708 C   0  0  0  0  0  0  0  0  0  0  0  0
    9.5107   12.9585   22.7093 C   0  0  2  0  0  0  0  0  0  0  0  0
   10.4528   13.7509   21.9354 N   0  0  0  0  0  0  0  0  0  0  0  0
   11.9890   13.8647   22.0383 C   0  0  0  0  0  0  0  0  0  0  0  0
   12.7464   13.2840   22.7073 O   0  0  0  0  0  0  0  0  0  0  0  0
   12.4014   14.9878   21.1584 C   0  0  0  0  0  0  0  0  0  0  0  0
   12.7160   14.9308   19.7561 C   0  0  0  0  0  0  0  0  0  0  0  0
   13.0695   16.0790   19.1673 C   0  0  0  0  0  0  0  0  0  0  0  0
   13.1332   17.2665   19.8461 N   0  0  0  0  0  0  0  0  0  0  0  0
   12.6348   17.4268   21.1062 C   0  0  0  0  0  0  0  0  0  0  0  0
   12.4807   18.5281   21.6253 O   0  0  0  0  0  0  0  0  0  0  0  0
   12.3081   16.1628   21.7868 C   0  0  0  0  0  0  0  0  0  0  0  0
   13.5563   18.4154   19.0802 C   0  0  0  0  0  0  0  0  0  0  0  0
   14.2900   17.8975   17.8730 C   0  0  0  0  0  0  0  0  0  0  0  0
   13.3998   16.3655   17.5239 S   0  0  0  0  0  0  0  0  0  0  0  0
  1  2  1  0
  3  2  1  1
  3  4  1  0
  4  5  1  0
  5  6  1  0
  6  7  1  0
  7  8  1  1
  8  9  1  0
  9 10  2  0
  9 11  1  0
 11 12  1  0
 12 13  2  0
 13 14  1  0
 14 15  1  0
 15 16  2  0
 15 17  1  0
 14 18  1  0
 18 19  1  0
 19 20  1  0
  7  3  1  0
 17 11  2  0
 20 13  1  0
M  END
>  <distance_score>  (335) 
1.647135

>  <smiles>  (335) 
CCC1OCCC1NC(=O)c1cc2n(c(=O)c1)CCS2

>  <fragmenstein_error>  (335) 


>  <fragmenstein_runtime>  (335) 
7.976195

>  <gnina_score_min>  (335) 
4.802

>  <orig_smiles>  (335) 
CCC1OCCC1NC(=O)c1cc2n(c(=O)c1)CCS2

>  <fragmenstein_mode>  (335) 
expansion

>  <rmsd(smina/fragmenstein)>  (335) 
4.052

>  <inspiration_score>  (335) 
None

>  <name>  (335) 
BEODMKGCEBJHBY-UHFFFAOYSA-N-P135-P135-P141-601504

>  <ref_pdb>  (335) 
A0514b

>  <ref_mols>  (335) 
A3176a,A2629a

>  <subsites>  (335) 
None

>  <tags>  (335) 
openbind_a71ev2a_c1_elabs_filtered,fragmenstein_placed,a71ev2a_c1_elab_bulkdock_input,openbind_a71ev2a_c1_elab_chemspace_filtered_scored

>  <inchikey>  (335) 
BEODMKGCEBJHBY-UHFFFAOYSA-N

>  <scratch_subdir>  (335) 
/opt/xchem-fragalysis-2/maxwin/BulkDock/SCRATCH/601504/BEODMKGCEBJHBY-UHFFFAOYSA-N-P135-P135-P141-601504

>  <smina_score_min>  (335) 
-3.118

>  <energy_score>  (335) 
-9.907776

>  <Energy>  (335) 
9.455513

>  <fragmenstein_outcome>  (335) 
too moved

>  <alias>  (335) 
BEODMKGCEBJHBY-UHFFFAOYSA-N-P135-P135-P141-601504

>  <HIPPO Pose ID>  (335) 
506913

>  <exports>  (335) 
['/opt/xchem-fragalysis-2/maxwin/openbind-hippo/a71ev2a/cycle_01/bulkdock/openbind_a71ev2a_c1_elab_chemspace.sdf', '/opt/xchem-fragalysis-2/maxwin/openbind-hippo/a71ev2a/cycle_01/syndirella/elabs/openbind_a71ev2a_c1_elab_chemspace_filtered.sdf']

>  <HIPPO Compound ID>  (335) 
290984

>  <gnina_score>  (335) 
3.351

$$$$
SZKAHURSLMYUAD-UHFFFAOYSA-N-P135-P135-P141-601504
     RDKit          3D

 20 22  0  0  0  0  0  0  0  0999 V2000
   14.7270   18.5632   20.5548 C   0  0  0  0  0  0  0  0  0  0  0  0
   14.0944   17.4564   20.9717 C   0  0  0  0  0  0  0  0  0  0  0  0
   12.8446   16.8600   20.3804 C   0  0  1  0  0  0  0  0  0  0  0  0
   12.7560   17.3008   18.9996 O   0  0  0  0  0  0  0  0  0  0  0  0
   13.1743   16.1931   18.1954 C   0  0  0  0  0  0  0  0  0  0  0  0
   12.5869   15.0019   18.8968 C   0  0  0  0  0  0  0  0  0  0  0  0
   12.8530   15.3162   20.3523 C   0  0  2  0  0  0  0  0  0  0  0  0
   11.8880   14.6240   21.1707 N   0  0  0  0  0  0  0  0  0  0  0  0
   12.0862   13.7177   22.4084 C   0  0  0  0  0  0  0  0  0  0  0  0
   13.0637   13.3285   22.9117 O   0  0  0  0  0  0  0  0  0  0  0  0
   10.7681   13.2602   22.8896 C   0  0  0  0  0  0  0  0  0  0  0  0
   10.4763   11.8596   23.1120 C   0  0  0  0  0  0  0  0  0  0  0  0
    9.3962   11.5624   23.8289 C   0  0  0  0  0  0  0  0  0  0  0  0
    8.5227   12.5418   24.2414 N   0  0  0  0  0  0  0  0  0  0  0  0
    8.6260   13.8424   23.8151 C   0  0  0  0  0  0  0  0  0  0  0  0
    7.7272   14.6679   23.8426 O   0  0  0  0  0  0  0  0  0  0  0  0
    9.9276   14.2224   23.2758 C   0  0  0  0  0  0  0  0  0  0  0  0
    7.3394   12.0591   24.9154 C   0  0  0  0  0  0  0  0  0  0  0  0
    7.6641   10.6879   25.4629 C   0  0  0  0  0  0  0  0  0  0  0  0
    8.9083   10.0050   24.3197 S   0  0  0  0  0  0  0  0  0  0  0  0
  1  2  2  0
  3  2  1  6
  3  4  1  0
  4  5  1  0
  5  6  1  0
  6  7  1  0
  7  8  1  1
  8  9  1  0
  9 10  2  0
  9 11  1  0
 11 12  1  0
 12 13  2  0
 13 14  1  0
 14 15  1  0
 15 16  2  0
 15 17  1  0
 14 18  1  0
 18 19  1  0
 19 20  1  0
  7  3  1  0
 17 11  2  0
 20 13  1  0
M  END
>  <distance_score>  (336) 
1.489544

>  <smiles>  (336) 
C=CC1OCCC1NC(=O)c1cc2n(c(=O)c1)CCS2

>  <fragmenstein_error>  (336) 


>  <fragmenstein_runtime>  (336) 
4.659414

>  <gnina_score_min>  (336) 
4.807

>  <orig_smiles>  (336) 
C=CC1OCCC1NC(=O)c1cc2n(c(=O)c1)CCS2

>  <fragmenstein_mode>  (336) 
expansion

>  <rmsd(smina/fragmenstein)>  (336) 
3.16

>  <inspiration_score>  (336) 
None

>  <name>  (336) 
SZKAHURSLMYUAD-UHFFFAOYSA-N-P135-P135-P141-601504

>  <ref_pdb>  (336) 
A0514b

>  <ref_mols>  (336) 
A3176a,A2629a

>  <subsites>  (336) 
None

>  <tags>  (336) 
openbind_a71ev2a_c1_elabs_filtered,fragmenstein_placed,a71ev2a_c1_elab_bulkdock_input,openbind_a71ev2a_c1_elab_chemspace_filtered_scored

>  <inchikey>  (336) 
SZKAHURSLMYUAD-UHFFFAOYSA-N

>  <scratch_subdir>  (336) 
/opt/xchem-fragalysis-2/maxwin/BulkDock/SCRATCH/601504/SZKAHURSLMYUAD-UHFFFAOYSA-N-P135-P135-P141-601504

>  <smina_score_min>  (336) 
-1.133

>  <energy_score>  (336) 
-36.23321

>  <Energy>  (336) 
10.210317

>  <fragmenstein_outcome>  (336) 
too moved

>  <alias>  (336) 
SZKAHURSLMYUAD-UHFFFAOYSA-N-P135-P135-P141-601504

>  <HIPPO Pose ID>  (336) 
506917

>  <exports>  (336) 
['/opt/xchem-fragalysis-2/maxwin/openbind-hippo/a71ev2a/cycle_01/bulkdock/openbind_a71ev2a_c1_elab_chemspace.sdf', '/opt/xchem-fragalysis-2/maxwin/openbind-hippo/a71ev2a/cycle_01/syndirella/elabs/openbind_a71ev2a_c1_elab_chemspace_filtered.sdf']

>  <HIPPO Compound ID>  (336) 
290986

>  <gnina_score>  (336) 
4.04

$$$$
HJNZCZYZWYBPKS-UHFFFAOYSA-N-P141-P135-P141-601504
     RDKit          3D

 20 22  0  0  0  0  0  0  0  0999 V2000
    9.1083   17.6460   20.2639 C   0  0  0  0  0  0  0  0  0  0  0  0
   10.4553   17.2430   20.1036 O   0  0  0  0  0  0  0  0  0  0  0  0
   10.9186   16.3492   21.1000 C   0  0  0  0  0  0  0  0  0  0  0  0
   11.2054   14.9909   20.4971 C   0  0  0  0  0  0  0  0  0  0  0  0
   10.7345   14.0888   21.5110 N   0  0  0  0  0  0  0  0  0  0  0  0
   11.4573   13.4874   22.7244 C   0  0  0  0  0  0  0  0  0  0  0  0
   12.5689   13.5644   23.0538 O   0  0  0  0  0  0  0  0  0  0  0  0
   10.4093   12.8350   23.5013 C   0  0  0  0  0  0  0  0  0  0  0  0
    9.8116   11.5483   23.3094 C   0  0  0  0  0  0  0  0  0  0  0  0
    8.7940   11.2468   24.1105 C   0  0  0  0  0  0  0  0  0  0  0  0
    8.2485   12.1734   24.9699 N   0  0  0  0  0  0  0  0  0  0  0  0
    8.6833   13.4734   25.0562 C   0  0  0  0  0  0  0  0  0  0  0  0
    8.1522   14.3773   25.6854 O   0  0  0  0  0  0  0  0  0  0  0  0
    9.9065   13.7624   24.3254 C   0  0  0  0  0  0  0  0  0  0  0  0
    7.0095   11.7721   25.5908 C   0  0  0  0  0  0  0  0  0  0  0  0
    6.8868   10.2683   25.4825 C   0  0  0  0  0  0  0  0  0  0  0  0
    8.0531    9.7221   24.2093 S   0  0  0  0  0  0  0  0  0  0  0  0
   10.7565   14.7157   19.0577 C   0  0  0  0  0  0  0  0  0  0  0  0
   12.1103   15.1651   18.5800 C   0  0  0  0  0  0  0  0  0  0  0  0
   12.6234   14.7620   19.9795 C   0  0  0  0  0  0  0  0  0  0  0  0
  1  2  1  0
  2  3  1  0
  3  4  1  0
  4  5  1  0
  5  6  1  0
  6  7  2  0
  6  8  1  0
  8  9  1  0
  9 10  2  0
 10 11  1  0
 11 12  1  0
 12 13  2  0
 12 14  1  0
 11 15  1  0
 15 16  1  0
 16 17  1  0
  4 18  1  0
 18 19  1  0
 19 20  1  0
 20  4  1  0
 14  8  2  0
 17 10  1  0
M  END
>  <distance_score>  (337) 
1.914295

>  <smiles>  (337) 
COCC1(NC(=O)c2cc3n(c(=O)c2)CCS3)CCC1

>  <fragmenstein_error>  (337) 


>  <fragmenstein_runtime>  (337) 
6.691542

>  <gnina_score_min>  (337) 
4.863

>  <orig_smiles>  (337) 
COCC1(NC(=O)c2cc3n(c(=O)c2)CCS3)CCC1

>  <fragmenstein_mode>  (337) 
expansion

>  <rmsd(smina/fragmenstein)>  (337) 
1.588

>  <inspiration_score>  (337) 
None

>  <name>  (337) 
HJNZCZYZWYBPKS-UHFFFAOYSA-N-P141-P135-P141-601504

>  <ref_pdb>  (337) 
A0514b

>  <ref_mols>  (337) 
A3176a,A2629a

>  <subsites>  (337) 
None

>  <tags>  (337) 
openbind_a71ev2a_c1_elabs_filtered,fragmenstein_placed,a71ev2a_c1_elab_bulkdock_input,openbind_a71ev2a_c1_elab_chemspace_filtered_scored

>  <inchikey>  (337) 
HJNZCZYZWYBPKS-UHFFFAOYSA-N

>  <scratch_subdir>  (337) 
/opt/xchem-fragalysis-2/maxwin/BulkDock/SCRATCH/601504/HJNZCZYZWYBPKS-UHFFFAOYSA-N-P141-P135-P141-601504

>  <smina_score_min>  (337) 
-4.557

>  <energy_score>  (337) 
-3.633266

>  <Energy>  (337) 
25.103064

>  <fragmenstein_outcome>  (337) 
too moved

>  <alias>  (337) 
HJNZCZYZWYBPKS-UHFFFAOYSA-N-P141-P135-P141-601504

>  <HIPPO Pose ID>  (337) 
506932

>  <exports>  (337) 
['/opt/xchem-fragalysis-2/maxwin/openbind-hippo/a71ev2a/cycle_01/syndirella/elabs/openbind_a71ev2a_c1_elab_chemspace_filtered.sdf']

>  <HIPPO Compound ID>  (337) 
290993

>  <gnina_score>  (337) 
4.752

$$$$
QNKAJJQLFZDZPX-UHFFFAOYSA-N-P141-P135-P141-601504
     RDKit          3D

 20 21  0  0  0  0  0  0  0  0999 V2000
   11.3389   15.1655   18.5399 C   0  0  0  0  0  0  0  0  0  0  0  0
   11.3324   14.1205   19.4851 O   0  0  0  0  0  0  0  0  0  0  0  0
   12.0686   14.3700   20.6590 C   0  0  0  0  0  0  0  0  0  0  0  0
   11.2590   14.9716   21.8157 C   0  0  1  0  0  0  0  0  0  0  0  0
   12.3041   15.5624   22.7767 C   0  0  0  0  0  0  0  0  0  0  0  0
   10.2529   16.0520   21.3424 C   0  0  0  0  0  0  0  0  0  0  0  0
    9.3386   15.6977   20.3218 O   0  0  0  0  0  0  0  0  0  0  0  0
   10.5093   14.0267   22.6576 N   0  0  0  0  0  0  0  0  0  0  0  0
    9.0806   13.4960   22.5266 C   0  0  0  0  0  0  0  0  0  0  0  0
    8.2897   13.6588   21.6908 O   0  0  0  0  0  0  0  0  0  0  0  0
    8.7478   12.7524   23.7632 C   0  0  0  0  0  0  0  0  0  0  0  0
    8.3335   13.6133   24.8401 C   0  0  0  0  0  0  0  0  0  0  0  0
    7.5342   13.1212   25.7760 C   0  0  0  0  0  0  0  0  0  0  0  0
    7.2178   11.7936   25.8076 N   0  0  0  0  0  0  0  0  0  0  0  0
    7.6719   10.8762   24.8789 C   0  0  0  0  0  0  0  0  0  0  0  0
    7.3490    9.6924   24.8929 O   0  0  0  0  0  0  0  0  0  0  0  0
    8.5215   11.4323   23.7840 C   0  0  0  0  0  0  0  0  0  0  0  0
    6.0811   11.4987   26.6562 C   0  0  0  0  0  0  0  0  0  0  0  0
    5.9435   12.5847   27.7144 C   0  0  0  0  0  0  0  0  0  0  0  0
    6.7309   14.0511   26.9826 S   0  0  0  0  0  0  0  0  0  0  0  0
  1  2  1  0
  2  3  1  0
  3  4  1  0
  4  5  1  1
  4  6  1  0
  6  7  1  0
  4  8  1  0
  8  9  1  0
  9 10  2  0
  9 11  1  0
 11 12  1  0
 12 13  2  0
 13 14  1  0
 14 15  1  0
 15 16  2  0
 15 17  1  0
 14 18  1  0
 18 19  1  0
 19 20  1  0
 17 11  2  0
 20 13  1  0
M  END
>  <distance_score>  (338) 
1.964482

>  <smiles>  (338) 
COCC(C)(CO)NC(=O)c1cc2n(c(=O)c1)CCS2

>  <fragmenstein_error>  (338) 


>  <fragmenstein_runtime>  (338) 
5.081709

>  <gnina_score_min>  (338) 
4.696

>  <orig_smiles>  (338) 
COCC(C)(CO)NC(=O)c1cc2n(c(=O)c1)CCS2

>  <fragmenstein_mode>  (338) 
expansion

>  <rmsd(smina/fragmenstein)>  (338) 
1.598

>  <inspiration_score>  (338) 
None

>  <name>  (338) 
QNKAJJQLFZDZPX-UHFFFAOYSA-N-P141-P135-P141-601504

>  <ref_pdb>  (338) 
A0514b

>  <ref_mols>  (338) 
A3176a,A2629a

>  <subsites>  (338) 
None

>  <tags>  (338) 
openbind_a71ev2a_c1_elabs_filtered,fragmenstein_placed,a71ev2a_c1_elab_bulkdock_input,openbind_a71ev2a_c1_elab_chemspace_filtered_scored

>  <inchikey>  (338) 
QNKAJJQLFZDZPX-UHFFFAOYSA-N

>  <scratch_subdir>  (338) 
/opt/xchem-fragalysis-2/maxwin/BulkDock/SCRATCH/601504/QNKAJJQLFZDZPX-UHFFFAOYSA-N-P141-P135-P141-601504

>  <smina_score_min>  (338) 
-3.767

>  <energy_score>  (338) 
-39.242039

>  <Energy>  (338) 
38.710446

>  <fragmenstein_outcome>  (338) 
too moved

>  <alias>  (338) 
QNKAJJQLFZDZPX-UHFFFAOYSA-N-P141-P135-P141-601504

>  <HIPPO Pose ID>  (338) 
506948

>  <exports>  (338) 
['/opt/xchem-fragalysis-2/maxwin/openbind-hippo/a71ev2a/cycle_01/bulkdock/openbind_a71ev2a_c1_elab_chemspace.sdf', '/opt/xchem-fragalysis-2/maxwin/openbind-hippo/a71ev2a/cycle_01/syndirella/elabs/openbind_a71ev2a_c1_elab_chemspace_filtered.sdf']

>  <HIPPO Compound ID>  (338) 
291001

>  <gnina_score>  (338) 
4.701

$$$$
NKUUEFRWHWENJV-UHFFFAOYSA-N-P141-P135-P141-601504
     RDKit          3D

 20 20  0  0  0  0  0  0  0  0999 V2000
    9.7445   17.2480   18.7766 C   0  0  0  0  0  0  0  0  0  0  0  0
   10.5921   16.0056   18.9541 C   0  0  0  0  0  0  0  0  0  0  0  0
   10.9632   15.8515   20.3308 O   0  0  0  0  0  0  0  0  0  0  0  0
   11.8054   14.7155   20.4637 C   0  0  0  0  0  0  0  0  0  0  0  0
   12.0161   14.2574   21.9066 C   0  0  1  0  0  0  0  0  0  0  0  0
   12.6094   15.3309   22.7929 C   0  0  0  0  0  0  0  0  0  0  0  0
   10.9086   13.6609   22.6050 N   0  0  0  0  0  0  0  0  0  0  0  0
    9.4320   13.5706   22.2299 C   0  0  0  0  0  0  0  0  0  0  0  0
    8.8533   14.0282   21.3343 O   0  0  0  0  0  0  0  0  0  0  0  0
    8.7386   12.8444   23.2936 C   0  0  0  0  0  0  0  0  0  0  0  0
    8.7618   11.4652   23.4319 C   0  0  0  0  0  0  0  0  0  0  0  0
    8.1664   10.9412   24.5593 C   0  0  0  0  0  0  0  0  0  0  0  0
    7.6502   11.7063   25.5461 N   0  0  0  0  0  0  0  0  0  0  0  0
    7.6730   13.0498   25.3724 C   0  0  0  0  0  0  0  0  0  0  0  0
    7.2407   14.0645   26.7468 S   0  0  0  0  0  0  0  0  0  0  0  0
    5.7288   14.9992   26.2060 C   0  0  0  0  0  0  0  0  0  0  0  0
    4.9772   15.3499   27.5032 C   0  0  0  0  0  0  0  0  0  0  0  0
    6.1348   16.3033   25.5077 C   0  0  0  0  0  0  0  0  0  0  0  0
    4.8034   14.1766   25.3099 C   0  0  0  0  0  0  0  0  0  0  0  0
    8.1998   13.6539   24.2626 C   0  0  0  0  0  0  0  0  0  0  0  0
  1  2  1  0
  2  3  1  0
  3  4  1  0
  4  5  1  0
  5  6  1  1
  5  7  1  0
  7  8  1  0
  8  9  2  0
  8 10  1  0
 10 11  2  0
 11 12  1  0
 12 13  2  0
 13 14  1  0
 14 15  1  0
 15 16  1  0
 16 17  1  0
 16 18  1  0
 16 19  1  0
 14 20  2  0
 20 10  1  0
M  END
>  <distance_score>  (339) 
1.975639

>  <smiles>  (339) 
CCOCC(C)NC(=O)c1ccnc(SC(C)(C)C)c1

>  <fragmenstein_error>  (339) 


>  <fragmenstein_runtime>  (339) 
5.778622

>  <gnina_score_min>  (339) 
4.685

>  <orig_smiles>  (339) 
CCOCC(C)NC(=O)c1ccnc(SC(C)(C)C)c1

>  <fragmenstein_mode>  (339) 
expansion

>  <rmsd(smina/fragmenstein)>  (339) 
1.343

>  <inspiration_score>  (339) 
None

>  <name>  (339) 
NKUUEFRWHWENJV-UHFFFAOYSA-N-P141-P135-P141-601504

>  <ref_pdb>  (339) 
A0514b

>  <ref_mols>  (339) 
A3176a,A2629a

>  <subsites>  (339) 
None

>  <tags>  (339) 
openbind_a71ev2a_c1_elabs_filtered,fragmenstein_placed,a71ev2a_c1_elab_bulkdock_input,openbind_a71ev2a_c1_elab_chemspace_filtered_scored

>  <inchikey>  (339) 
NKUUEFRWHWENJV-UHFFFAOYSA-N

>  <scratch_subdir>  (339) 
/opt/xchem-fragalysis-2/maxwin/BulkDock/SCRATCH/601504/NKUUEFRWHWENJV-UHFFFAOYSA-N-P141-P135-P141-601504

>  <smina_score_min>  (339) 
-4.932

>  <energy_score>  (339) 
-11.502213

>  <Energy>  (339) 
38.961643

>  <fragmenstein_outcome>  (339) 
too moved

>  <alias>  (339) 
NKUUEFRWHWENJV-UHFFFAOYSA-N-P141-P135-P141-601504

>  <HIPPO Pose ID>  (339) 
506972

>  <exports>  (339) 
['/opt/xchem-fragalysis-2/maxwin/openbind-hippo/a71ev2a/cycle_01/bulkdock/openbind_a71ev2a_c1_elab_chemspace.sdf', '/opt/xchem-fragalysis-2/maxwin/openbind-hippo/a71ev2a/cycle_01/syndirella/elabs/openbind_a71ev2a_c1_elab_chemspace_filtered.sdf']

>  <HIPPO Compound ID>  (339) 
291013

>  <gnina_score>  (339) 
4.811

$$$$
MJAIRFAALKWXPA-UHFFFAOYSA-N-P135-P135-P141-601504
     RDKit          3D

 20 23  0  0  0  0  0  0  0  0999 V2000
   11.2448   15.8804   22.6325 O   0  0  0  0  0  0  0  0  0  0  0  0
   11.5987   14.9023   22.0489 C   0  0  0  0  0  0  0  0  0  0  0  0
   11.1917   13.5633   22.1733 N   0  0  0  0  0  0  0  0  0  0  0  0
   10.3015   12.9414   23.0941 C   0  0  1  0  0  0  0  0  0  0  0  0
    8.8552   13.4625   22.9421 C   0  0  0  0  0  0  0  0  0  0  0  0
    8.0042   12.4596   23.5284 O   0  0  0  0  0  0  0  0  0  0  0  0
    8.8771   11.4205   24.0007 C   0  0  0  0  0  0  0  0  0  0  0  0
    8.3681   10.2422   24.7578 C   0  0  0  0  0  0  0  0  0  0  0  0
    8.9705   11.3960   25.4982 C   0  0  0  0  0  0  0  0  0  0  0  0
   10.1520   11.4454   23.2125 C   0  0  0  0  0  0  0  0  0  0  0  0
   12.6206   15.1748   20.9815 C   0  0  0  0  0  0  0  0  0  0  0  0
   12.3259   15.2076   19.5665 C   0  0  0  0  0  0  0  0  0  0  0  0
   12.9227   16.1486   18.8236 C   0  0  0  0  0  0  0  0  0  0  0  0
   13.8575   17.0085   19.3413 N   0  0  0  0  0  0  0  0  0  0  0  0
   14.2100   17.0203   20.6654 C   0  0  0  0  0  0  0  0  0  0  0  0
   14.9528   17.8603   21.1676 O   0  0  0  0  0  0  0  0  0  0  0  0
   13.5660   15.9823   21.4849 C   0  0  0  0  0  0  0  0  0  0  0  0
   14.2865   18.0709   18.4624 C   0  0  0  0  0  0  0  0  0  0  0  0
   13.9680   17.6576   17.0451 C   0  0  0  0  0  0  0  0  0  0  0  0
   12.5237   16.5673   17.2038 S   0  0  0  0  0  0  0  0  0  0  0  0
  1  2  2  0
  2  3  1  0
  4  3  1  6
  4  5  1  0
  5  6  1  0
  6  7  1  0
  7  8  1  0
  8  9  1  0
  7 10  1  0
  2 11  1  0
 11 12  1  0
 12 13  2  0
 13 14  1  0
 14 15  1  0
 15 16  2  0
 15 17  1  0
 14 18  1  0
 18 19  1  0
 19 20  1  0
 10  4  1  0
 17 11  2  0
  9  7  1  0
 20 13  1  0
M  END
>  <distance_score>  (340) 
1.85466

>  <smiles>  (340) 
O=C(NC1COC2(CC2)C1)c1cc2n(c(=O)c1)CCS2

>  <fragmenstein_error>  (340) 


>  <fragmenstein_runtime>  (340) 
7.291598

>  <gnina_score_min>  (340) 
4.918

>  <orig_smiles>  (340) 
O=C(NC1COC2(CC2)C1)c1cc2n(c(=O)c1)CCS2

>  <fragmenstein_mode>  (340) 
expansion

>  <rmsd(smina/fragmenstein)>  (340) 
4.12

>  <inspiration_score>  (340) 
None

>  <name>  (340) 
MJAIRFAALKWXPA-UHFFFAOYSA-N-P135-P135-P141-601504

>  <ref_pdb>  (340) 
A0514b

>  <ref_mols>  (340) 
A3176a,A2629a

>  <subsites>  (340) 
None

>  <tags>  (340) 
openbind_a71ev2a_c1_elabs_filtered,fragmenstein_placed,a71ev2a_c1_elab_bulkdock_input,openbind_a71ev2a_c1_elab_chemspace_filtered_scored

>  <inchikey>  (340) 
MJAIRFAALKWXPA-UHFFFAOYSA-N

>  <scratch_subdir>  (340) 
/opt/xchem-fragalysis-2/maxwin/BulkDock/SCRATCH/601504/MJAIRFAALKWXPA-UHFFFAOYSA-N-P135-P135-P141-601504

>  <smina_score_min>  (340) 
3.267

>  <energy_score>  (340) 
-12.76038

>  <Energy>  (340) 
8.122483

>  <fragmenstein_outcome>  (340) 
too moved

>  <alias>  (340) 
MJAIRFAALKWXPA-UHFFFAOYSA-N-P135-P135-P141-601504

>  <HIPPO Pose ID>  (340) 
506977

>  <exports>  (340) 
['/opt/xchem-fragalysis-2/maxwin/openbind-hippo/a71ev2a/cycle_01/bulkdock/openbind_a71ev2a_c1_elab_chemspace.sdf', '/opt/xchem-fragalysis-2/maxwin/openbind-hippo/a71ev2a/cycle_01/syndirella/elabs/openbind_a71ev2a_c1_elab_chemspace_filtered.sdf']

>  <HIPPO Compound ID>  (340) 
291016

>  <gnina_score>  (340) 
3.653

$$$$
IMDFRWOIAURBJH-UHFFFAOYSA-N-P135-P135-P141-601504
     RDKit          3D

 20 21  0  0  0  0  0  0  0  0999 V2000
    9.5439   13.5582   25.1718 C   0  0  0  0  0  0  0  0  0  0  0  0
    9.4195   12.4320   24.4676 C   0  0  0  0  0  0  0  0  0  0  0  0
    8.7606   11.2196   25.0401 C   0  0  0  0  0  0  0  0  0  0  0  0
    9.0434   10.1275   24.1543 O   0  0  0  0  0  0  0  0  0  0  0  0
   10.0112   10.5954   23.2090 C   0  0  0  0  0  0  0  0  0  0  0  0
    9.7660   12.0883   23.0650 C   0  0  2  0  0  0  0  0  0  0  0  0
   10.7848   12.8018   22.3456 N   0  0  0  0  0  0  0  0  0  0  0  0
   11.1037   14.3025   22.2931 C   0  0  0  0  0  0  0  0  0  0  0  0
   10.6419   15.1932   22.8836 O   0  0  0  0  0  0  0  0  0  0  0  0
   12.0997   14.6569   21.2383 C   0  0  0  0  0  0  0  0  0  0  0  0
   11.9536   14.1785   19.9484 C   0  0  0  0  0  0  0  0  0  0  0  0
   12.5915   14.8368   18.9159 C   0  0  0  0  0  0  0  0  0  0  0  0
   13.3482   15.9341   19.0701 N   0  0  0  0  0  0  0  0  0  0  0  0
   13.5003   16.3643   20.3392 C   0  0  0  0  0  0  0  0  0  0  0  0
   14.4879   17.8021   20.6159 S   0  0  0  0  0  0  0  0  0  0  0  0
   13.3913   19.1231   20.0253 C   0  0  0  0  0  0  0  0  0  0  0  0
   12.0931   19.2028   20.8237 C   0  0  0  0  0  0  0  0  0  0  0  0
   14.1693   20.4352   20.2747 C   0  0  0  0  0  0  0  0  0  0  0  0
   13.1289   19.0273   18.5173 C   0  0  0  0  0  0  0  0  0  0  0  0
   12.9189   15.7514   21.4363 C   0  0  0  0  0  0  0  0  0  0  0  0
  1  2  2  0
  2  3  1  0
  3  4  1  0
  4  5  1  0
  5  6  1  0
  6  7  1  1
  7  8  1  0
  8  9  2  0
  8 10  1  0
 10 11  2  0
 11 12  1  0
 12 13  2  0
 13 14  1  0
 14 15  1  0
 15 16  1  0
 16 17  1  0
 16 18  1  0
 16 19  1  0
 14 20  2  0
  6  2  1  0
 20 10  1  0
M  END
>  <distance_score>  (341) 
1.923801

>  <smiles>  (341) 
C=C1COCC1NC(=O)c1ccnc(SC(C)(C)C)c1

>  <fragmenstein_error>  (341) 


>  <fragmenstein_runtime>  (341) 
3.933093

>  <gnina_score_min>  (341) 
4.872

>  <orig_smiles>  (341) 
C=C1COCC1NC(=O)c1ccnc(SC(C)(C)C)c1

>  <fragmenstein_mode>  (341) 
expansion

>  <rmsd(smina/fragmenstein)>  (341) 
4.57

>  <inspiration_score>  (341) 
None

>  <name>  (341) 
IMDFRWOIAURBJH-UHFFFAOYSA-N-P135-P135-P141-601504

>  <ref_pdb>  (341) 
A0514b

>  <ref_mols>  (341) 
A3176a,A2629a

>  <subsites>  (341) 
None

>  <tags>  (341) 
openbind_a71ev2a_c1_elabs_filtered,fragmenstein_placed,a71ev2a_c1_elab_bulkdock_input,openbind_a71ev2a_c1_elab_chemspace_filtered_scored

>  <inchikey>  (341) 
IMDFRWOIAURBJH-UHFFFAOYSA-N

>  <scratch_subdir>  (341) 
/opt/xchem-fragalysis-2/maxwin/BulkDock/SCRATCH/601504/IMDFRWOIAURBJH-UHFFFAOYSA-N-P135-P135-P141-601504

>  <smina_score_min>  (341) 
2.911

>  <energy_score>  (341) 
-1.661138

>  <Energy>  (341) 
46.21631

>  <fragmenstein_outcome>  (341) 
too moved

>  <alias>  (341) 
IMDFRWOIAURBJH-UHFFFAOYSA-N-P135-P135-P141-601504

>  <HIPPO Pose ID>  (341) 
507029

>  <exports>  (341) 
['/opt/xchem-fragalysis-2/maxwin/openbind-hippo/a71ev2a/cycle_01/bulkdock/openbind_a71ev2a_c1_elab_chemspace.sdf', '/opt/xchem-fragalysis-2/maxwin/openbind-hippo/a71ev2a/cycle_01/syndirella/elabs/openbind_a71ev2a_c1_elab_chemspace_filtered.sdf']

>  <HIPPO Compound ID>  (341) 
291042

>  <gnina_score>  (341) 
3.454

$$$$
UZNCYGDXRYRGJJ-UHFFFAOYSA-N-P141-P135-P141-601504
     RDKit          3D

 20 20  0  0  0  0  0  0  0  0999 V2000
   11.2085   15.1918   18.9555 C   0  0  0  0  0  0  0  0  0  0  0  0
   11.0783   15.4510   20.3449 O   0  0  0  0  0  0  0  0  0  0  0  0
   12.0404   14.7530   21.1333 C   0  0  0  0  0  0  0  0  0  0  0  0
   11.5893   14.7954   22.5887 C   0  0  2  0  0  0  0  0  0  0  0  0
   12.6718   14.5281   23.5437 C   0  0  0  0  0  0  0  0  0  0  0  0
   13.3538   14.1704   24.4145 N   0  0  0  0  0  0  0  0  0  0  0  0
   10.5716   13.8365   22.9556 N   0  0  0  0  0  0  0  0  0  0  0  0
    9.1746   13.6173   22.4000 C   0  0  0  0  0  0  0  0  0  0  0  0
    8.6347   14.1167   21.5061 O   0  0  0  0  0  0  0  0  0  0  0  0
    8.5070   12.6665   23.2955 C   0  0  0  0  0  0  0  0  0  0  0  0
    8.7923   11.3132   23.3526 C   0  0  0  0  0  0  0  0  0  0  0  0
    8.2564   10.6118   24.4096 C   0  0  0  0  0  0  0  0  0  0  0  0
    7.5800   11.2017   25.4196 N   0  0  0  0  0  0  0  0  0  0  0  0
    7.3628   12.5376   25.3498 C   0  0  0  0  0  0  0  0  0  0  0  0
    6.8094   13.3083   26.8334 S   0  0  0  0  0  0  0  0  0  0  0  0
    5.5519   14.6086   26.3966 C   0  0  0  0  0  0  0  0  0  0  0  0
    4.6625   14.7310   27.6520 C   0  0  0  0  0  0  0  0  0  0  0  0
    6.2383   15.9635   26.1720 C   0  0  0  0  0  0  0  0  0  0  0  0
    4.6545   14.2397   25.2169 C   0  0  0  0  0  0  0  0  0  0  0  0
    7.7850   13.2903   24.2891 C   0  0  0  0  0  0  0  0  0  0  0  0
  1  2  1  0
  2  3  1  0
  4  3  1  6
  4  5  1  0
  5  6  3  0
  4  7  1  0
  7  8  1  0
  8  9  2  0
  8 10  1  0
 10 11  2  0
 11 12  1  0
 12 13  2  0
 13 14  1  0
 14 15  1  0
 15 16  1  0
 16 17  1  0
 16 18  1  0
 16 19  1  0
 14 20  2  0
 20 10  1  0
M  END
>  <distance_score>  (342) 
1.793145

>  <smiles>  (342) 
COCC(C#N)NC(=O)c1ccnc(SC(C)(C)C)c1

>  <fragmenstein_error>  (342) 


>  <fragmenstein_runtime>  (342) 
4.555385

>  <gnina_score_min>  (342) 
4.768

>  <orig_smiles>  (342) 
COCC(C#N)NC(=O)c1ccnc(SC(C)(C)C)c1

>  <fragmenstein_mode>  (342) 
expansion

>  <rmsd(smina/fragmenstein)>  (342) 
1.995

>  <inspiration_score>  (342) 
None

>  <name>  (342) 
UZNCYGDXRYRGJJ-UHFFFAOYSA-N-P141-P135-P141-601504

>  <ref_pdb>  (342) 
A0514b

>  <ref_mols>  (342) 
A3176a,A2629a

>  <subsites>  (342) 
None

>  <tags>  (342) 
openbind_a71ev2a_c1_elabs_filtered,fragmenstein_placed,a71ev2a_c1_elab_bulkdock_input,openbind_a71ev2a_c1_elab_chemspace_filtered_scored

>  <inchikey>  (342) 
UZNCYGDXRYRGJJ-UHFFFAOYSA-N

>  <scratch_subdir>  (342) 
/opt/xchem-fragalysis-2/maxwin/BulkDock/SCRATCH/601504/UZNCYGDXRYRGJJ-UHFFFAOYSA-N-P141-P135-P141-601504

>  <smina_score_min>  (342) 
-5.198

>  <energy_score>  (342) 
-1.847647

>  <Energy>  (342) 
55.675746

>  <fragmenstein_outcome>  (342) 
too moved

>  <alias>  (342) 
UZNCYGDXRYRGJJ-UHFFFAOYSA-N-P141-P135-P141-601504

>  <HIPPO Pose ID>  (342) 
507042

>  <exports>  (342) 
['/opt/xchem-fragalysis-2/maxwin/openbind-hippo/a71ev2a/cycle_01/bulkdock/openbind_a71ev2a_c1_elab_chemspace.sdf', '/opt/xchem-fragalysis-2/maxwin/openbind-hippo/a71ev2a/cycle_01/syndirella/elabs/openbind_a71ev2a_c1_elab_chemspace_filtered.sdf']

>  <HIPPO Compound ID>  (342) 
291048

>  <gnina_score>  (342) 
4.953

$$$$
CLPVVRIXYQAQKH-UHFFFAOYSA-N-P141-P135-P141-601504
     RDKit          3D

 21 21  0  0  0  0  0  0  0  0999 V2000
    9.9317   17.0093   18.4515 C   0  0  0  0  0  0  0  0  0  0  0  0
   10.7739   15.8122   18.8680 C   0  0  0  0  0  0  0  0  0  0  0  0
   10.8429   15.8587   20.2851 O   0  0  0  0  0  0  0  0  0  0  0  0
   11.7447   14.9287   20.8697 C   0  0  0  0  0  0  0  0  0  0  0  0
   11.4567   14.9716   22.3656 C   0  0  2  0  0  0  0  0  0  0  0  0
   12.6870   14.7640   23.2308 C   0  0  0  0  0  0  0  0  0  0  0  0
   12.3722   14.9680   24.6209 O   0  0  0  0  0  0  0  0  0  0  0  0
   10.4700   14.0311   22.8517 N   0  0  0  0  0  0  0  0  0  0  0  0
    9.0737   13.7023   22.3332 C   0  0  0  0  0  0  0  0  0  0  0  0
    8.5153   14.0747   21.3879 O   0  0  0  0  0  0  0  0  0  0  0  0
    8.4372   12.8464   23.3372 C   0  0  0  0  0  0  0  0  0  0  0  0
    8.6842   11.4928   23.4891 C   0  0  0  0  0  0  0  0  0  0  0  0
    8.2126   10.9014   24.6418 C   0  0  0  0  0  0  0  0  0  0  0  0
    7.6627   11.5974   25.6640 N   0  0  0  0  0  0  0  0  0  0  0  0
    7.4826   12.9237   25.4823 C   0  0  0  0  0  0  0  0  0  0  0  0
    7.1034   13.9556   26.8709 S   0  0  0  0  0  0  0  0  0  0  0  0
    5.2737   13.7365   27.0371 C   0  0  0  0  0  0  0  0  0  0  0  0
    4.8645   14.5144   28.2996 C   0  0  0  0  0  0  0  0  0  0  0  0
    4.5542   14.3421   25.8270 C   0  0  0  0  0  0  0  0  0  0  0  0
    4.8972   12.2631   27.2226 C   0  0  0  0  0  0  0  0  0  0  0  0
    7.8093   13.5740   24.3227 C   0  0  0  0  0  0  0  0  0  0  0  0
  1  2  1  0
  2  3  1  0
  3  4  1  0
  5  4  1  6
  5  6  1  0
  6  7  1  0
  5  8  1  0
  8  9  1  0
  9 10  2  0
  9 11  1  0
 11 12  2  0
 12 13  1  0
 13 14  2  0
 14 15  1  0
 15 16  1  0
 16 17  1  0
 17 18  1  0
 17 19  1  0
 17 20  1  0
 15 21  2  0
 21 11  1  0
M  END
>  <distance_score>  (343) 
1.988468

>  <smiles>  (343) 
CCOCC(CO)NC(=O)c1ccnc(SC(C)(C)C)c1

>  <fragmenstein_error>  (343) 


>  <fragmenstein_runtime>  (343) 
7.191738

>  <gnina_score_min>  (343) 
4.572

>  <orig_smiles>  (343) 
CCOCC(CO)NC(=O)c1ccnc(SC(C)(C)C)c1

>  <fragmenstein_mode>  (343) 
expansion

>  <rmsd(smina/fragmenstein)>  (343) 
1.176

>  <inspiration_score>  (343) 
None

>  <name>  (343) 
CLPVVRIXYQAQKH-UHFFFAOYSA-N-P141-P135-P141-601504

>  <ref_pdb>  (343) 
A0514b

>  <ref_mols>  (343) 
A3176a,A2629a

>  <subsites>  (343) 
None

>  <tags>  (343) 
openbind_a71ev2a_c1_elabs_filtered,fragmenstein_placed,a71ev2a_c1_elab_bulkdock_input,openbind_a71ev2a_c1_elab_chemspace_filtered_scored

>  <inchikey>  (343) 
CLPVVRIXYQAQKH-UHFFFAOYSA-N

>  <scratch_subdir>  (343) 
/opt/xchem-fragalysis-2/maxwin/BulkDock/SCRATCH/601504/CLPVVRIXYQAQKH-UHFFFAOYSA-N-P141-P135-P141-601504

>  <smina_score_min>  (343) 
-4.643

>  <energy_score>  (343) 
-10.007679

>  <Energy>  (343) 
56.806673

>  <fragmenstein_outcome>  (343) 
too moved

>  <alias>  (343) 
CLPVVRIXYQAQKH-UHFFFAOYSA-N-P141-P135-P141-601504

>  <HIPPO Pose ID>  (343) 
507100

>  <exports>  (343) 
['/opt/xchem-fragalysis-2/maxwin/openbind-hippo/a71ev2a/cycle_01/bulkdock/openbind_a71ev2a_c1_elab_chemspace.sdf', '/opt/xchem-fragalysis-2/maxwin/openbind-hippo/a71ev2a/cycle_01/syndirella/elabs/openbind_a71ev2a_c1_elab_chemspace_filtered.sdf']

>  <HIPPO Compound ID>  (343) 
291077

>  <gnina_score>  (343) 
4.954

$$$$
HYMDELIBTGMHQU-UHFFFAOYSA-N-P135-P135-P141-601504
     RDKit          3D

 21 21  0  0  0  0  0  0  0  0999 V2000
   11.9425   14.8429   18.6147 C   0  0  0  0  0  0  0  0  0  0  0  0
   11.3433   14.3966   19.8115 O   0  0  0  0  0  0  0  0  0  0  0  0
   12.3181   14.1327   20.7952 C   0  0  0  0  0  0  0  0  0  0  0  0
   11.7891   14.3611   22.1963 C   0  0  2  0  0  0  0  0  0  0  0  0
   12.8423   13.9579   23.2043 C   0  0  0  0  0  0  0  0  0  0  0  0
   13.2166   12.5859   23.1534 O   0  0  0  0  0  0  0  0  0  0  0  0
   10.5552   13.6950   22.5448 N   0  0  0  0  0  0  0  0  0  0  0  0
   10.1338   12.9876   23.8439 C   0  0  0  0  0  0  0  0  0  0  0  0
   10.7420   12.7612   24.8137 O   0  0  0  0  0  0  0  0  0  0  0  0
    8.7150   12.6283   23.9076 C   0  0  0  0  0  0  0  0  0  0  0  0
    7.7496   13.4720   23.3739 C   0  0  0  0  0  0  0  0  0  0  0  0
    6.4689   13.3345   23.8463 C   0  0  0  0  0  0  0  0  0  0  0  0
    6.1466   12.5039   24.8496 N   0  0  0  0  0  0  0  0  0  0  0  0
    7.1096   11.7195   25.3574 C   0  0  0  0  0  0  0  0  0  0  0  0
    6.6901   10.8611   26.8292 S   0  0  0  0  0  0  0  0  0  0  0  0
    5.9478   12.2439   27.7577 C   0  0  0  0  0  0  0  0  0  0  0  0
    4.5600   11.9295   28.2865 C   0  0  0  0  0  0  0  0  0  0  0  0
    4.0980   13.0045   28.9770 F   0  0  0  0  0  0  0  0  0  0  0  0
    3.6729   11.6750   27.3049 F   0  0  0  0  0  0  0  0  0  0  0  0
    4.5700   10.8880   29.1447 F   0  0  0  0  0  0  0  0  0  0  0  0
    8.3825   11.6690   24.8568 C   0  0  0  0  0  0  0  0  0  0  0  0
  1  2  1  0
  2  3  1  0
  4  3  1  6
  4  5  1  0
  5  6  1  0
  4  7  1  0
  7  8  1  0
  8  9  2  0
  8 10  1  0
 10 11  2  0
 11 12  1  0
 12 13  2  0
 13 14  1  0
 14 15  1  0
 15 16  1  0
 16 17  1  0
 17 18  1  0
 17 19  1  0
 17 20  1  0
 14 21  2  0
 21 10  1  0
M  END
>  <distance_score>  (344) 
1.973598

>  <smiles>  (344) 
COCC(CO)NC(=O)c1ccnc(SCC(F)(F)F)c1

>  <fragmenstein_error>  (344) 


>  <fragmenstein_runtime>  (344) 
5.279935

>  <gnina_score_min>  (344) 
4.455

>  <orig_smiles>  (344) 
COCC(CO)NC(=O)c1ccnc(SCC(F)(F)F)c1

>  <fragmenstein_mode>  (344) 
expansion

>  <rmsd(smina/fragmenstein)>  (344) 
1.672

>  <inspiration_score>  (344) 
None

>  <name>  (344) 
HYMDELIBTGMHQU-UHFFFAOYSA-N-P135-P135-P141-601504

>  <ref_pdb>  (344) 
A0514b

>  <ref_mols>  (344) 
A3176a,A2629a

>  <subsites>  (344) 
None

>  <tags>  (344) 
openbind_a71ev2a_c1_elabs_filtered,fragmenstein_placed,a71ev2a_c1_elab_bulkdock_input,openbind_a71ev2a_c1_elab_chemspace_filtered_scored

>  <inchikey>  (344) 
HYMDELIBTGMHQU-UHFFFAOYSA-N

>  <scratch_subdir>  (344) 
/opt/xchem-fragalysis-2/maxwin/BulkDock/SCRATCH/601504/HYMDELIBTGMHQU-UHFFFAOYSA-N-P135-P135-P141-601504

>  <smina_score_min>  (344) 
-3.913

>  <energy_score>  (344) 
-9.119579

>  <Energy>  (344) 
66.242641

>  <fragmenstein_outcome>  (344) 
too moved

>  <alias>  (344) 
HYMDELIBTGMHQU-UHFFFAOYSA-N-P135-P135-P141-601504

>  <HIPPO Pose ID>  (344) 
507157

>  <exports>  (344) 
['/opt/xchem-fragalysis-2/maxwin/openbind-hippo/a71ev2a/cycle_01/bulkdock/openbind_a71ev2a_c1_elab_chemspace.sdf', '/opt/xchem-fragalysis-2/maxwin/openbind-hippo/a71ev2a/cycle_01/syndirella/elabs/openbind_a71ev2a_c1_elab_chemspace_filtered.sdf']

>  <HIPPO Compound ID>  (344) 
291106

>  <gnina_score>  (344) 
4.668

$$$$
QUAFGWNJYKPAFK-UHFFFAOYSA-N-P135-P135-P141-601504
     RDKit          3D

 21 22  0  0  0  0  0  0  0  0999 V2000
    9.9007   13.6432   21.1272 O   0  0  0  0  0  0  0  0  0  0  0  0
   10.9702   13.6680   21.5776 C   0  0  0  0  0  0  0  0  0  0  0  0
   11.4871   13.1742   22.9239 N   0  0  0  0  0  0  0  0  0  0  0  0
   10.8177   12.4536   23.9766 C   0  0  2  0  0  0  0  0  0  0  0  0
   10.2528   11.0994   23.5582 C   0  0  0  0  0  0  0  0  0  0  0  0
    9.1922   10.7919   24.4754 O   0  0  0  0  0  0  0  0  0  0  0  0
    8.7222   12.0325   25.0276 C   0  0  0  0  0  0  0  0  0  0  0  0
    9.5387   13.1476   24.4137 C   0  0  1  0  0  0  0  0  0  0  0  0
    9.8253   14.0985   25.3287 F   0  0  0  0  0  0  0  0  0  0  0  0
   12.0175   14.3721   20.7772 C   0  0  0  0  0  0  0  0  0  0  0  0
   12.0192   14.1743   19.4044 C   0  0  0  0  0  0  0  0  0  0  0  0
   12.6591   15.0841   18.5984 C   0  0  0  0  0  0  0  0  0  0  0  0
   13.3457   16.1323   19.0539 N   0  0  0  0  0  0  0  0  0  0  0  0
   13.4170   16.2449   20.3918 C   0  0  0  0  0  0  0  0  0  0  0  0
   14.2375   17.6919   20.9532 S   0  0  0  0  0  0  0  0  0  0  0  0
   12.8263   18.7902   20.7258 C   0  0  0  0  0  0  0  0  0  0  0  0
   12.8468   19.5462   19.4075 C   0  0  0  0  0  0  0  0  0  0  0  0
   14.0640   20.0684   19.1277 F   0  0  0  0  0  0  0  0  0  0  0  0
   12.4559   18.8104   18.3476 F   0  0  0  0  0  0  0  0  0  0  0  0
   11.9996   20.6068   19.4891 F   0  0  0  0  0  0  0  0  0  0  0  0
   12.7675   15.4122   21.2985 C   0  0  0  0  0  0  0  0  0  0  0  0
  1  2  2  0
  2  3  1  0
  4  3  1  6
  4  5  1  0
  5  6  1  0
  6  7  1  0
  7  8  1  0
  8  9  1  1
  2 10  1  0
 10 11  2  0
 11 12  1  0
 12 13  2  0
 13 14  1  0
 14 15  1  0
 15 16  1  0
 16 17  1  0
 17 18  1  0
 17 19  1  0
 17 20  1  0
 14 21  2  0
  8  4  1  0
 21 10  1  0
M  END
>  <distance_score>  (345) 
1.59812

>  <smiles>  (345) 
O=C(NC1COCC1F)c1ccnc(SCC(F)(F)F)c1

>  <fragmenstein_error>  (345) 


>  <fragmenstein_runtime>  (345) 
4.211994

>  <gnina_score_min>  (345) 
4.872

>  <orig_smiles>  (345) 
O=C(NC1COCC1F)c1ccnc(SCC(F)(F)F)c1

>  <fragmenstein_mode>  (345) 
expansion

>  <rmsd(smina/fragmenstein)>  (345) 
5.347

>  <inspiration_score>  (345) 
None

>  <name>  (345) 
QUAFGWNJYKPAFK-UHFFFAOYSA-N-P135-P135-P141-601504

>  <ref_pdb>  (345) 
A0514b

>  <ref_mols>  (345) 
A3176a,A2629a

>  <subsites>  (345) 
None

>  <tags>  (345) 
openbind_a71ev2a_c1_elabs_filtered,fragmenstein_placed,a71ev2a_c1_elab_bulkdock_input,openbind_a71ev2a_c1_elab_chemspace_filtered_scored

>  <inchikey>  (345) 
QUAFGWNJYKPAFK-UHFFFAOYSA-N

>  <scratch_subdir>  (345) 
/opt/xchem-fragalysis-2/maxwin/BulkDock/SCRATCH/601504/QUAFGWNJYKPAFK-UHFFFAOYSA-N-P135-P135-P141-601504

>  <smina_score_min>  (345) 
-4.455

>  <energy_score>  (345) 
-2.951019

>  <Energy>  (345) 
61.214254

>  <fragmenstein_outcome>  (345) 
too moved

>  <alias>  (345) 
QUAFGWNJYKPAFK-UHFFFAOYSA-N-P135-P135-P141-601504

>  <HIPPO Pose ID>  (345) 
507173

>  <exports>  (345) 
['/opt/xchem-fragalysis-2/maxwin/openbind-hippo/a71ev2a/cycle_01/bulkdock/openbind_a71ev2a_c1_elab_chemspace.sdf', '/opt/xchem-fragalysis-2/maxwin/openbind-hippo/a71ev2a/cycle_01/syndirella/elabs/openbind_a71ev2a_c1_elab_chemspace_filtered.sdf']

>  <HIPPO Compound ID>  (345) 
291114

>  <gnina_score>  (345) 
3.361

$$$$
SDAAPWIOBMMAJO-UHFFFAOYSA-N-P135-P135-P141-601504
     RDKit          3D

 21 21  0  0  0  0  0  0  0  0999 V2000
   12.3270   15.4910   18.3726 C   0  0  0  0  0  0  0  0  0  0  0  0
   11.6831   14.4777   19.1199 O   0  0  0  0  0  0  0  0  0  0  0  0
   12.5008   14.1043   20.2239 C   0  0  0  0  0  0  0  0  0  0  0  0
   11.8841   14.4336   21.5503 C   0  0  2  0  0  0  0  0  0  0  0  0
   12.9038   14.6832   22.6247 C   0  0  0  0  0  0  0  0  0  0  0  0
   13.3329   13.5108   23.1787 F   0  0  0  0  0  0  0  0  0  0  0  0
   10.9962   13.4785   22.1575 N   0  0  0  0  0  0  0  0  0  0  0  0
    9.6269   13.6650   22.7890 C   0  0  0  0  0  0  0  0  0  0  0  0
    8.9507   14.6062   22.8570 O   0  0  0  0  0  0  0  0  0  0  0  0
    9.1699   12.4456   23.5016 C   0  0  0  0  0  0  0  0  0  0  0  0
    9.5189   11.1341   23.2234 C   0  0  0  0  0  0  0  0  0  0  0  0
    9.0750   10.1517   24.0878 C   0  0  0  0  0  0  0  0  0  0  0  0
    8.3711   10.4092   25.2104 N   0  0  0  0  0  0  0  0  0  0  0  0
    8.0955   11.6890   25.4888 C   0  0  0  0  0  0  0  0  0  0  0  0
    7.2299   12.0189   26.9900 S   0  0  0  0  0  0  0  0  0  0  0  0
    5.6427   12.5045   26.2308 C   0  0  0  0  0  0  0  0  0  0  0  0
    4.6752   13.0123   27.2685 C   0  0  0  0  0  0  0  0  0  0  0  0
    5.1678   14.0625   27.9627 F   0  0  0  0  0  0  0  0  0  0  0  0
    3.5135   13.4054   26.7072 F   0  0  0  0  0  0  0  0  0  0  0  0
    4.3986   12.0316   28.1396 F   0  0  0  0  0  0  0  0  0  0  0  0
    8.4583   12.7202   24.6612 C   0  0  0  0  0  0  0  0  0  0  0  0
  1  2  1  0
  2  3  1  0
  4  3  1  6
  4  5  1  0
  5  6  1  0
  4  7  1  0
  7  8  1  0
  8  9  2  0
  8 10  1  0
 10 11  2  0
 11 12  1  0
 12 13  2  0
 13 14  1  0
 14 15  1  0
 15 16  1  0
 16 17  1  0
 17 18  1  0
 17 19  1  0
 17 20  1  0
 14 21  2  0
 21 10  1  0
M  END
>  <distance_score>  (346) 
1.867992

>  <smiles>  (346) 
COCC(CF)NC(=O)c1ccnc(SCC(F)(F)F)c1

>  <fragmenstein_error>  (346) 


>  <fragmenstein_runtime>  (346) 
3.740139

>  <gnina_score_min>  (346) 
4.884

>  <orig_smiles>  (346) 
COCC(CF)NC(=O)c1ccnc(SCC(F)(F)F)c1

>  <fragmenstein_mode>  (346) 
expansion

>  <rmsd(smina/fragmenstein)>  (346) 
1.72

>  <inspiration_score>  (346) 
None

>  <name>  (346) 
SDAAPWIOBMMAJO-UHFFFAOYSA-N-P135-P135-P141-601504

>  <ref_pdb>  (346) 
A0514b

>  <ref_mols>  (346) 
A3176a,A2629a

>  <subsites>  (346) 
None

>  <tags>  (346) 
openbind_a71ev2a_c1_elabs_filtered,fragmenstein_placed,a71ev2a_c1_elab_bulkdock_input,openbind_a71ev2a_c1_elab_chemspace_filtered_scored

>  <inchikey>  (346) 
SDAAPWIOBMMAJO-UHFFFAOYSA-N

>  <scratch_subdir>  (346) 
/opt/xchem-fragalysis-2/maxwin/BulkDock/SCRATCH/601504/SDAAPWIOBMMAJO-UHFFFAOYSA-N-P135-P135-P141-601504

>  <smina_score_min>  (346) 
-4.912

>  <energy_score>  (346) 
-16.139572

>  <Energy>  (346) 
62.191135

>  <fragmenstein_outcome>  (346) 
too moved

>  <alias>  (346) 
SDAAPWIOBMMAJO-UHFFFAOYSA-N-P135-P135-P141-601504

>  <HIPPO Pose ID>  (346) 
507175

>  <exports>  (346) 
['/opt/xchem-fragalysis-2/maxwin/openbind-hippo/a71ev2a/cycle_01/bulkdock/openbind_a71ev2a_c1_elab_chemspace.sdf', '/opt/xchem-fragalysis-2/maxwin/openbind-hippo/a71ev2a/cycle_01/syndirella/elabs/openbind_a71ev2a_c1_elab_chemspace_filtered.sdf']

>  <HIPPO Compound ID>  (346) 
291115

>  <gnina_score>  (346) 
4.859

$$$$
IMOUFNIZQPFYQN-UHFFFAOYSA-N-P141-P135-P141-601504
     RDKit          3D

 22 22  0  0  0  0  0  0  0  0999 V2000
   10.7843   15.2103   18.8201 C   0  0  0  0  0  0  0  0  0  0  0  0
   10.5502   14.8320   20.1773 O   0  0  0  0  0  0  0  0  0  0  0  0
   11.6518   14.2887   20.7784 C   0  0  0  0  0  0  0  0  0  0  0  0
   12.6564   13.9444   20.1723 O   0  0  0  0  0  0  0  0  0  0  0  0
   11.4701   14.2837   22.3110 C   0  0  0  0  0  0  0  0  0  0  0  0
   11.4266   15.7441   22.6714 C   0  0  0  0  0  0  0  0  0  0  0  0
   12.6340   13.7720   23.1260 C   0  0  0  0  0  0  0  0  0  0  0  0
   10.3038   13.5891   22.8202 N   0  0  0  0  0  0  0  0  0  0  0  0
    9.6309   13.6488   24.1967 C   0  0  0  0  0  0  0  0  0  0  0  0
    9.8575   14.3224   25.1197 O   0  0  0  0  0  0  0  0  0  0  0  0
    8.5947   12.6110   24.3980 C   0  0  0  0  0  0  0  0  0  0  0  0
    8.7815   11.2906   24.0138 C   0  0  0  0  0  0  0  0  0  0  0  0
    7.9416   10.3442   24.5698 C   0  0  0  0  0  0  0  0  0  0  0  0
    6.9629   10.6311   25.4594 N   0  0  0  0  0  0  0  0  0  0  0  0
    6.7707   11.9283   25.7759 C   0  0  0  0  0  0  0  0  0  0  0  0
    5.4747   12.3819   26.9198 S   0  0  0  0  0  0  0  0  0  0  0  0
    5.2002   10.8346   27.8597 C   0  0  0  0  0  0  0  0  0  0  0  0
    5.2854   11.0485   29.3599 C   0  0  0  0  0  0  0  0  0  0  0  0
    5.1147    9.8718   30.0105 F   0  0  0  0  0  0  0  0  0  0  0  0
    6.4904   11.5313   29.7405 F   0  0  0  0  0  0  0  0  0  0  0  0
    4.3352   11.8947   29.8116 F   0  0  0  0  0  0  0  0  0  0  0  0
    7.5527   12.9382   25.2542 C   0  0  0  0  0  0  0  0  0  0  0  0
  1  2  1  0
  2  3  1  0
  3  4  2  0
  3  5  1  0
  5  6  1  0
  5  7  1  0
  5  8  1  0
  8  9  1  0
  9 10  2  0
  9 11  1  0
 11 12  2  0
 12 13  1  0
 13 14  2  0
 14 15  1  0
 15 16  1  0
 16 17  1  0
 17 18  1  0
 18 19  1  0
 18 20  1  0
 18 21  1  0
 15 22  2  0
 22 11  1  0
M  END
>  <distance_score>  (347) 
1.92339

>  <smiles>  (347) 
COC(=O)C(C)(C)NC(=O)c1ccnc(SCC(F)(F)F)c1

>  <fragmenstein_error>  (347) 


>  <fragmenstein_runtime>  (347) 
4.770489

>  <gnina_score_min>  (347) 
5.272

>  <orig_smiles>  (347) 
COC(=O)C(C)(C)NC(=O)c1ccnc(SCC(F)(F)F)c1

>  <fragmenstein_mode>  (347) 
expansion

>  <rmsd(smina/fragmenstein)>  (347) 
2.127

>  <inspiration_score>  (347) 
None

>  <name>  (347) 
IMOUFNIZQPFYQN-UHFFFAOYSA-N-P141-P135-P141-601504

>  <ref_pdb>  (347) 
A0514b

>  <ref_mols>  (347) 
A3176a,A2629a

>  <subsites>  (347) 
None

>  <tags>  (347) 
openbind_a71ev2a_c1_elabs_filtered,fragmenstein_placed,a71ev2a_c1_elab_bulkdock_input,openbind_a71ev2a_c1_elab_chemspace_filtered_scored

>  <inchikey>  (347) 
IMOUFNIZQPFYQN-UHFFFAOYSA-N

>  <scratch_subdir>  (347) 
/opt/xchem-fragalysis-2/maxwin/BulkDock/SCRATCH/601504/IMOUFNIZQPFYQN-UHFFFAOYSA-N-P141-P135-P141-601504

>  <smina_score_min>  (347) 
-5.018

>  <energy_score>  (347) 
-1.758725

>  <Energy>  (347) 
59.995038

>  <fragmenstein_outcome>  (347) 
too moved

>  <alias>  (347) 
IMOUFNIZQPFYQN-UHFFFAOYSA-N-P141-P135-P141-601504

>  <HIPPO Pose ID>  (347) 
507220

>  <exports>  (347) 
['/opt/xchem-fragalysis-2/maxwin/openbind-hippo/a71ev2a/cycle_01/bulkdock/openbind_a71ev2a_c1_elab_chemspace.sdf', '/opt/xchem-fragalysis-2/maxwin/openbind-hippo/a71ev2a/cycle_01/syndirella/elabs/openbind_a71ev2a_c1_elab_chemspace_filtered.sdf']

>  <HIPPO Compound ID>  (347) 
291137

>  <gnina_score>  (347) 
4.93

$$$$
JGQWRMSNUSJEKV-UHFFFAOYSA-N-P141-P135-P141-601504
     RDKit          3D

 22 22  0  0  0  0  0  0  0  0999 V2000
   11.9780   15.1583   18.6398 C   0  0  0  0  0  0  0  0  0  0  0  0
   10.6694   14.9697   19.3426 C   0  0  0  0  0  0  0  0  0  0  0  0
   10.4327   15.7121   20.5135 O   0  0  0  0  0  0  0  0  0  0  0  0
   11.3777   15.6431   21.5598 C   0  0  0  0  0  0  0  0  0  0  0  0
   11.7244   14.2903   22.1711 C   0  0  1  0  0  0  0  0  0  0  0  0
   12.6822   14.5577   23.3554 C   0  0  0  0  0  0  0  0  0  0  0  0
   12.1790   15.4674   24.3383 O   0  0  0  0  0  0  0  0  0  0  0  0
   10.5846   13.5271   22.6412 N   0  0  0  0  0  0  0  0  0  0  0  0
    9.6995   13.7180   23.8782 C   0  0  0  0  0  0  0  0  0  0  0  0
    9.6935   14.5641   24.6797 O   0  0  0  0  0  0  0  0  0  0  0  0
    8.7676   12.5812   24.1387 C   0  0  0  0  0  0  0  0  0  0  0  0
    9.0022   11.2759   23.7288 C   0  0  0  0  0  0  0  0  0  0  0  0
    8.2229   10.2771   24.2806 C   0  0  0  0  0  0  0  0  0  0  0  0
    7.2543   10.5012   25.1917 N   0  0  0  0  0  0  0  0  0  0  0  0
    7.0080   11.7754   25.5539 C   0  0  0  0  0  0  0  0  0  0  0  0
    5.7712   11.9781   26.8174 S   0  0  0  0  0  0  0  0  0  0  0  0
    4.9049   13.4921   26.2501 C   0  0  0  0  0  0  0  0  0  0  0  0
    3.6161   13.7353   27.0149 C   0  0  0  0  0  0  0  0  0  0  0  0
    3.8457   13.9249   28.3341 F   0  0  0  0  0  0  0  0  0  0  0  0
    3.0007   14.8503   26.5547 F   0  0  0  0  0  0  0  0  0  0  0  0
    2.7404   12.7141   26.8874 F   0  0  0  0  0  0  0  0  0  0  0  0
    7.7376   12.8289   25.0451 C   0  0  0  0  0  0  0  0  0  0  0  0
  1  2  1  0
  2  3  1  0
  3  4  1  0
  5  4  1  1
  5  6  1  0
  6  7  1  0
  5  8  1  0
  8  9  1  0
  9 10  2  0
  9 11  1  0
 11 12  2  0
 12 13  1  0
 13 14  2  0
 14 15  1  0
 15 16  1  0
 16 17  1  0
 17 18  1  0
 18 19  1  0
 18 20  1  0
 18 21  1  0
 15 22  2  0
 22 11  1  0
M  END
>  <distance_score>  (348) 
1.969895

>  <smiles>  (348) 
CCOCC(CO)NC(=O)c1ccnc(SCC(F)(F)F)c1

>  <fragmenstein_error>  (348) 


>  <fragmenstein_runtime>  (348) 
6.161304

>  <gnina_score_min>  (348) 
4.54

>  <orig_smiles>  (348) 
CCOCC(CO)NC(=O)c1ccnc(SCC(F)(F)F)c1

>  <fragmenstein_mode>  (348) 
expansion

>  <rmsd(smina/fragmenstein)>  (348) 
2.198

>  <inspiration_score>  (348) 
None

>  <name>  (348) 
JGQWRMSNUSJEKV-UHFFFAOYSA-N-P141-P135-P141-601504

>  <ref_pdb>  (348) 
A0514b

>  <ref_mols>  (348) 
A3176a,A2629a

>  <subsites>  (348) 
None

>  <tags>  (348) 
openbind_a71ev2a_c1_elabs_filtered,fragmenstein_placed,a71ev2a_c1_elab_bulkdock_input,openbind_a71ev2a_c1_elab_chemspace_filtered_scored

>  <inchikey>  (348) 
JGQWRMSNUSJEKV-UHFFFAOYSA-N

>  <scratch_subdir>  (348) 
/opt/xchem-fragalysis-2/maxwin/BulkDock/SCRATCH/601504/JGQWRMSNUSJEKV-UHFFFAOYSA-N-P141-P135-P141-601504

>  <smina_score_min>  (348) 
-5.336

>  <energy_score>  (348) 
-0.08005

>  <Energy>  (348) 
59.851783

>  <fragmenstein_outcome>  (348) 
too moved

>  <alias>  (348) 
JGQWRMSNUSJEKV-UHFFFAOYSA-N-P141-P135-P141-601504

>  <HIPPO Pose ID>  (348) 
507232

>  <exports>  (348) 
['/opt/xchem-fragalysis-2/maxwin/openbind-hippo/a71ev2a/cycle_01/bulkdock/openbind_a71ev2a_c1_elab_chemspace.sdf', '/opt/xchem-fragalysis-2/maxwin/openbind-hippo/a71ev2a/cycle_01/syndirella/elabs/openbind_a71ev2a_c1_elab_chemspace_filtered.sdf']

>  <HIPPO Compound ID>  (348) 
291143

>  <gnina_score>  (348) 
4.729

$$$$
MQRVDELFLKOGIX-UHFFFAOYSA-N-P135-P135-P141-601504
     RDKit          3D

 22 24  0  0  0  0  0  0  0  0999 V2000
   14.9794   17.6096   16.8416 C   0  0  0  0  0  0  0  0  0  0  0  0
   13.5052   17.6752   17.1949 C   0  0  0  0  0  0  0  0  0  0  0  0
   13.2578   16.8935   18.4141 N   0  0  0  0  0  0  0  0  0  0  0  0
   12.6250   15.4905   18.5991 C   0  0  0  0  0  0  0  0  0  0  0  0
   12.2737   14.7088   17.8064 O   0  0  0  0  0  0  0  0  0  0  0  0
   12.5320   15.1030   20.0344 C   0  0  0  0  0  0  0  0  0  0  0  0
   13.3279   15.6577   20.9994 C   0  0  0  0  0  0  0  0  0  0  0  0
   13.1458   15.1856   22.2743 C   0  0  0  0  0  0  0  0  0  0  0  0
   12.1821   14.3476   22.7161 N   0  0  0  0  0  0  0  0  0  0  0  0
   11.3454   13.9279   21.7746 C   0  0  0  0  0  0  0  0  0  0  0  0
    9.7029   13.4954   22.2816 S   0  0  0  0  0  0  0  0  0  0  0  0
    9.9520   12.7074   23.8874 C   0  0  0  0  0  0  0  0  0  0  0  0
    8.6316   12.2472   24.4860 C   0  0  0  0  0  0  0  0  0  0  0  0
    8.4376   10.9489   24.9725 C   0  0  0  0  0  0  0  0  0  0  0  0
    7.2399   10.5987   25.6140 C   0  0  0  0  0  0  0  0  0  0  0  0
    6.2188   11.5203   25.7802 C   0  0  0  0  0  0  0  0  0  0  0  0
    6.3649   12.7798   25.2317 C   0  0  0  0  0  0  0  0  0  0  0  0
    7.5615   13.1415   24.6066 C   0  0  0  0  0  0  0  0  0  0  0  0
   11.5844   14.1624   20.4296 C   0  0  0  0  0  0  0  0  0  0  0  0
   12.9621   19.1128   17.2221 C   0  0  0  0  0  0  0  0  0  0  0  0
   12.1837   18.8942   16.0226 O   0  0  0  0  0  0  0  0  0  0  0  0
   12.4839   17.4749   16.0639 C   0  0  0  0  0  0  0  0  0  0  0  0
  1  2  1  0
  2  3  1  0
  3  4  1  0
  4  5  2  0
  4  6  1  0
  6  7  2  0
  7  8  1  0
  8  9  2  0
  9 10  1  0
 10 11  1  0
 11 12  1  0
 12 13  1  0
 13 14  2  0
 14 15  1  0
 15 16  2  0
 16 17  1  0
 17 18  2  0
 10 19  2  0
  2 20  1  0
 20 21  1  0
 21 22  1  0
 22  2  1  0
 19  6  1  0
 18 13  1  0
M  END
>  <distance_score>  (349) 
1.963292

>  <smiles>  (349) 
CC1(NC(=O)c2ccnc(SCc3ccccc3)c2)COC1

>  <fragmenstein_error>  (349) 


>  <fragmenstein_runtime>  (349) 
21.586009

>  <gnina_score_min>  (349) 
4.992

>  <orig_smiles>  (349) 
CC1(NC(=O)c2ccnc(SCc3ccccc3)c2)COC1

>  <fragmenstein_mode>  (349) 
expansion

>  <rmsd(smina/fragmenstein)>  (349) 
3.628

>  <inspiration_score>  (349) 
None

>  <name>  (349) 
MQRVDELFLKOGIX-UHFFFAOYSA-N-P135-P135-P141-601504

>  <ref_pdb>  (349) 
A0514b

>  <ref_mols>  (349) 
A3176a,A2629a

>  <subsites>  (349) 
None

>  <tags>  (349) 
openbind_a71ev2a_c1_elabs_filtered,fragmenstein_placed,a71ev2a_c1_elab_bulkdock_input,openbind_a71ev2a_c1_elab_chemspace_filtered_scored

>  <inchikey>  (349) 
MQRVDELFLKOGIX-UHFFFAOYSA-N

>  <scratch_subdir>  (349) 
/opt/xchem-fragalysis-2/maxwin/BulkDock/SCRATCH/601504/MQRVDELFLKOGIX-UHFFFAOYSA-N-P135-P135-P141-601504

>  <smina_score_min>  (349) 
-0.951

>  <energy_score>  (349) 
-13.567513

>  <Energy>  (349) 
55.853414

>  <fragmenstein_outcome>  (349) 
too moved

>  <alias>  (349) 
MQRVDELFLKOGIX-UHFFFAOYSA-N-P135-P135-P141-601504

>  <HIPPO Pose ID>  (349) 
507245

>  <exports>  (349) 
['/opt/xchem-fragalysis-2/maxwin/openbind-hippo/a71ev2a/cycle_01/bulkdock/openbind_a71ev2a_c1_elab_chemspace.sdf', '/opt/xchem-fragalysis-2/maxwin/openbind-hippo/a71ev2a/cycle_01/syndirella/elabs/openbind_a71ev2a_c1_elab_chemspace_filtered.sdf']

>  <HIPPO Compound ID>  (349) 
291150

>  <gnina_score>  (349) 
3.806

$$$$
ZWRZMZJYCCGPQW-UHFFFAOYSA-N-P135-P135-P141-601504
     RDKit          3D

 23 25  0  0  0  0  0  0  0  0999 V2000
   14.3497   17.4843   16.5997 C   0  0  0  0  0  0  0  0  0  0  0  0
   13.2834   18.0637   17.5140 C   0  0  1  0  0  0  0  0  0  0  0  0
   12.9838   17.1898   18.6276 N   0  0  0  0  0  0  0  0  0  0  0  0
   12.5966   15.6945   18.6538 C   0  0  0  0  0  0  0  0  0  0  0  0
   12.3838   14.9543   17.7794 O   0  0  0  0  0  0  0  0  0  0  0  0
   12.5354   15.1821   20.0489 C   0  0  0  0  0  0  0  0  0  0  0  0
   13.3425   15.6960   21.0268 C   0  0  0  0  0  0  0  0  0  0  0  0
   13.1722   15.1711   22.2811 C   0  0  0  0  0  0  0  0  0  0  0  0
   12.2125   14.3141   22.6944 N   0  0  0  0  0  0  0  0  0  0  0  0
   11.3712   13.9295   21.7397 C   0  0  0  0  0  0  0  0  0  0  0  0
    9.7266   13.4962   22.2485 S   0  0  0  0  0  0  0  0  0  0  0  0
    9.9748   12.7092   23.8561 C   0  0  0  0  0  0  0  0  0  0  0  0
    8.6551   12.2509   24.4591 C   0  0  0  0  0  0  0  0  0  0  0  0
    8.4620   10.9520   24.9459 C   0  0  0  0  0  0  0  0  0  0  0  0
    7.2658   10.6012   25.5899 C   0  0  0  0  0  0  0  0  0  0  0  0
    6.2451   11.5228   25.7586 C   0  0  0  0  0  0  0  0  0  0  0  0
    6.3903   12.7829   25.2109 C   0  0  0  0  0  0  0  0  0  0  0  0
    7.5860   13.1460   24.5844 C   0  0  0  0  0  0  0  0  0  0  0  0
   11.6018   14.2132   20.4008 C   0  0  0  0  0  0  0  0  0  0  0  0
   13.7778   19.4028   18.0824 C   0  0  2  0  0  0  0  0  0  0  0  0
   15.0822   19.4452   18.9026 C   0  0  0  0  0  0  0  0  0  0  0  0
   14.2462   20.1987   19.9311 C   0  0  0  0  0  0  0  0  0  0  0  0
   13.0179   19.8411   19.2530 O   0  0  0  0  0  0  0  0  0  0  0  0
  2  1  1  6
  2  3  1  0
  3  4  1  0
  4  5  2  0
  4  6  1  0
  6  7  2  0
  7  8  1  0
  8  9  2  0
  9 10  1  0
 10 11  1  0
 11 12  1  0
 12 13  1  0
 13 14  2  0
 14 15  1  0
 15 16  2  0
 16 17  1  0
 17 18  2  0
 10 19  2  0
  2 20  1  0
 20 21  1  1
 21 22  1  0
 22 23  1  0
 19  6  1  0
 23 20  1  0
 18 13  1  0
M  END
>  <distance_score>  (350) 
1.976414

>  <smiles>  (350) 
CC(NC(=O)c1ccnc(SCc2ccccc2)c1)C1CCO1

>  <fragmenstein_error>  (350) 


>  <fragmenstein_runtime>  (350) 
23.95374

>  <gnina_score_min>  (350) 
5.154

>  <orig_smiles>  (350) 
CC(NC(=O)c1ccnc(SCc2ccccc2)c1)C1CCO1

>  <fragmenstein_mode>  (350) 
expansion

>  <rmsd(smina/fragmenstein)>  (350) 
4.812

>  <inspiration_score>  (350) 
None

>  <name>  (350) 
ZWRZMZJYCCGPQW-UHFFFAOYSA-N-P135-P135-P141-601504

>  <ref_pdb>  (350) 
A0514b

>  <ref_mols>  (350) 
A3176a,A2629a

>  <subsites>  (350) 
None

>  <tags>  (350) 
openbind_a71ev2a_c1_elabs_filtered,fragmenstein_placed,a71ev2a_c1_elab_bulkdock_input,openbind_a71ev2a_c1_elab_chemspace_filtered_scored

>  <inchikey>  (350) 
ZWRZMZJYCCGPQW-UHFFFAOYSA-N

>  <scratch_subdir>  (350) 
/opt/xchem-fragalysis-2/maxwin/BulkDock/SCRATCH/601504/ZWRZMZJYCCGPQW-UHFFFAOYSA-N-P135-P135-P141-601504

>  <smina_score_min>  (350) 
-1.623

>  <energy_score>  (350) 
-4.15042

>  <Energy>  (350) 
47.048306

>  <fragmenstein_outcome>  (350) 
too moved

>  <alias>  (350) 
ZWRZMZJYCCGPQW-UHFFFAOYSA-N-P135-P135-P141-601504

>  <HIPPO Pose ID>  (350) 
507326

>  <exports>  (350) 
['/opt/xchem-fragalysis-2/maxwin/openbind-hippo/a71ev2a/cycle_01/bulkdock/openbind_a71ev2a_c1_elab_chemspace.sdf', '/opt/xchem-fragalysis-2/maxwin/openbind-hippo/a71ev2a/cycle_01/syndirella/elabs/openbind_a71ev2a_c1_elab_chemspace_filtered.sdf']

>  <HIPPO Compound ID>  (350) 
291191

>  <gnina_score>  (350) 
3.858

$$$$
LHINEFFBEZLGTP-UHFFFAOYSA-N-P76-P9-P76-601504
     RDKit          3D

 26 29  0  0  0  0  0  0  0  0999 V2000
   19.9416   17.0730    0.5092 C   0  0  0  0  0  0  0  0  0  0  0  0
   18.9906   16.5466    1.5455 C   0  0  0  0  0  0  0  0  0  0  0  0
   17.7237   17.1878    1.7481 C   0  0  0  0  0  0  0  0  0  0  0  0
   17.1381   18.2890    0.8579 C   0  0  0  0  0  0  0  0  0  0  0  0
   15.8082   17.9033    0.3305 N   0  0  0  0  0  0  0  0  0  0  0  0
   14.6514   18.5158    1.0086 C   0  0  0  0  0  0  0  0  0  0  0  0
   13.4586   17.5810    1.2255 C   0  0  0  0  0  0  0  0  0  0  0  0
   13.4061   16.2770    0.7263 C   0  0  0  0  0  0  0  0  0  0  0  0
   12.2862   15.4548    0.9583 C   0  0  0  0  0  0  0  0  0  0  0  0
   11.1695   15.8905    1.7005 C   0  0  0  0  0  0  0  0  0  0  0  0
   10.0472   14.9628    1.9446 C   0  0  0  0  0  0  0  0  0  0  0  0
    8.9276   15.0915    2.8140 C   0  0  0  0  0  0  0  0  0  0  0  0
    8.2501   13.8962    2.7367 C   0  0  0  0  0  0  0  0  0  0  0  0
    8.9442   13.1356    1.8514 N   0  0  0  0  0  0  0  0  0  0  0  0
    8.6562   11.7760    1.4635 C   0  0  0  0  0  0  0  0  0  0  0  0
   10.0230   13.7564    1.3500 N   0  0  0  0  0  0  0  0  0  0  0  0
   11.2169   17.1962    2.1983 C   0  0  0  0  0  0  0  0  0  0  0  0
   12.3402   18.0256    1.9606 C   0  0  0  0  0  0  0  0  0  0  0  0
   16.8734   16.7526    2.7722 C   0  0  0  0  0  0  0  0  0  0  0  0
   17.0817   15.5609    3.4361 C   0  0  0  0  0  0  0  0  0  0  0  0
   18.2178   14.8219    3.1268 C   0  0  0  0  0  0  0  0  0  0  0  0
   18.6608   13.5479    3.5004 C   0  0  0  0  0  0  0  0  0  0  0  0
   19.8613   13.2715    3.0147 N   0  0  0  0  0  0  0  0  0  0  0  0
   20.2295   14.4182    2.4022 N   0  0  0  0  0  0  0  0  0  0  0  0
   21.6246   14.5562    2.0579 C   0  0  0  0  0  0  0  0  0  0  0  0
   19.2018   15.3415    2.2812 C   0  0  0  0  0  0  0  0  0  0  0  0
  1  2  1  0
  2  3  2  0
  3  4  1  0
  4  5  1  0
  5  6  1  0
  6  7  1  0
  7  8  2  0
  8  9  1  0
  9 10  2  0
 10 11  1  0
 11 12  1  0
 12 13  2  0
 13 14  1  0
 14 15  1  0
 14 16  1  0
 10 17  1  0
 17 18  2  0
  3 19  1  0
 19 20  2  0
 20 21  1  0
 21 22  1  0
 22 23  2  0
 23 24  1  0
 24 25  1  0
 24 26  1  0
 26  2  1  0
 18  7  1  0
 26 21  2  0
 16 11  2  0
M  END
>  <distance_score>  (351) 
1.913494

>  <smiles>  (351) 
Cc1c(CNCc2ccc(-c3ccn(C)n3)cc2)ccc2cnn(C)c12

>  <fragmenstein_error>  (351) 


>  <fragmenstein_runtime>  (351) 
2.070144

>  <gnina_score_min>  (351) 
4.549

>  <orig_smiles>  (351) 
Cc1c(CNCc2ccc(-c3ccn(C)n3)cc2)ccc2cnn(C)c12

>  <fragmenstein_mode>  (351) 
expansion

>  <rmsd(smina/fragmenstein)>  (351) 
2.262

>  <inspiration_score>  (351) 
None

>  <name>  (351) 
LHINEFFBEZLGTP-UHFFFAOYSA-N-P76-P9-P76-601504

>  <ref_pdb>  (351) 
A0514b

>  <ref_mols>  (351) 
A0486a,A0717a

>  <subsites>  (351) 
None

>  <tags>  (351) 
openbind_a71ev2a_c1_elabs_filtered,fragmenstein_placed,a71ev2a_c1_elab_bulkdock_input,openbind_a71ev2a_c1_elab_chemspace_filtered_scored

>  <inchikey>  (351) 
LHINEFFBEZLGTP-UHFFFAOYSA-N

>  <scratch_subdir>  (351) 
/opt/xchem-fragalysis-2/maxwin/BulkDock/SCRATCH/601504/LHINEFFBEZLGTP-UHFFFAOYSA-N-P76-P9-P76-601504

>  <smina_score_min>  (351) 
-2.744

>  <energy_score>  (351) 
-25.279246

>  <Energy>  (351) 
83.526213

>  <fragmenstein_outcome>  (351) 
too moved

>  <alias>  (351) 
LHINEFFBEZLGTP-UHFFFAOYSA-N-P76-P9-P76-601504

>  <HIPPO Pose ID>  (351) 
507519

>  <exports>  (351) 
['/opt/xchem-fragalysis-2/maxwin/openbind-hippo/a71ev2a/cycle_01/bulkdock/openbind_a71ev2a_c1_elab_chemspace.sdf', '/opt/xchem-fragalysis-2/maxwin/openbind-hippo/a71ev2a/cycle_01/syndirella/elabs/openbind_a71ev2a_c1_elab_chemspace_filtered.sdf']

>  <HIPPO Compound ID>  (351) 
289723

>  <gnina_score>  (351) 
3.921

$$$$
CWQUIWRCEMXFMT-UHFFFAOYSA-N-P76-P9-P76-601504
     RDKit          3D

 26 29  0  0  0  0  0  0  0  0999 V2000
   20.0254   17.1259    0.6181 C   0  0  0  0  0  0  0  0  0  0  0  0
   19.0298   16.5815    1.6043 C   0  0  0  0  0  0  0  0  0  0  0  0
   17.7673   17.2419    1.7836 C   0  0  0  0  0  0  0  0  0  0  0  0
   17.3030   18.4180    0.9171 C   0  0  0  0  0  0  0  0  0  0  0  0
   15.8357   18.5877    0.7784 N   0  0  0  0  0  0  0  0  0  0  0  0
   15.1681   17.5253    0.0214 C   0  0  0  0  0  0  0  0  0  0  0  0
   13.9097   16.9494    0.6710 C   0  0  0  0  0  0  0  0  0  0  0  0
   12.7185   17.6846    0.8011 C   0  0  0  0  0  0  0  0  0  0  0  0
   11.5156   17.0732    1.2338 C   0  0  0  0  0  0  0  0  0  0  0  0
   11.4738   15.7100    1.5412 C   0  0  0  0  0  0  0  0  0  0  0  0
   10.2246   14.9807    1.7907 C   0  0  0  0  0  0  0  0  0  0  0  0
    9.2859   15.0494    2.8060 C   0  0  0  0  0  0  0  0  0  0  0  0
    8.4210   13.9576    2.5930 C   0  0  0  0  0  0  0  0  0  0  0  0
    8.7188   13.2936    1.4786 N   0  0  0  0  0  0  0  0  0  0  0  0
    9.7690   13.9623    0.9759 N   0  0  0  0  0  0  0  0  0  0  0  0
   10.3005   13.5414   -0.3013 C   0  0  0  0  0  0  0  0  0  0  0  0
   12.6845   14.9970    1.4818 C   0  0  0  0  0  0  0  0  0  0  0  0
   13.8787   15.6024    1.0556 C   0  0  0  0  0  0  0  0  0  0  0  0
   16.8840   16.8011    2.7762 C   0  0  0  0  0  0  0  0  0  0  0  0
   17.0571   15.5895    3.4179 C   0  0  0  0  0  0  0  0  0  0  0  0
   18.1880   14.8349    3.1220 C   0  0  0  0  0  0  0  0  0  0  0  0
   18.6067   13.5507    3.4909 C   0  0  0  0  0  0  0  0  0  0  0  0
   19.8119   13.2627    3.0242 N   0  0  0  0  0  0  0  0  0  0  0  0
   20.2085   14.4075    2.4260 N   0  0  0  0  0  0  0  0  0  0  0  0
   21.6071   14.5185    2.0833 C   0  0  0  0  0  0  0  0  0  0  0  0
   19.1995   15.3527    2.3085 C   0  0  0  0  0  0  0  0  0  0  0  0
  1  2  1  0
  2  3  2  0
  3  4  1  0
  4  5  1  0
  5  6  1  0
  6  7  1  0
  7  8  2  0
  8  9  1  0
  9 10  2  0
 10 11  1  0
 11 12  2  0
 12 13  1  0
 13 14  2  0
 14 15  1  0
 15 16  1  0
 10 17  1  0
 17 18  2  0
  3 19  1  0
 19 20  2  0
 20 21  1  0
 21 22  1  0
 22 23  2  0
 23 24  1  0
 24 25  1  0
 24 26  1  0
 26  2  1  0
 18  7  1  0
 26 21  2  0
 15 11  1  0
M  END
>  <distance_score>  (352) 
1.871609

>  <smiles>  (352) 
Cc1c(CNCc2ccc(-c3ccnn3C)cc2)ccc2cnn(C)c12

>  <fragmenstein_error>  (352) 


>  <fragmenstein_runtime>  (352) 
1.851986

>  <gnina_score_min>  (352) 
4.252

>  <orig_smiles>  (352) 
Cc1c(CNCc2ccc(-c3ccnn3C)cc2)ccc2cnn(C)c12

>  <fragmenstein_mode>  (352) 
expansion

>  <rmsd(smina/fragmenstein)>  (352) 
1.521

>  <inspiration_score>  (352) 
None

>  <name>  (352) 
CWQUIWRCEMXFMT-UHFFFAOYSA-N-P76-P9-P76-601504

>  <ref_pdb>  (352) 
A0514b

>  <ref_mols>  (352) 
A0486a,A0717a

>  <subsites>  (352) 
None

>  <tags>  (352) 
openbind_a71ev2a_c1_elabs_filtered,fragmenstein_placed,a71ev2a_c1_elab_bulkdock_input,openbind_a71ev2a_c1_elab_chemspace_filtered_scored

>  <inchikey>  (352) 
CWQUIWRCEMXFMT-UHFFFAOYSA-N

>  <scratch_subdir>  (352) 
/opt/xchem-fragalysis-2/maxwin/BulkDock/SCRATCH/601504/CWQUIWRCEMXFMT-UHFFFAOYSA-N-P76-P9-P76-601504

>  <smina_score_min>  (352) 
-1.923

>  <energy_score>  (352) 
-32.288112

>  <Energy>  (352) 
76.864242

>  <fragmenstein_outcome>  (352) 
too moved

>  <alias>  (352) 
CWQUIWRCEMXFMT-UHFFFAOYSA-N-P76-P9-P76-601504

>  <HIPPO Pose ID>  (352) 
507521

>  <exports>  (352) 
['/opt/xchem-fragalysis-2/maxwin/openbind-hippo/a71ev2a/cycle_01/bulkdock/openbind_a71ev2a_c1_elab_chemspace.sdf', '/opt/xchem-fragalysis-2/maxwin/openbind-hippo/a71ev2a/cycle_01/syndirella/elabs/openbind_a71ev2a_c1_elab_chemspace_filtered.sdf']

>  <HIPPO Compound ID>  (352) 
289724

>  <gnina_score>  (352) 
3.934

$$$$
YFIDAESKNWECFP-UHFFFAOYSA-N-P76-P9-P76-601504
     RDKit          3D

 26 29  0  0  0  0  0  0  0  0999 V2000
   11.0536   13.3009    0.3361 C   0  0  0  0  0  0  0  0  0  0  0  0
   10.0910   13.9278    1.2161 N   0  0  0  0  0  0  0  0  0  0  0  0
    9.0212   13.1966    1.5763 N   0  0  0  0  0  0  0  0  0  0  0  0
    8.4410   13.9201    2.5282 C   0  0  0  0  0  0  0  0  0  0  0  0
    9.0955   15.1492    2.7257 C   0  0  0  0  0  0  0  0  0  0  0  0
   10.1621   15.1652    1.8368 C   0  0  0  0  0  0  0  0  0  0  0  0
   11.2300   16.1625    1.6170 C   0  0  0  0  0  0  0  0  0  0  0  0
   11.7710   16.3944    0.3394 C   0  0  0  0  0  0  0  0  0  0  0  0
   12.9007   17.2154    0.1399 C   0  0  0  0  0  0  0  0  0  0  0  0
   13.5262   17.8548    1.2147 C   0  0  0  0  0  0  0  0  0  0  0  0
   14.7597   18.7372    1.0207 C   0  0  0  0  0  0  0  0  0  0  0  0
   15.8710   18.0767    0.3134 N   0  0  0  0  0  0  0  0  0  0  0  0
   17.2028   18.3418    0.8731 C   0  0  2  0  0  0  0  0  0  0  0  0
   18.0536   18.4808   -0.2418 O   0  0  0  0  0  0  0  0  0  0  0  0
   17.7090   17.2041    1.7644 C   0  0  0  0  0  0  0  0  0  0  0  0
   16.8195   16.7302    2.7383 C   0  0  0  0  0  0  0  0  0  0  0  0
   17.0165   15.5236    3.3916 C   0  0  0  0  0  0  0  0  0  0  0  0
   18.1795   14.8064    3.1223 C   0  0  0  0  0  0  0  0  0  0  0  0
   18.6525   13.5430    3.4976 C   0  0  0  0  0  0  0  0  0  0  0  0
   19.8782   13.3056    3.0478 N   0  0  0  0  0  0  0  0  0  0  0  0
   20.2139   14.4505    2.4124 N   0  0  0  0  0  0  0  0  0  0  0  0
   21.5830   14.5997    1.9825 C   0  0  0  0  0  0  0  0  0  0  0  0
   19.1745   15.3534    2.3147 C   0  0  0  0  0  0  0  0  0  0  0  0
   18.9666   16.5622    1.6125 C   0  0  0  0  0  0  0  0  0  0  0  0
   12.9338   17.7006    2.4805 C   0  0  0  0  0  0  0  0  0  0  0  0
   11.8040   16.8750    2.6767 C   0  0  0  0  0  0  0  0  0  0  0  0
  1  2  1  0
  2  3  1  0
  3  4  2  0
  4  5  1  0
  5  6  2  0
  6  7  1  0
  7  8  2  0
  8  9  1  0
  9 10  2  0
 10 11  1  0
 11 12  1  0
 12 13  1  0
 13 14  1  6
 13 15  1  0
 15 16  2  0
 16 17  1  0
 17 18  2  0
 18 19  1  0
 19 20  2  0
 20 21  1  0
 21 22  1  0
 21 23  1  0
 23 24  2  0
 10 25  1  0
 25 26  2  0
  6  2  1  0
 26  7  1  0
 24 15  1  0
 23 18  1  0
M  END
>  <distance_score>  (353) 
1.831133

>  <smiles>  (353) 
Cn1nccc1-c1ccc(CNC(O)c2ccc3cnn(C)c3c2)cc1

>  <fragmenstein_error>  (353) 


>  <fragmenstein_runtime>  (353) 
1.741031

>  <gnina_score_min>  (353) 
3.983

>  <orig_smiles>  (353) 
Cn1nccc1-c1ccc(CNC(O)c2ccc3cnn(C)c3c2)cc1

>  <fragmenstein_mode>  (353) 
expansion

>  <rmsd(smina/fragmenstein)>  (353) 
2.458

>  <inspiration_score>  (353) 
None

>  <name>  (353) 
YFIDAESKNWECFP-UHFFFAOYSA-N-P76-P9-P76-601504

>  <ref_pdb>  (353) 
A0514b

>  <ref_mols>  (353) 
A0486a,A0717a

>  <subsites>  (353) 
None

>  <tags>  (353) 
openbind_a71ev2a_c1_elabs_filtered,fragmenstein_placed,a71ev2a_c1_elab_bulkdock_input,openbind_a71ev2a_c1_elab_chemspace_filtered_scored

>  <inchikey>  (353) 
YFIDAESKNWECFP-UHFFFAOYSA-N

>  <scratch_subdir>  (353) 
/opt/xchem-fragalysis-2/maxwin/BulkDock/SCRATCH/601504/YFIDAESKNWECFP-UHFFFAOYSA-N-P76-P9-P76-601504

>  <smina_score_min>  (353) 
-4.002

>  <energy_score>  (353) 
-17.311223

>  <Energy>  (353) 
24.505065

>  <fragmenstein_outcome>  (353) 
too moved

>  <alias>  (353) 
YFIDAESKNWECFP-UHFFFAOYSA-N-P76-P9-P76-601504

>  <HIPPO Pose ID>  (353) 
507525

>  <exports>  (353) 
['/opt/xchem-fragalysis-2/maxwin/openbind-hippo/a71ev2a/cycle_01/bulkdock/openbind_a71ev2a_c1_elab_chemspace.sdf', '/opt/xchem-fragalysis-2/maxwin/openbind-hippo/a71ev2a/cycle_01/syndirella/elabs/openbind_a71ev2a_c1_elab_chemspace_filtered.sdf']

>  <HIPPO Compound ID>  (353) 
289726

>  <gnina_score>  (353) 
3.799

$$$$
CXCYIBNJCGFMTB-UHFFFAOYSA-N-P76-P9-P76-601504
     RDKit          3D

 26 29  0  0  0  0  0  0  0  0999 V2000
   22.4342   16.5871    2.0056 C   0  0  0  0  0  0  0  0  0  0  0  0
   21.1412   15.8922    2.2313 C   0  0  0  0  0  0  0  0  0  0  0  0
   19.8388   16.3090    2.1489 C   0  0  0  0  0  0  0  0  0  0  0  0
   19.4262   17.5987    1.8349 C   0  0  0  0  0  0  0  0  0  0  0  0
   18.0287   17.7001    1.7685 C   0  0  0  0  0  0  0  0  0  0  0  0
   17.1404   16.6004    1.9945 C   0  0  0  0  0  0  0  0  0  0  0  0
   15.6474   16.8300    1.7860 C   0  0  0  0  0  0  0  0  0  0  0  0
   15.0731   17.6801    2.8293 N   0  0  0  0  0  0  0  0  0  0  0  0
   13.8541   18.3837    2.4130 C   0  0  0  0  0  0  0  0  0  0  0  0
   12.6093   17.5256    2.3535 C   0  0  0  0  0  0  0  0  0  0  0  0
   11.6754   17.5167    3.4024 C   0  0  0  0  0  0  0  0  0  0  0  0
   10.5412   16.6858    3.3585 C   0  0  0  0  0  0  0  0  0  0  0  0
   10.3399   15.8130    2.2819 C   0  0  0  0  0  0  0  0  0  0  0  0
    9.3416   14.7343    2.3137 C   0  0  0  0  0  0  0  0  0  0  0  0
    8.3393   14.4558    3.2821 C   0  0  0  0  0  0  0  0  0  0  0  0
    7.8211   13.2292    2.9383 C   0  0  0  0  0  0  0  0  0  0  0  0
    8.4905   12.8447    1.8211 N   0  0  0  0  0  0  0  0  0  0  0  0
    8.3389   11.6009    1.1066 C   0  0  0  0  0  0  0  0  0  0  0  0
    9.3872   13.7483    1.3995 N   0  0  0  0  0  0  0  0  0  0  0  0
   11.2449   15.8763    1.2082 C   0  0  0  0  0  0  0  0  0  0  0  0
   12.3560   16.7235    1.2374 C   0  0  0  0  0  0  0  0  0  0  0  0
   17.6094   15.3018    2.3459 C   0  0  0  0  0  0  0  0  0  0  0  0
   19.0036   15.1714    2.4130 C   0  0  0  0  0  0  0  0  0  0  0  0
   19.7734   14.1073    2.6950 N   0  0  0  0  0  0  0  0  0  0  0  0
   21.0452   14.5719    2.6030 N   0  0  0  0  0  0  0  0  0  0  0  0
   22.1421   13.6865    2.9201 C   0  0  0  0  0  0  0  0  0  0  0  0
  1  2  1  0
  2  3  2  0
  3  4  1  0
  4  5  2  0
  5  6  1  0
  6  7  1  0
  7  8  1  0
  8  9  1  0
  9 10  1  0
 10 11  2  0
 11 12  1  0
 12 13  2  0
 13 14  1  0
 14 15  1  0
 15 16  2  0
 16 17  1  0
 17 18  1  0
 17 19  1  0
 13 20  1  0
 20 21  2  0
  6 22  2  0
 22 23  1  0
 23 24  2  0
 24 25  1  0
 25 26  1  0
 25  2  1  0
 23  3  1  0
 21 10  1  0
 19 14  2  0
M  END
>  <distance_score>  (354) 
1.679679

>  <smiles>  (354) 
Cc1c2ccc(CNCc3ccc(-c4ccn(C)n4)cc3)cc2nn1C

>  <fragmenstein_error>  (354) 


>  <fragmenstein_runtime>  (354) 
2.38291

>  <gnina_score_min>  (354) 
4.324

>  <orig_smiles>  (354) 
Cc1c2ccc(CNCc3ccc(-c4ccn(C)n4)cc3)cc2nn1C

>  <fragmenstein_mode>  (354) 
expansion

>  <rmsd(smina/fragmenstein)>  (354) 
2.253

>  <inspiration_score>  (354) 
None

>  <name>  (354) 
CXCYIBNJCGFMTB-UHFFFAOYSA-N-P76-P9-P76-601504

>  <ref_pdb>  (354) 
A0514b

>  <ref_mols>  (354) 
A0486a,A0717a

>  <subsites>  (354) 
None

>  <tags>  (354) 
openbind_a71ev2a_c1_elabs_filtered,fragmenstein_placed,a71ev2a_c1_elab_bulkdock_input,openbind_a71ev2a_c1_elab_chemspace_filtered_scored

>  <inchikey>  (354) 
CXCYIBNJCGFMTB-UHFFFAOYSA-N

>  <scratch_subdir>  (354) 
/opt/xchem-fragalysis-2/maxwin/BulkDock/SCRATCH/601504/CXCYIBNJCGFMTB-UHFFFAOYSA-N-P76-P9-P76-601504

>  <smina_score_min>  (354) 
-3.405

>  <energy_score>  (354) 
-32.802572

>  <Energy>  (354) 
58.940942

>  <fragmenstein_outcome>  (354) 
too moved

>  <alias>  (354) 
CXCYIBNJCGFMTB-UHFFFAOYSA-N-P76-P9-P76-601504

>  <HIPPO Pose ID>  (354) 
507527

>  <exports>  (354) 
['/opt/xchem-fragalysis-2/maxwin/openbind-hippo/a71ev2a/cycle_01/bulkdock/openbind_a71ev2a_c1_elab_chemspace.sdf', '/opt/xchem-fragalysis-2/maxwin/openbind-hippo/a71ev2a/cycle_01/syndirella/elabs/openbind_a71ev2a_c1_elab_chemspace_filtered.sdf']

>  <HIPPO Compound ID>  (354) 
289727

>  <gnina_score>  (354) 
4.131

$$$$
HJCYMYIDFNDTAN-UHFFFAOYSA-N-P76-P9-P76-601504
     RDKit          3D

 26 29  0  0  0  0  0  0  0  0999 V2000
   22.4033   16.5724    1.9575 C   0  0  0  0  0  0  0  0  0  0  0  0
   21.1064   15.8926    2.2056 C   0  0  0  0  0  0  0  0  0  0  0  0
   19.8076   16.3212    2.1326 C   0  0  0  0  0  0  0  0  0  0  0  0
   19.4074   17.6115    1.8071 C   0  0  0  0  0  0  0  0  0  0  0  0
   18.0109   17.7339    1.7731 C   0  0  0  0  0  0  0  0  0  0  0  0
   17.1105   16.6523    2.0368 C   0  0  0  0  0  0  0  0  0  0  0  0
   15.6152   16.9167    1.8825 C   0  0  0  0  0  0  0  0  0  0  0  0
   15.0972   17.7371    2.9776 N   0  0  0  0  0  0  0  0  0  0  0  0
   13.9111   18.5247    2.6223 C   0  0  0  0  0  0  0  0  0  0  0  0
   12.6389   17.7213    2.4759 C   0  0  0  0  0  0  0  0  0  0  0  0
   11.7982   17.4843    3.5706 C   0  0  0  0  0  0  0  0  0  0  0  0
   10.6690   16.6591    3.4435 C   0  0  0  0  0  0  0  0  0  0  0  0
   10.3859   16.0024    2.2378 C   0  0  0  0  0  0  0  0  0  0  0  0
    9.4178   14.8912    2.1913 C   0  0  0  0  0  0  0  0  0  0  0  0
    8.3179   14.6277    2.9960 C   0  0  0  0  0  0  0  0  0  0  0  0
    7.8280   13.3763    2.5895 C   0  0  0  0  0  0  0  0  0  0  0  0
    8.5327   12.8687    1.5840 N   0  0  0  0  0  0  0  0  0  0  0  0
    9.5344   13.7493    1.4116 N   0  0  0  0  0  0  0  0  0  0  0  0
   10.6136   13.3390    0.5402 C   0  0  0  0  0  0  0  0  0  0  0  0
   11.1488   16.3609    1.1184 C   0  0  0  0  0  0  0  0  0  0  0  0
   12.2686   17.1937    1.2356 C   0  0  0  0  0  0  0  0  0  0  0  0
   17.5678   15.3504    2.3945 C   0  0  0  0  0  0  0  0  0  0  0  0
   18.9624   15.1991    2.4325 C   0  0  0  0  0  0  0  0  0  0  0  0
   19.7262   14.1302    2.7183 N   0  0  0  0  0  0  0  0  0  0  0  0
   21.0015   14.5810    2.6018 N   0  0  0  0  0  0  0  0  0  0  0  0
   22.0952   13.6941    2.9254 C   0  0  0  0  0  0  0  0  0  0  0  0
  1  2  1  0
  2  3  2  0
  3  4  1  0
  4  5  2  0
  5  6  1  0
  6  7  1  0
  7  8  1  0
  8  9  1  0
  9 10  1  0
 10 11  2  0
 11 12  1  0
 12 13  2  0
 13 14  1  0
 14 15  2  0
 15 16  1  0
 16 17  2  0
 17 18  1  0
 18 19  1  0
 13 20  1  0
 20 21  2  0
  6 22  2  0
 22 23  1  0
 23 24  2  0
 24 25  1  0
 25 26  1  0
 25  2  1  0
 23  3  1  0
 21 10  1  0
 18 14  1  0
M  END
>  <distance_score>  (355) 
1.692449

>  <smiles>  (355) 
Cc1c2ccc(CNCc3ccc(-c4ccnn4C)cc3)cc2nn1C

>  <fragmenstein_error>  (355) 


>  <fragmenstein_runtime>  (355) 
1.6999

>  <gnina_score_min>  (355) 
4.127

>  <orig_smiles>  (355) 
Cc1c2ccc(CNCc3ccc(-c4ccnn4C)cc3)cc2nn1C

>  <fragmenstein_mode>  (355) 
expansion

>  <rmsd(smina/fragmenstein)>  (355) 
2.315

>  <inspiration_score>  (355) 
None

>  <name>  (355) 
HJCYMYIDFNDTAN-UHFFFAOYSA-N-P76-P9-P76-601504

>  <ref_pdb>  (355) 
A0514b

>  <ref_mols>  (355) 
A0486a,A0717a

>  <subsites>  (355) 
None

>  <tags>  (355) 
openbind_a71ev2a_c1_elabs_filtered,fragmenstein_placed,a71ev2a_c1_elab_bulkdock_input,openbind_a71ev2a_c1_elab_chemspace_filtered_scored

>  <inchikey>  (355) 
HJCYMYIDFNDTAN-UHFFFAOYSA-N

>  <scratch_subdir>  (355) 
/opt/xchem-fragalysis-2/maxwin/BulkDock/SCRATCH/601504/HJCYMYIDFNDTAN-UHFFFAOYSA-N-P76-P9-P76-601504

>  <smina_score_min>  (355) 
-3.586

>  <energy_score>  (355) 
-39.404207

>  <Energy>  (355) 
58.347005

>  <fragmenstein_outcome>  (355) 
too moved

>  <alias>  (355) 
HJCYMYIDFNDTAN-UHFFFAOYSA-N-P76-P9-P76-601504

>  <HIPPO Pose ID>  (355) 
507529

>  <exports>  (355) 
['/opt/xchem-fragalysis-2/maxwin/openbind-hippo/a71ev2a/cycle_01/bulkdock/openbind_a71ev2a_c1_elab_chemspace.sdf', '/opt/xchem-fragalysis-2/maxwin/openbind-hippo/a71ev2a/cycle_01/syndirella/elabs/openbind_a71ev2a_c1_elab_chemspace_filtered.sdf']

>  <HIPPO Compound ID>  (355) 
289728

>  <gnina_score>  (355) 
4.332

$$$$
KOBXWNWPTOGHSG-UHFFFAOYSA-N-P76-P9-P76-601504
     RDKit          3D

 26 29  0  0  0  0  0  0  0  0999 V2000
    8.5056   11.7951    1.1897 C   0  0  0  0  0  0  0  0  0  0  0  0
    8.7015   13.0819    1.8110 N   0  0  0  0  0  0  0  0  0  0  0  0
    8.0631   13.5643    2.9085 C   0  0  0  0  0  0  0  0  0  0  0  0
    8.6317   14.7914    3.1619 C   0  0  0  0  0  0  0  0  0  0  0  0
    9.6279   14.9695    2.1624 C   0  0  0  0  0  0  0  0  0  0  0  0
   10.6593   16.0123    2.0329 C   0  0  0  0  0  0  0  0  0  0  0  0
   11.4273   16.0889    0.8573 C   0  0  0  0  0  0  0  0  0  0  0  0
   12.5636   16.9089    0.7647 C   0  0  0  0  0  0  0  0  0  0  0  0
   12.9965   17.6586    1.8629 C   0  0  0  0  0  0  0  0  0  0  0  0
   14.2913   18.4694    1.8690 C   0  0  0  0  0  0  0  0  0  0  0  0
   15.2555   18.1076    0.8201 N   0  0  0  0  0  0  0  0  0  0  0  0
   16.6612   18.3972    1.1067 C   0  0  1  0  0  0  0  0  0  0  0  0
   16.7990   19.5460    1.9120 O   0  0  0  0  0  0  0  0  0  0  0  0
   17.4736   17.2428    1.7030 C   0  0  0  0  0  0  0  0  0  0  0  0
   16.8216   16.2514    2.5190 C   0  0  0  0  0  0  0  0  0  0  0  0
   17.4298   15.0967    3.0458 C   0  0  0  0  0  0  0  0  0  0  0  0
   18.7623   15.0472    2.6922 C   0  0  0  0  0  0  0  0  0  0  0  0
   19.6401   14.0735    3.0685 C   0  0  0  0  0  0  0  0  0  0  0  0
   20.8421   14.4718    2.5659 N   0  0  0  0  0  0  0  0  0  0  0  0
   22.1258   13.8465    2.7798 C   0  0  0  0  0  0  0  0  0  0  0  0
   20.7772   15.6085    1.8489 N   0  0  0  0  0  0  0  0  0  0  0  0
   19.4974   16.0045    1.9292 C   0  0  0  0  0  0  0  0  0  0  0  0
   18.8676   17.1508    1.4119 C   0  0  0  0  0  0  0  0  0  0  0  0
   12.1773   17.6549    3.0090 C   0  0  0  0  0  0  0  0  0  0  0  0
   11.0204   16.8532    3.0912 C   0  0  0  0  0  0  0  0  0  0  0  0
    9.6165   13.9264    1.3131 N   0  0  0  0  0  0  0  0  0  0  0  0
  1  2  1  0
  2  3  1  0
  3  4  2  0
  4  5  1  0
  5  6  1  0
  6  7  2  0
  7  8  1  0
  8  9  2  0
  9 10  1  0
 10 11  1  0
 11 12  1  0
 12 13  1  1
 12 14  1  0
 14 15  1  0
 15 16  2  0
 16 17  1  0
 17 18  2  0
 18 19  1  0
 19 20  1  0
 19 21  1  0
 21 22  2  0
 22 23  1  0
  9 24  1  0
 24 25  2  0
  5 26  2  0
 26  2  1  0
 25  6  1  0
 23 14  2  0
 22 17  1  0
M  END
>  <distance_score>  (356) 
1.831225

>  <smiles>  (356) 
Cn1ccc(-c2ccc(CNC(O)c3ccc4cn(C)nc4c3)cc2)n1

>  <fragmenstein_error>  (356) 


>  <fragmenstein_runtime>  (356) 
1.801242

>  <gnina_score_min>  (356) 
4.062

>  <orig_smiles>  (356) 
Cn1ccc(-c2ccc(CNC(O)c3ccc4cn(C)nc4c3)cc2)n1

>  <fragmenstein_mode>  (356) 
expansion

>  <rmsd(smina/fragmenstein)>  (356) 
2.814

>  <inspiration_score>  (356) 
None

>  <name>  (356) 
KOBXWNWPTOGHSG-UHFFFAOYSA-N-P76-P9-P76-601504

>  <ref_pdb>  (356) 
A0514b

>  <ref_mols>  (356) 
A0486a,A0717a

>  <subsites>  (356) 
None

>  <tags>  (356) 
openbind_a71ev2a_c1_elabs_filtered,fragmenstein_placed,a71ev2a_c1_elab_bulkdock_input,openbind_a71ev2a_c1_elab_chemspace_filtered_scored

>  <inchikey>  (356) 
KOBXWNWPTOGHSG-UHFFFAOYSA-N

>  <scratch_subdir>  (356) 
/opt/xchem-fragalysis-2/maxwin/BulkDock/SCRATCH/601504/KOBXWNWPTOGHSG-UHFFFAOYSA-N-P76-P9-P76-601504

>  <smina_score_min>  (356) 
-4.234

>  <energy_score>  (356) 
-36.209186

>  <Energy>  (356) 
16.717527

>  <fragmenstein_outcome>  (356) 
too moved

>  <alias>  (356) 
KOBXWNWPTOGHSG-UHFFFAOYSA-N-P76-P9-P76-601504

>  <HIPPO Pose ID>  (356) 
507531

>  <exports>  (356) 
['/opt/xchem-fragalysis-2/maxwin/openbind-hippo/a71ev2a/cycle_01/bulkdock/openbind_a71ev2a_c1_elab_chemspace.sdf', '/opt/xchem-fragalysis-2/maxwin/openbind-hippo/a71ev2a/cycle_01/syndirella/elabs/openbind_a71ev2a_c1_elab_chemspace_filtered.sdf']

>  <HIPPO Compound ID>  (356) 
289729

>  <gnina_score>  (356) 
3.835

$$$$
UASTZKAZOIYVOI-UHFFFAOYSA-N-P76-P9-P76-601504
     RDKit          3D

 26 29  0  0  0  0  0  0  0  0999 V2000
   22.0776   13.8764    2.7389 C   0  0  0  0  0  0  0  0  0  0  0  0
   20.8417   14.5422    2.4000 N   0  0  0  0  0  0  0  0  0  0  0  0
   19.8580   14.0858    1.5729 C   0  0  0  0  0  0  0  0  0  0  0  0
   18.9363   15.0957    1.5421 C   0  0  0  0  0  0  0  0  0  0  0  0
   17.7802   15.1143    0.7855 C   0  0  0  0  0  0  0  0  0  0  0  0
   17.0860   16.3302    0.9598 C   0  0  0  0  0  0  0  0  0  0  0  0
   17.4776   17.3920    1.8513 C   0  0  0  0  0  0  0  0  0  0  0  0
   16.5824   18.6172    2.0296 C   0  0  1  0  0  0  0  0  0  0  0  0
   16.8979   19.5175    0.9932 O   0  0  0  0  0  0  0  0  0  0  0  0
   15.1446   18.4013    1.9487 N   0  0  0  0  0  0  0  0  0  0  0  0
   14.6019   17.6564    3.0815 C   0  0  0  0  0  0  0  0  0  0  0  0
   13.2601   17.0216    2.7566 C   0  0  0  0  0  0  0  0  0  0  0  0
   13.2203   15.8314    2.0214 C   0  0  0  0  0  0  0  0  0  0  0  0
   12.0040   15.1894    1.7675 C   0  0  0  0  0  0  0  0  0  0  0  0
   10.7856   15.7079    2.2424 C   0  0  0  0  0  0  0  0  0  0  0  0
    9.5731   14.8971    2.1061 C   0  0  0  0  0  0  0  0  0  0  0  0
    8.7067   14.4118    3.0730 C   0  0  0  0  0  0  0  0  0  0  0  0
    7.9341   13.4328    2.4250 C   0  0  0  0  0  0  0  0  0  0  0  0
    8.2057   13.3601    1.1228 N   0  0  0  0  0  0  0  0  0  0  0  0
    9.1557   14.2952    0.9394 N   0  0  0  0  0  0  0  0  0  0  0  0
    9.6184   14.5427   -0.4071 C   0  0  0  0  0  0  0  0  0  0  0  0
   10.8192   16.9099    2.9540 C   0  0  0  0  0  0  0  0  0  0  0  0
   12.0434   17.5656    3.1992 C   0  0  0  0  0  0  0  0  0  0  0  0
   18.7029   17.3286    2.5698 C   0  0  0  0  0  0  0  0  0  0  0  0
   19.4209   16.1361    2.3895 C   0  0  0  0  0  0  0  0  0  0  0  0
   20.5986   15.7654    2.9014 N   0  0  0  0  0  0  0  0  0  0  0  0
  1  2  1  0
  2  3  1  0
  3  4  2  0
  4  5  1  0
  5  6  2  0
  6  7  1  0
  7  8  1  0
  8  9  1  6
  8 10  1  0
 10 11  1  0
 11 12  1  0
 12 13  2  0
 13 14  1  0
 14 15  2  0
 15 16  1  0
 16 17  2  0
 17 18  1  0
 18 19  2  0
 19 20  1  0
 20 21  1  0
 15 22  1  0
 22 23  2  0
  7 24  2  0
 24 25  1  0
 25 26  2  0
 26  2  1  0
 25  4  1  0
 23 12  1  0
 20 16  1  0
M  END
>  <distance_score>  (357) 
1.77571

>  <smiles>  (357) 
Cn1cc2ccc(C(O)NCc3ccc(-c4ccnn4C)cc3)cc2n1

>  <fragmenstein_error>  (357) 


>  <fragmenstein_runtime>  (357) 
2.075745

>  <gnina_score_min>  (357) 
4.377

>  <orig_smiles>  (357) 
Cn1cc2ccc(C(O)NCc3ccc(-c4ccnn4C)cc3)cc2n1

>  <fragmenstein_mode>  (357) 
expansion

>  <rmsd(smina/fragmenstein)>  (357) 
4.057

>  <inspiration_score>  (357) 
None

>  <name>  (357) 
UASTZKAZOIYVOI-UHFFFAOYSA-N-P76-P9-P76-601504

>  <ref_pdb>  (357) 
A0514b

>  <ref_mols>  (357) 
A0486a,A0717a

>  <subsites>  (357) 
None

>  <tags>  (357) 
openbind_a71ev2a_c1_elabs_filtered,fragmenstein_placed,a71ev2a_c1_elab_bulkdock_input,openbind_a71ev2a_c1_elab_chemspace_filtered_scored

>  <inchikey>  (357) 
UASTZKAZOIYVOI-UHFFFAOYSA-N

>  <scratch_subdir>  (357) 
/opt/xchem-fragalysis-2/maxwin/BulkDock/SCRATCH/601504/UASTZKAZOIYVOI-UHFFFAOYSA-N-P76-P9-P76-601504

>  <smina_score_min>  (357) 
-3.098

>  <energy_score>  (357) 
-45.248508

>  <Energy>  (357) 
6.424144

>  <fragmenstein_outcome>  (357) 
too moved

>  <alias>  (357) 
UASTZKAZOIYVOI-UHFFFAOYSA-N-P76-P9-P76-601504

>  <HIPPO Pose ID>  (357) 
507533

>  <exports>  (357) 
['/opt/xchem-fragalysis-2/maxwin/openbind-hippo/a71ev2a/cycle_01/bulkdock/openbind_a71ev2a_c1_elab_chemspace.sdf', '/opt/xchem-fragalysis-2/maxwin/openbind-hippo/a71ev2a/cycle_01/syndirella/elabs/openbind_a71ev2a_c1_elab_chemspace_filtered.sdf']

>  <HIPPO Compound ID>  (357) 
289730

>  <gnina_score>  (357) 
4.122

$$$$
ZTERLLUTVOVPKY-UHFFFAOYSA-N-P76-P9-P76-601504
     RDKit          3D

 27 30  0  0  0  0  0  0  0  0999 V2000
   22.8699   13.3791    1.4779 C   0  0  0  0  0  0  0  0  0  0  0  0
   22.2753   14.0161    2.7173 C   0  0  0  0  0  0  0  0  0  0  0  0
   20.9395   14.5338    2.4891 N   0  0  0  0  0  0  0  0  0  0  0  0
   19.7926   14.0966    3.0770 C   0  0  0  0  0  0  0  0  0  0  0  0
   18.8490   15.0154    2.7282 C   0  0  0  0  0  0  0  0  0  0  0  0
   17.5598   15.0314    3.2101 C   0  0  0  0  0  0  0  0  0  0  0  0
   16.8807   16.1568    2.7225 C   0  0  0  0  0  0  0  0  0  0  0  0
   17.4096   17.1352    1.7949 C   0  0  0  0  0  0  0  0  0  0  0  0
   16.4171   18.2244    1.3474 C   0  0  1  0  0  0  0  0  0  0  0  0
   16.8107   18.8421    0.1438 O   0  0  0  0  0  0  0  0  0  0  0  0
   15.1107   17.6310    1.1368 N   0  0  0  0  0  0  0  0  0  0  0  0
   13.9711   18.5327    1.2177 C   0  0  0  0  0  0  0  0  0  0  0  0
   12.6958   17.7233    1.4160 C   0  0  0  0  0  0  0  0  0  0  0  0
   12.0067   17.7201    2.6410 C   0  0  0  0  0  0  0  0  0  0  0  0
   10.9087   16.8638    2.8613 C   0  0  0  0  0  0  0  0  0  0  0  0
   10.4898   15.9699    1.8681 C   0  0  0  0  0  0  0  0  0  0  0  0
    9.5189   14.8962    2.1273 C   0  0  0  0  0  0  0  0  0  0  0  0
    8.5711   14.7569    3.1774 C   0  0  0  0  0  0  0  0  0  0  0  0
    8.0407   13.4951    3.0362 C   0  0  0  0  0  0  0  0  0  0  0  0
    8.6581   12.9543    1.9537 N   0  0  0  0  0  0  0  0  0  0  0  0
    8.4957   11.6158    1.4415 C   0  0  0  0  0  0  0  0  0  0  0  0
    9.5170   13.7932    1.3578 N   0  0  0  0  0  0  0  0  0  0  0  0
   11.1432   16.0248    0.6238 C   0  0  0  0  0  0  0  0  0  0  0  0
   12.2222   16.8897    0.3965 C   0  0  0  0  0  0  0  0  0  0  0  0
   18.7614   17.0692    1.3577 C   0  0  0  0  0  0  0  0  0  0  0  0
   19.4777   15.9674    1.8689 C   0  0  0  0  0  0  0  0  0  0  0  0
   20.7681   15.6262    1.7173 N   0  0  0  0  0  0  0  0  0  0  0  0
  1  2  1  0
  2  3  1  0
  3  4  1  0
  4  5  2  0
  5  6  1  0
  6  7  2  0
  7  8  1  0
  8  9  1  0
  9 10  1  6
  9 11  1  0
 11 12  1  0
 12 13  1  0
 13 14  2  0
 14 15  1  0
 15 16  2  0
 16 17  1  0
 17 18  1  0
 18 19  2  0
 19 20  1  0
 20 21  1  0
 20 22  1  0
 16 23  1  0
 23 24  2  0
  8 25  2  0
 25 26  1  0
 26 27  2  0
 27  3  1  0
 26  5  1  0
 24 13  1  0
 22 17  2  0
M  END
>  <distance_score>  (358) 
1.762835

>  <smiles>  (358) 
CCn1cc2ccc(C(O)NCc3ccc(-c4ccn(C)n4)cc3)cc2n1

>  <fragmenstein_error>  (358) 


>  <fragmenstein_runtime>  (358) 
1.761671

>  <gnina_score_min>  (358) 
4.266

>  <orig_smiles>  (358) 
CCn1cc2ccc(C(O)NCc3ccc(-c4ccn(C)n4)cc3)cc2n1

>  <fragmenstein_mode>  (358) 
expansion

>  <rmsd(smina/fragmenstein)>  (358) 
2.801

>  <inspiration_score>  (358) 
None

>  <name>  (358) 
ZTERLLUTVOVPKY-UHFFFAOYSA-N-P76-P9-P76-601504

>  <ref_pdb>  (358) 
A0514b

>  <ref_mols>  (358) 
A0486a,A0717a

>  <subsites>  (358) 
None

>  <tags>  (358) 
openbind_a71ev2a_c1_elabs_filtered,fragmenstein_placed,a71ev2a_c1_elab_bulkdock_input,openbind_a71ev2a_c1_elab_chemspace_filtered_scored

>  <inchikey>  (358) 
ZTERLLUTVOVPKY-UHFFFAOYSA-N

>  <scratch_subdir>  (358) 
/opt/xchem-fragalysis-2/maxwin/BulkDock/SCRATCH/601504/ZTERLLUTVOVPKY-UHFFFAOYSA-N-P76-P9-P76-601504

>  <smina_score_min>  (358) 
-4.102

>  <energy_score>  (358) 
-38.876148

>  <Energy>  (358) 
12.749171

>  <fragmenstein_outcome>  (358) 
too moved

>  <alias>  (358) 
ZTERLLUTVOVPKY-UHFFFAOYSA-N-P76-P9-P76-601504

>  <HIPPO Pose ID>  (358) 
507535

>  <exports>  (358) 
['/opt/xchem-fragalysis-2/maxwin/openbind-hippo/a71ev2a/cycle_01/bulkdock/openbind_a71ev2a_c1_elab_chemspace.sdf', '/opt/xchem-fragalysis-2/maxwin/openbind-hippo/a71ev2a/cycle_01/syndirella/elabs/openbind_a71ev2a_c1_elab_chemspace_filtered.sdf']

>  <HIPPO Compound ID>  (358) 
289731

>  <gnina_score>  (358) 
3.949

$$$$
AVXNAUFQWXBNEI-UHFFFAOYSA-N-P76-P9-P76-601504
     RDKit          3D

 27 30  0  0  0  0  0  0  0  0999 V2000
   23.0367   13.4404    1.6351 C   0  0  0  0  0  0  0  0  0  0  0  0
   22.2664   14.0192    2.8068 C   0  0  0  0  0  0  0  0  0  0  0  0
   21.0117   14.6405    2.4241 N   0  0  0  0  0  0  0  0  0  0  0  0
   20.0027   14.0866    1.6906 C   0  0  0  0  0  0  0  0  0  0  0  0
   19.0278   15.0430    1.6628 C   0  0  0  0  0  0  0  0  0  0  0  0
   17.8139   14.9285    1.0177 C   0  0  0  0  0  0  0  0  0  0  0  0
   17.0322   16.0736    1.2477 C   0  0  0  0  0  0  0  0  0  0  0  0
   17.4144   17.1978    2.0741 C   0  0  0  0  0  0  0  0  0  0  0  0
   16.3444   18.2587    2.3726 C   0  0  1  0  0  0  0  0  0  0  0  0
   16.2145   19.1160    1.2584 O   0  0  0  0  0  0  0  0  0  0  0  0
   15.0869   17.5847    2.6542 N   0  0  0  0  0  0  0  0  0  0  0  0
   13.8897   18.4156    2.7200 C   0  0  0  0  0  0  0  0  0  0  0  0
   12.6466   17.5363    2.6297 C   0  0  0  0  0  0  0  0  0  0  0  0
   12.5839   16.5220    1.6653 C   0  0  0  0  0  0  0  0  0  0  0  0
   11.4675   15.6895    1.5653 C   0  0  0  0  0  0  0  0  0  0  0  0
   10.3457   15.8653    2.3900 C   0  0  0  0  0  0  0  0  0  0  0  0
    9.2493   14.8933    2.3213 C   0  0  0  0  0  0  0  0  0  0  0  0
    8.5624   14.2361    3.3305 C   0  0  0  0  0  0  0  0  0  0  0  0
    7.8730   13.1883    2.6956 C   0  0  0  0  0  0  0  0  0  0  0  0
    8.0077   13.2327    1.3714 N   0  0  0  0  0  0  0  0  0  0  0  0
    8.7558   14.3309    1.1619 N   0  0  0  0  0  0  0  0  0  0  0  0
    8.9252   14.7816   -0.2010 C   0  0  0  0  0  0  0  0  0  0  0  0
   10.3901   16.8950    3.3369 C   0  0  0  0  0  0  0  0  0  0  0  0
   11.5272   17.7228    3.4548 C   0  0  0  0  0  0  0  0  0  0  0  0
   18.7072   17.2920    2.6438 C   0  0  0  0  0  0  0  0  0  0  0  0
   19.5010   16.1540    2.4253 C   0  0  0  0  0  0  0  0  0  0  0  0
   20.7425   15.8915    2.8451 N   0  0  0  0  0  0  0  0  0  0  0  0
  1  2  1  0
  2  3  1  0
  3  4  1  0
  4  5  2  0
  5  6  1  0
  6  7  2  0
  7  8  1  0
  8  9  1  0
  9 10  1  6
  9 11  1  0
 11 12  1  0
 12 13  1  0
 13 14  2  0
 14 15  1  0
 15 16  2  0
 16 17  1  0
 17 18  2  0
 18 19  1  0
 19 20  2  0
 20 21  1  0
 21 22  1  0
 16 23  1  0
 23 24  2  0
  8 25  2  0
 25 26  1  0
 26 27  2  0
 27  3  1  0
 26  5  1  0
 24 13  1  0
 21 17  1  0
M  END
>  <distance_score>  (359) 
1.674479

>  <smiles>  (359) 
CCn1cc2ccc(C(O)NCc3ccc(-c4ccnn4C)cc3)cc2n1

>  <fragmenstein_error>  (359) 


>  <fragmenstein_runtime>  (359) 
2.412683

>  <gnina_score_min>  (359) 
4.458

>  <orig_smiles>  (359) 
CCn1cc2ccc(C(O)NCc3ccc(-c4ccnn4C)cc3)cc2n1

>  <fragmenstein_mode>  (359) 
expansion

>  <rmsd(smina/fragmenstein)>  (359) 
2.634

>  <inspiration_score>  (359) 
None

>  <name>  (359) 
AVXNAUFQWXBNEI-UHFFFAOYSA-N-P76-P9-P76-601504

>  <ref_pdb>  (359) 
A0514b

>  <ref_mols>  (359) 
A0486a,A0717a

>  <subsites>  (359) 
None

>  <tags>  (359) 
openbind_a71ev2a_c1_elabs_filtered,fragmenstein_placed,a71ev2a_c1_elab_bulkdock_input,openbind_a71ev2a_c1_elab_chemspace_filtered_scored

>  <inchikey>  (359) 
AVXNAUFQWXBNEI-UHFFFAOYSA-N

>  <scratch_subdir>  (359) 
/opt/xchem-fragalysis-2/maxwin/BulkDock/SCRATCH/601504/AVXNAUFQWXBNEI-UHFFFAOYSA-N-P76-P9-P76-601504

>  <smina_score_min>  (359) 
-4.13

>  <energy_score>  (359) 
-33.321518

>  <Energy>  (359) 
8.858943

>  <fragmenstein_outcome>  (359) 
too moved

>  <alias>  (359) 
AVXNAUFQWXBNEI-UHFFFAOYSA-N-P76-P9-P76-601504

>  <HIPPO Pose ID>  (359) 
507537

>  <exports>  (359) 
['/opt/xchem-fragalysis-2/maxwin/openbind-hippo/a71ev2a/cycle_01/bulkdock/openbind_a71ev2a_c1_elab_chemspace.sdf', '/opt/xchem-fragalysis-2/maxwin/openbind-hippo/a71ev2a/cycle_01/syndirella/elabs/openbind_a71ev2a_c1_elab_chemspace_filtered.sdf']

>  <HIPPO Compound ID>  (359) 
289732

>  <gnina_score>  (359) 
4.053

$$$$
LDPZOZJNFOIANG-UHFFFAOYSA-N-P76-P9-P76-601504
     RDKit          3D

 27 30  0  0  0  0  0  0  0  0999 V2000
    9.0501   14.4528   -0.3451 C   0  0  0  0  0  0  0  0  0  0  0  0
    8.7968   14.0348    1.0150 N   0  0  0  0  0  0  0  0  0  0  0  0
    8.0192   12.9547    1.2075 N   0  0  0  0  0  0  0  0  0  0  0  0
    7.8395   12.9214    2.5271 C   0  0  0  0  0  0  0  0  0  0  0  0
    8.5210   13.9628    3.1782 C   0  0  0  0  0  0  0  0  0  0  0  0
    9.2397   14.6103    2.1857 C   0  0  0  0  0  0  0  0  0  0  0  0
   10.3122   15.5994    2.2860 C   0  0  0  0  0  0  0  0  0  0  0  0
   10.2472   16.6691    3.1791 C   0  0  0  0  0  0  0  0  0  0  0  0
   11.3421   17.5344    3.3281 C   0  0  0  0  0  0  0  0  0  0  0  0
   12.5272   17.3536    2.5897 C   0  0  0  0  0  0  0  0  0  0  0  0
   13.6413   18.3708    2.7188 C   0  0  0  0  0  0  0  0  0  0  0  0
   14.9709   17.9708    2.2276 N   0  0  0  0  0  0  0  0  0  0  0  0
   15.7040   17.1227    3.1541 C   0  0  2  0  0  0  0  0  0  0  0  0
   15.8407   17.7981    4.3929 O   0  0  0  0  0  0  0  0  0  0  0  0
   17.1111   16.7344    2.6587 C   0  0  0  0  0  0  0  0  0  0  0  0
   17.9414   17.6901    1.9826 C   0  0  0  0  0  0  0  0  0  0  0  0
   19.2710   17.4468    1.5963 C   0  0  0  0  0  0  0  0  0  0  0  0
   19.7040   16.1826    1.9812 C   0  0  0  0  0  0  0  0  0  0  0  0
   20.9737   15.6933    1.8688 C   0  0  0  0  0  0  0  0  0  0  0  0
   22.4872   16.5441    1.0868 Br  0  0  0  0  0  0  0  0  0  0  0  0
   20.9452   14.4829    2.5038 N   0  0  0  0  0  0  0  0  0  0  0  0
   22.0914   13.6802    2.8582 C   0  0  0  0  0  0  0  0  0  0  0  0
   19.6993   14.0940    2.8882 N   0  0  0  0  0  0  0  0  0  0  0  0
   18.9315   15.1721    2.6481 C   0  0  0  0  0  0  0  0  0  0  0  0
   17.5951   15.4308    2.9892 C   0  0  0  0  0  0  0  0  0  0  0  0
   12.5827   16.2907    1.6868 C   0  0  0  0  0  0  0  0  0  0  0  0
   11.4996   15.4163    1.5547 C   0  0  0  0  0  0  0  0  0  0  0  0
  1  2  1  0
  2  3  1  0
  3  4  2  0
  4  5  1  0
  5  6  2  0
  6  7  1  0
  7  8  2  0
  8  9  1  0
  9 10  2  0
 10 11  1  0
 11 12  1  0
 12 13  1  0
 13 14  1  1
 13 15  1  0
 15 16  1  0
 16 17  2  0
 17 18  1  0
 18 19  2  0
 19 20  1  0
 19 21  1  0
 21 22  1  0
 21 23  1  0
 23 24  2  0
 24 25  1  0
 10 26  1  0
 26 27  2  0
  6  2  1  0
 27  7  1  0
 25 15  2  0
 24 18  1  0
M  END
>  <distance_score>  (360) 
1.625899

>  <smiles>  (360) 
Cn1nccc1-c1ccc(CNC(O)c2ccc3c(Br)n(C)nc3c2)cc1

>  <fragmenstein_error>  (360) 


>  <fragmenstein_runtime>  (360) 
2.263017

>  <gnina_score_min>  (360) 
4.172

>  <orig_smiles>  (360) 
Cn1nccc1-c1ccc(CNC(O)c2ccc3c(Br)n(C)nc3c2)cc1

>  <fragmenstein_mode>  (360) 
expansion

>  <rmsd(smina/fragmenstein)>  (360) 
3.145

>  <inspiration_score>  (360) 
None

>  <name>  (360) 
LDPZOZJNFOIANG-UHFFFAOYSA-N-P76-P9-P76-601504

>  <ref_pdb>  (360) 
A0514b

>  <ref_mols>  (360) 
A0486a,A0717a

>  <subsites>  (360) 
None

>  <tags>  (360) 
openbind_a71ev2a_c1_elabs_filtered,fragmenstein_placed,a71ev2a_c1_elab_bulkdock_input,openbind_a71ev2a_c1_elab_chemspace_filtered_scored

>  <inchikey>  (360) 
LDPZOZJNFOIANG-UHFFFAOYSA-N

>  <scratch_subdir>  (360) 
/opt/xchem-fragalysis-2/maxwin/BulkDock/SCRATCH/601504/LDPZOZJNFOIANG-UHFFFAOYSA-N-P76-P9-P76-601504

>  <smina_score_min>  (360) 
-4.593

>  <energy_score>  (360) 
-38.923053

>  <Energy>  (360) 
17.13761

>  <fragmenstein_outcome>  (360) 
too moved

>  <alias>  (360) 
LDPZOZJNFOIANG-UHFFFAOYSA-N-P76-P9-P76-601504

>  <HIPPO Pose ID>  (360) 
507543

>  <exports>  (360) 
['/opt/xchem-fragalysis-2/maxwin/openbind-hippo/a71ev2a/cycle_01/bulkdock/openbind_a71ev2a_c1_elab_chemspace.sdf', '/opt/xchem-fragalysis-2/maxwin/openbind-hippo/a71ev2a/cycle_01/syndirella/elabs/openbind_a71ev2a_c1_elab_chemspace_filtered.sdf']

>  <HIPPO Compound ID>  (360) 
289735

>  <gnina_score>  (360) 
4.3

$$$$
MSXZCYOWISKQMY-UHFFFAOYSA-N-P76-P9-P76-601504
     RDKit          3D

 27 30  0  0  0  0  0  0  0  0999 V2000
   11.0181   13.5313    0.3060 C   0  0  0  0  0  0  0  0  0  0  0  0
   10.0621   14.0713    1.2482 N   0  0  0  0  0  0  0  0  0  0  0  0
    9.0315   13.2809    1.5956 N   0  0  0  0  0  0  0  0  0  0  0  0
    8.4373   13.9380    2.5862 C   0  0  0  0  0  0  0  0  0  0  0  0
    9.0524   15.1783    2.8356 C   0  0  0  0  0  0  0  0  0  0  0  0
   10.1082   15.2732    1.9384 C   0  0  0  0  0  0  0  0  0  0  0  0
   11.1511   16.3070    1.7701 C   0  0  0  0  0  0  0  0  0  0  0  0
   11.6752   16.6274    0.5059 C   0  0  0  0  0  0  0  0  0  0  0  0
   12.8023   17.4611    0.3519 C   0  0  0  0  0  0  0  0  0  0  0  0
   13.4461   18.0185    1.4622 C   0  0  0  0  0  0  0  0  0  0  0  0
   14.7101   18.8719    1.3227 C   0  0  0  0  0  0  0  0  0  0  0  0
   15.7407   18.2618    0.4704 N   0  0  0  0  0  0  0  0  0  0  0  0
   17.1333   18.3925    0.9233 C   0  0  2  0  0  0  0  0  0  0  0  0
   17.8433   18.5280   -0.2823 O   0  0  0  0  0  0  0  0  0  0  0  0
   17.6605   17.1859    1.7207 C   0  0  0  0  0  0  0  0  0  0  0  0
   16.7164   16.5332    2.5317 C   0  0  0  0  0  0  0  0  0  0  0  0
   16.9587   15.3201    3.1510 C   0  0  0  0  0  0  0  0  0  0  0  0
   18.2082   14.7371    2.9918 C   0  0  0  0  0  0  0  0  0  0  0  0
   18.7453   13.5120    3.3943 C   0  0  0  0  0  0  0  0  0  0  0  0
   20.0193   13.3903    3.0578 N   0  0  0  0  0  0  0  0  0  0  0  0
   20.3242   14.5757    2.4838 N   0  0  0  0  0  0  0  0  0  0  0  0
   21.7095   14.8022    2.1442 C   0  0  0  0  0  0  0  0  0  0  0  0
   19.2329   15.4155    2.3291 C   0  0  0  0  0  0  0  0  0  0  0  0
   18.9922   16.6711    1.7049 C   0  0  0  0  0  0  0  0  0  0  0  0
   20.2962   17.5196    0.9665 Cl  0  0  0  0  0  0  0  0  0  0  0  0
   12.8565   17.7942    2.7183 C   0  0  0  0  0  0  0  0  0  0  0  0
   11.7259   16.9598    2.8681 C   0  0  0  0  0  0  0  0  0  0  0  0
  1  2  1  0
  2  3  1  0
  3  4  2  0
  4  5  1  0
  5  6  2  0
  6  7  1  0
  7  8  2  0
  8  9  1  0
  9 10  2  0
 10 11  1  0
 11 12  1  0
 12 13  1  0
 13 14  1  6
 13 15  1  0
 15 16  2  0
 16 17  1  0
 17 18  2  0
 18 19  1  0
 19 20  2  0
 20 21  1  0
 21 22  1  0
 21 23  1  0
 23 24  2  0
 24 25  1  0
 10 26  1  0
 26 27  2  0
  6  2  1  0
 27  7  1  0
 24 15  1  0
 23 18  1  0
M  END
>  <distance_score>  (361) 
1.826795

>  <smiles>  (361) 
Cn1nccc1-c1ccc(CNC(O)c2ccc3cnn(C)c3c2Cl)cc1

>  <fragmenstein_error>  (361) 


>  <fragmenstein_runtime>  (361) 
1.816629

>  <gnina_score_min>  (361) 
4.493

>  <orig_smiles>  (361) 
Cn1nccc1-c1ccc(CNC(O)c2ccc3cnn(C)c3c2Cl)cc1

>  <fragmenstein_mode>  (361) 
expansion

>  <rmsd(smina/fragmenstein)>  (361) 
2.17

>  <inspiration_score>  (361) 
None

>  <name>  (361) 
MSXZCYOWISKQMY-UHFFFAOYSA-N-P76-P9-P76-601504

>  <ref_pdb>  (361) 
A0514b

>  <ref_mols>  (361) 
A0486a,A0717a

>  <subsites>  (361) 
None

>  <tags>  (361) 
openbind_a71ev2a_c1_elabs_filtered,fragmenstein_placed,a71ev2a_c1_elab_bulkdock_input,openbind_a71ev2a_c1_elab_chemspace_filtered_scored

>  <inchikey>  (361) 
MSXZCYOWISKQMY-UHFFFAOYSA-N

>  <scratch_subdir>  (361) 
/opt/xchem-fragalysis-2/maxwin/BulkDock/SCRATCH/601504/MSXZCYOWISKQMY-UHFFFAOYSA-N-P76-P9-P76-601504

>  <smina_score_min>  (361) 
-3.37

>  <energy_score>  (361) 
-37.351227

>  <Energy>  (361) 
21.954162

>  <fragmenstein_outcome>  (361) 
too moved

>  <alias>  (361) 
MSXZCYOWISKQMY-UHFFFAOYSA-N-P76-P9-P76-601504

>  <HIPPO Pose ID>  (361) 
507547

>  <exports>  (361) 
['/opt/xchem-fragalysis-2/maxwin/openbind-hippo/a71ev2a/cycle_01/bulkdock/openbind_a71ev2a_c1_elab_chemspace.sdf', '/opt/xchem-fragalysis-2/maxwin/openbind-hippo/a71ev2a/cycle_01/syndirella/elabs/openbind_a71ev2a_c1_elab_chemspace_filtered.sdf']

>  <HIPPO Compound ID>  (361) 
289737

>  <gnina_score>  (361) 
4.027

$$$$
UFBJMASQKWZVJO-UHFFFAOYSA-N-P76-P9-P76-601504
     RDKit          3D

 27 30  0  0  0  0  0  0  0  0999 V2000
    8.7023   11.8765    1.3551 C   0  0  0  0  0  0  0  0  0  0  0  0
    8.9711   13.2167    1.8172 N   0  0  0  0  0  0  0  0  0  0  0  0
    8.3196   13.8872    2.8029 C   0  0  0  0  0  0  0  0  0  0  0  0
    8.9651   15.0971    2.9219 C   0  0  0  0  0  0  0  0  0  0  0  0
   10.0186   15.0716    1.9658 C   0  0  0  0  0  0  0  0  0  0  0  0
   11.0991   16.0443    1.7154 C   0  0  0  0  0  0  0  0  0  0  0  0
   11.8523   15.9637    0.5280 C   0  0  0  0  0  0  0  0  0  0  0  0
   12.9703   16.7868    0.2895 C   0  0  0  0  0  0  0  0  0  0  0  0
   13.4032   17.7096    1.2476 C   0  0  0  0  0  0  0  0  0  0  0  0
   14.6253   18.6070    1.0263 C   0  0  0  0  0  0  0  0  0  0  0  0
   15.7431   17.9569    0.3230 N   0  0  0  0  0  0  0  0  0  0  0  0
   17.0927   18.2818    0.8121 C   0  0  2  0  0  0  0  0  0  0  0  0
   17.8309   18.4774   -0.3644 O   0  0  0  0  0  0  0  0  0  0  0  0
   17.6865   17.1702    1.6959 C   0  0  0  0  0  0  0  0  0  0  0  0
   16.7963   16.6662    2.6623 C   0  0  0  0  0  0  0  0  0  0  0  0
   17.0140   15.4750    3.3311 C   0  0  0  0  0  0  0  0  0  0  0  0
   18.1959   14.7876    3.0836 C   0  0  0  0  0  0  0  0  0  0  0  0
   18.6797   13.5366    3.4800 C   0  0  0  0  0  0  0  0  0  0  0  0
   19.9152   13.3204    3.0556 N   0  0  0  0  0  0  0  0  0  0  0  0
   20.2577   14.4773    2.4455 N   0  0  0  0  0  0  0  0  0  0  0  0
   21.6455   14.6447    2.0819 C   0  0  0  0  0  0  0  0  0  0  0  0
   19.2013   15.3616    2.3035 C   0  0  0  0  0  0  0  0  0  0  0  0
   18.9794   16.5775    1.6022 C   0  0  0  0  0  0  0  0  0  0  0  0
   20.2485   17.2512    0.6551 Cl  0  0  0  0  0  0  0  0  0  0  0  0
   12.6244   17.8280    2.4165 C   0  0  0  0  0  0  0  0  0  0  0  0
   11.4913   17.0113    2.6480 C   0  0  0  0  0  0  0  0  0  0  0  0
    9.9845   13.9147    1.2812 N   0  0  0  0  0  0  0  0  0  0  0  0
  1  2  1  0
  2  3  1  0
  3  4  2  0
  4  5  1  0
  5  6  1  0
  6  7  2  0
  7  8  1  0
  8  9  2  0
  9 10  1  0
 10 11  1  0
 11 12  1  0
 12 13  1  6
 12 14  1  0
 14 15  2  0
 15 16  1  0
 16 17  2  0
 17 18  1  0
 18 19  2  0
 19 20  1  0
 20 21  1  0
 20 22  1  0
 22 23  2  0
 23 24  1  0
  9 25  1  0
 25 26  2  0
  5 27  2  0
 27  2  1  0
 26  6  1  0
 23 14  1  0
 22 17  1  0
M  END
>  <distance_score>  (362) 
1.810075

>  <smiles>  (362) 
Cn1ccc(-c2ccc(CNC(O)c3ccc4cnn(C)c4c3Cl)cc2)n1

>  <fragmenstein_error>  (362) 


>  <fragmenstein_runtime>  (362) 
1.651469

>  <gnina_score_min>  (362) 
4.443

>  <orig_smiles>  (362) 
Cn1ccc(-c2ccc(CNC(O)c3ccc4cnn(C)c4c3Cl)cc2)n1

>  <fragmenstein_mode>  (362) 
expansion

>  <rmsd(smina/fragmenstein)>  (362) 
2.716

>  <inspiration_score>  (362) 
None

>  <name>  (362) 
UFBJMASQKWZVJO-UHFFFAOYSA-N-P76-P9-P76-601504

>  <ref_pdb>  (362) 
A0514b

>  <ref_mols>  (362) 
A0486a,A0717a

>  <subsites>  (362) 
None

>  <tags>  (362) 
openbind_a71ev2a_c1_elabs_filtered,fragmenstein_placed,a71ev2a_c1_elab_bulkdock_input,openbind_a71ev2a_c1_elab_chemspace_filtered_scored

>  <inchikey>  (362) 
UFBJMASQKWZVJO-UHFFFAOYSA-N

>  <scratch_subdir>  (362) 
/opt/xchem-fragalysis-2/maxwin/BulkDock/SCRATCH/601504/UFBJMASQKWZVJO-UHFFFAOYSA-N-P76-P9-P76-601504

>  <smina_score_min>  (362) 
-3.816

>  <energy_score>  (362) 
-30.158533

>  <Energy>  (362) 
26.086303

>  <fragmenstein_outcome>  (362) 
too moved

>  <alias>  (362) 
UFBJMASQKWZVJO-UHFFFAOYSA-N-P76-P9-P76-601504

>  <HIPPO Pose ID>  (362) 
507549

>  <exports>  (362) 
['/opt/xchem-fragalysis-2/maxwin/openbind-hippo/a71ev2a/cycle_01/bulkdock/openbind_a71ev2a_c1_elab_chemspace.sdf', '/opt/xchem-fragalysis-2/maxwin/openbind-hippo/a71ev2a/cycle_01/syndirella/elabs/openbind_a71ev2a_c1_elab_chemspace_filtered.sdf']

>  <HIPPO Compound ID>  (362) 
289738

>  <gnina_score>  (362) 
3.983

$$$$
YRCHILFIYQZGLZ-UHFFFAOYSA-N-P76-P9-P76-601504
     RDKit          3D

 27 30  0  0  0  0  0  0  0  0999 V2000
    8.8105   12.3032    1.0535 C   0  0  0  0  0  0  0  0  0  0  0  0
    9.0128   13.5323    1.7815 N   0  0  0  0  0  0  0  0  0  0  0  0
    8.2788   13.9902    2.8286 C   0  0  0  0  0  0  0  0  0  0  0  0
    8.8709   15.1721    3.2126 C   0  0  0  0  0  0  0  0  0  0  0  0
    9.9851   15.3494    2.3455 C   0  0  0  0  0  0  0  0  0  0  0  0
   11.0637   16.3598    2.3783 C   0  0  0  0  0  0  0  0  0  0  0  0
   11.9119   16.5018    1.2669 C   0  0  0  0  0  0  0  0  0  0  0  0
   13.0510   17.3252    1.3017 C   0  0  0  0  0  0  0  0  0  0  0  0
   13.4073   18.0300    2.4608 C   0  0  0  0  0  0  0  0  0  0  0  0
   14.6657   18.8987    2.4725 C   0  0  0  0  0  0  0  0  0  0  0  0
   15.7354   18.4001    3.3527 N   0  0  0  0  0  0  0  0  0  0  0  0
   17.0925   18.5350    2.7917 C   0  0  1  0  0  0  0  0  0  0  0  0
   17.8888   18.9861    3.8643 O   0  0  0  0  0  0  0  0  0  0  0  0
   17.6695   17.2086    2.2811 C   0  0  0  0  0  0  0  0  0  0  0  0
   16.8024   16.3752    1.5609 C   0  0  0  0  0  0  0  0  0  0  0  0
   17.0861   15.0336    1.3691 C   0  0  0  0  0  0  0  0  0  0  0  0
   16.1631   14.1928    0.8037 O   0  0  0  0  0  0  0  0  0  0  0  0
   18.3031   14.5270    1.8182 C   0  0  0  0  0  0  0  0  0  0  0  0
   18.8594   13.2440    1.8988 C   0  0  0  0  0  0  0  0  0  0  0  0
   20.0948   13.2620    2.3842 N   0  0  0  0  0  0  0  0  0  0  0  0
   20.3736   14.5755    2.5025 N   0  0  0  0  0  0  0  0  0  0  0  0
   21.7610   14.9421    2.6497 C   0  0  0  0  0  0  0  0  0  0  0  0
   19.2708   15.3882    2.3350 C   0  0  0  0  0  0  0  0  0  0  0  0
   18.9858   16.7527    2.5672 C   0  0  0  0  0  0  0  0  0  0  0  0
   12.5454   17.9244    3.5642 C   0  0  0  0  0  0  0  0  0  0  0  0
   11.3838   17.1123    3.5199 C   0  0  0  0  0  0  0  0  0  0  0  0
   10.0398   14.3370    1.4592 N   0  0  0  0  0  0  0  0  0  0  0  0
  1  2  1  0
  2  3  1  0
  3  4  2  0
  4  5  1  0
  5  6  1  0
  6  7  2  0
  7  8  1  0
  8  9  2  0
  9 10  1  0
 10 11  1  0
 11 12  1  0
 12 13  1  1
 12 14  1  0
 14 15  2  0
 15 16  1  0
 16 17  1  0
 16 18  2  0
 18 19  1  0
 19 20  2  0
 20 21  1  0
 21 22  1  0
 21 23  1  0
 23 24  2  0
  9 25  1  0
 25 26  2  0
  5 27  2  0
 27  2  1  0
 26  6  1  0
 24 14  1  0
 23 18  1  0
M  END
>  <distance_score>  (363) 
1.780366

>  <smiles>  (363) 
Cn1ccc(-c2ccc(CNC(O)c3cc(O)c4cnn(C)c4c3)cc2)n1

>  <fragmenstein_error>  (363) 


>  <fragmenstein_runtime>  (363) 
1.837213

>  <gnina_score_min>  (363) 
3.777

>  <orig_smiles>  (363) 
Cn1ccc(-c2ccc(CNC(O)c3cc(O)c4cnn(C)c4c3)cc2)n1

>  <fragmenstein_mode>  (363) 
expansion

>  <rmsd(smina/fragmenstein)>  (363) 
3.42

>  <inspiration_score>  (363) 
None

>  <name>  (363) 
YRCHILFIYQZGLZ-UHFFFAOYSA-N-P76-P9-P76-601504

>  <ref_pdb>  (363) 
A0514b

>  <ref_mols>  (363) 
A0486a,A0717a

>  <subsites>  (363) 
None

>  <tags>  (363) 
openbind_a71ev2a_c1_elabs_filtered,fragmenstein_placed,a71ev2a_c1_elab_bulkdock_input,openbind_a71ev2a_c1_elab_chemspace_filtered_scored

>  <inchikey>  (363) 
YRCHILFIYQZGLZ-UHFFFAOYSA-N

>  <scratch_subdir>  (363) 
/opt/xchem-fragalysis-2/maxwin/BulkDock/SCRATCH/601504/YRCHILFIYQZGLZ-UHFFFAOYSA-N-P76-P9-P76-601504

>  <smina_score_min>  (363) 
-5.502

>  <energy_score>  (363) 
-28.007825

>  <Energy>  (363) 
23.967489

>  <fragmenstein_outcome>  (363) 
too moved

>  <alias>  (363) 
YRCHILFIYQZGLZ-UHFFFAOYSA-N-P76-P9-P76-601504

>  <HIPPO Pose ID>  (363) 
507551

>  <exports>  (363) 
['/opt/xchem-fragalysis-2/maxwin/openbind-hippo/a71ev2a/cycle_01/bulkdock/openbind_a71ev2a_c1_elab_chemspace.sdf', '/opt/xchem-fragalysis-2/maxwin/openbind-hippo/a71ev2a/cycle_01/syndirella/elabs/openbind_a71ev2a_c1_elab_chemspace_filtered.sdf']

>  <HIPPO Compound ID>  (363) 
289739

>  <gnina_score>  (363) 
4.174

$$$$
GHIAWPWOHGJZFC-UHFFFAOYSA-N-P76-P9-P76-601504
     RDKit          3D

 27 30  0  0  0  0  0  0  0  0999 V2000
   22.5230   14.0089    1.6516 C   0  0  0  0  0  0  0  0  0  0  0  0
   21.6957   14.5284    2.8189 C   0  0  0  0  0  0  0  0  0  0  0  0
   20.2687   14.3565    2.6140 N   0  0  0  0  0  0  0  0  0  0  0  0
   19.7875   13.0930    2.5912 N   0  0  0  0  0  0  0  0  0  0  0  0
   18.6991   13.1999    1.8365 C   0  0  0  0  0  0  0  0  0  0  0  0
   18.3727   14.5390    1.5744 C   0  0  0  0  0  0  0  0  0  0  0  0
   17.3805   15.1780    0.8328 C   0  0  0  0  0  0  0  0  0  0  0  0
   17.2150   16.5473    0.9884 C   0  0  0  0  0  0  0  0  0  0  0  0
   17.9502   17.2610    1.9405 C   0  0  0  0  0  0  0  0  0  0  0  0
   17.3897   18.5934    2.4349 C   0  0  1  0  0  0  0  0  0  0  0  0
   17.8488   19.6018    1.5668 O   0  0  0  0  0  0  0  0  0  0  0  0
   15.9216   18.7045    2.4611 N   0  0  0  0  0  0  0  0  0  0  0  0
   15.2654   17.8364    3.4465 C   0  0  0  0  0  0  0  0  0  0  0  0
   13.8916   17.3112    3.0212 C   0  0  0  0  0  0  0  0  0  0  0  0
   12.6839   17.8375    3.5118 C   0  0  0  0  0  0  0  0  0  0  0  0
   11.4323   17.2307    3.2182 C   0  0  0  0  0  0  0  0  0  0  0  0
   11.3506   16.0892    2.4088 C   0  0  0  0  0  0  0  0  0  0  0  0
   10.1272   15.2735    2.2404 C   0  0  0  0  0  0  0  0  0  0  0  0
    8.9390   15.2501    3.0255 C   0  0  0  0  0  0  0  0  0  0  0  0
    8.2251   14.1543    2.5947 C   0  0  0  0  0  0  0  0  0  0  0  0
    8.9606   13.6064    1.5922 N   0  0  0  0  0  0  0  0  0  0  0  0
    8.6553   12.4130    0.8413 C   0  0  0  0  0  0  0  0  0  0  0  0
   10.0944   14.2759    1.3385 N   0  0  0  0  0  0  0  0  0  0  0  0
   12.5592   15.6132    1.8677 C   0  0  0  0  0  0  0  0  0  0  0  0
   13.7983   16.2003    2.1758 C   0  0  0  0  0  0  0  0  0  0  0  0
   19.1330   16.6814    2.4729 C   0  0  0  0  0  0  0  0  0  0  0  0
   19.3111   15.2941    2.2772 C   0  0  0  0  0  0  0  0  0  0  0  0
  1  2  1  0
  2  3  1  0
  3  4  1  0
  4  5  2  0
  5  6  1  0
  6  7  2  0
  7  8  1  0
  8  9  2  0
  9 10  1  0
 10 11  1  6
 10 12  1  0
 12 13  1  0
 13 14  1  0
 14 15  2  0
 15 16  1  0
 16 17  2  0
 17 18  1  0
 18 19  1  0
 19 20  2  0
 20 21  1  0
 21 22  1  0
 21 23  1  0
 17 24  1  0
 24 25  2  0
  9 26  1  0
 26 27  2  0
 27  3  1  0
 27  6  1  0
 25 14  1  0
 23 18  2  0
M  END
>  <distance_score>  (364) 
1.731785

>  <smiles>  (364) 
CCn1ncc2ccc(C(O)NCc3ccc(-c4ccn(C)n4)cc3)cc21

>  <fragmenstein_error>  (364) 


>  <fragmenstein_runtime>  (364) 
1.871777

>  <gnina_score_min>  (364) 
4.561

>  <orig_smiles>  (364) 
CCn1ncc2ccc(C(O)NCc3ccc(-c4ccn(C)n4)cc3)cc21

>  <fragmenstein_mode>  (364) 
expansion

>  <rmsd(smina/fragmenstein)>  (364) 
2.73

>  <inspiration_score>  (364) 
None

>  <name>  (364) 
GHIAWPWOHGJZFC-UHFFFAOYSA-N-P76-P9-P76-601504

>  <ref_pdb>  (364) 
A0514b

>  <ref_mols>  (364) 
A0486a,A0717a

>  <subsites>  (364) 
None

>  <tags>  (364) 
openbind_a71ev2a_c1_elabs_filtered,fragmenstein_placed,a71ev2a_c1_elab_bulkdock_input,openbind_a71ev2a_c1_elab_chemspace_filtered_scored

>  <inchikey>  (364) 
GHIAWPWOHGJZFC-UHFFFAOYSA-N

>  <scratch_subdir>  (364) 
/opt/xchem-fragalysis-2/maxwin/BulkDock/SCRATCH/601504/GHIAWPWOHGJZFC-UHFFFAOYSA-N-P76-P9-P76-601504

>  <smina_score_min>  (364) 
-3.303

>  <energy_score>  (364) 
-16.793313

>  <Energy>  (364) 
32.738737

>  <fragmenstein_outcome>  (364) 
too moved

>  <alias>  (364) 
GHIAWPWOHGJZFC-UHFFFAOYSA-N-P76-P9-P76-601504

>  <HIPPO Pose ID>  (364) 
507555

>  <exports>  (364) 
['/opt/xchem-fragalysis-2/maxwin/openbind-hippo/a71ev2a/cycle_01/bulkdock/openbind_a71ev2a_c1_elab_chemspace.sdf', '/opt/xchem-fragalysis-2/maxwin/openbind-hippo/a71ev2a/cycle_01/syndirella/elabs/openbind_a71ev2a_c1_elab_chemspace_filtered.sdf']

>  <HIPPO Compound ID>  (364) 
289741

>  <gnina_score>  (364) 
4.292

$$$$
BZJNWWWWZLRWBF-UHFFFAOYSA-N-P76-P9-P76-601504
     RDKit          3D

 27 30  0  0  0  0  0  0  0  0999 V2000
   22.5954   13.6099    1.8621 C   0  0  0  0  0  0  0  0  0  0  0  0
   21.6611   14.8066    1.9496 C   0  0  0  0  0  0  0  0  0  0  0  0
   20.2986   14.5262    2.3629 N   0  0  0  0  0  0  0  0  0  0  0  0
   20.0155   13.3670    2.9980 N   0  0  0  0  0  0  0  0  0  0  0  0
   18.7935   13.5580    3.4788 C   0  0  0  0  0  0  0  0  0  0  0  0
   18.2600   14.7970    3.1088 C   0  0  0  0  0  0  0  0  0  0  0  0
   17.0816   15.4722    3.4099 C   0  0  0  0  0  0  0  0  0  0  0  0
   16.8226   16.6667    2.7566 C   0  0  0  0  0  0  0  0  0  0  0  0
   17.6638   17.1716    1.7572 C   0  0  0  0  0  0  0  0  0  0  0  0
   17.0870   18.2821    0.8698 C   0  0  1  0  0  0  0  0  0  0  0  0
   17.8901   18.4195   -0.2861 O   0  0  0  0  0  0  0  0  0  0  0  0
   15.7537   17.9490    0.3611 N   0  0  0  0  0  0  0  0  0  0  0  0
   14.6326   18.5339    1.1219 C   0  0  0  0  0  0  0  0  0  0  0  0
   13.4267   17.6063    1.2902 C   0  0  0  0  0  0  0  0  0  0  0  0
   12.1570   18.1365    1.5949 C   0  0  0  0  0  0  0  0  0  0  0  0
   11.0326   17.3064    1.8126 C   0  0  0  0  0  0  0  0  0  0  0  0
   11.1443   15.9174    1.7344 C   0  0  0  0  0  0  0  0  0  0  0  0
    9.9961   15.0150    1.8850 C   0  0  0  0  0  0  0  0  0  0  0  0
    9.0764   14.8535    2.9085 C   0  0  0  0  0  0  0  0  0  0  0  0
    8.3403   13.7002    2.5759 C   0  0  0  0  0  0  0  0  0  0  0  0
    8.6873   13.2112    1.3872 N   0  0  0  0  0  0  0  0  0  0  0  0
    9.6464   14.0511    0.9604 N   0  0  0  0  0  0  0  0  0  0  0  0
   10.1840   13.8533   -0.3671 C   0  0  0  0  0  0  0  0  0  0  0  0
   12.4190   15.3864    1.4689 C   0  0  0  0  0  0  0  0  0  0  0  0
   13.5361   16.2117    1.2470 C   0  0  0  0  0  0  0  0  0  0  0  0
   18.9484   16.5874    1.5901 C   0  0  0  0  0  0  0  0  0  0  0  0
   19.2140   15.3827    2.2810 C   0  0  0  0  0  0  0  0  0  0  0  0
  1  2  1  0
  2  3  1  0
  3  4  1  0
  4  5  2  0
  5  6  1  0
  6  7  2  0
  7  8  1  0
  8  9  2  0
  9 10  1  0
 10 11  1  6
 10 12  1  0
 12 13  1  0
 13 14  1  0
 14 15  2  0
 15 16  1  0
 16 17  2  0
 17 18  1  0
 18 19  2  0
 19 20  1  0
 20 21  2  0
 21 22  1  0
 22 23  1  0
 17 24  1  0
 24 25  2  0
  9 26  1  0
 26 27  2  0
 27  3  1  0
 27  6  1  0
 25 14  1  0
 22 18  1  0
M  END
>  <distance_score>  (365) 
1.769367

>  <smiles>  (365) 
CCn1ncc2ccc(C(O)NCc3ccc(-c4ccnn4C)cc3)cc21

>  <fragmenstein_error>  (365) 


>  <fragmenstein_runtime>  (365) 
1.825682

>  <gnina_score_min>  (365) 
4.082

>  <orig_smiles>  (365) 
CCn1ncc2ccc(C(O)NCc3ccc(-c4ccnn4C)cc3)cc21

>  <fragmenstein_mode>  (365) 
expansion

>  <rmsd(smina/fragmenstein)>  (365) 
2.8

>  <inspiration_score>  (365) 
None

>  <name>  (365) 
BZJNWWWWZLRWBF-UHFFFAOYSA-N-P76-P9-P76-601504

>  <ref_pdb>  (365) 
A0514b

>  <ref_mols>  (365) 
A0486a,A0717a

>  <subsites>  (365) 
None

>  <tags>  (365) 
openbind_a71ev2a_c1_elabs_filtered,fragmenstein_placed,a71ev2a_c1_elab_bulkdock_input,openbind_a71ev2a_c1_elab_chemspace_filtered_scored

>  <inchikey>  (365) 
BZJNWWWWZLRWBF-UHFFFAOYSA-N

>  <scratch_subdir>  (365) 
/opt/xchem-fragalysis-2/maxwin/BulkDock/SCRATCH/601504/BZJNWWWWZLRWBF-UHFFFAOYSA-N-P76-P9-P76-601504

>  <smina_score_min>  (365) 
-4.075

>  <energy_score>  (365) 
-37.731091

>  <Energy>  (365) 
26.469818

>  <fragmenstein_outcome>  (365) 
too moved

>  <alias>  (365) 
BZJNWWWWZLRWBF-UHFFFAOYSA-N-P76-P9-P76-601504

>  <HIPPO Pose ID>  (365) 
507557

>  <exports>  (365) 
['/opt/xchem-fragalysis-2/maxwin/openbind-hippo/a71ev2a/cycle_01/bulkdock/openbind_a71ev2a_c1_elab_chemspace.sdf', '/opt/xchem-fragalysis-2/maxwin/openbind-hippo/a71ev2a/cycle_01/syndirella/elabs/openbind_a71ev2a_c1_elab_chemspace_filtered.sdf']

>  <HIPPO Compound ID>  (365) 
289742

>  <gnina_score>  (365) 
3.892

$$$$
QAXMGIZYEFQQAT-UHFFFAOYSA-N-P76-P9-P76-601504
     RDKit          3D

 27 30  0  0  0  0  0  0  0  0999 V2000
   18.1015   11.9890    1.3849 C   0  0  0  0  0  0  0  0  0  0  0  0
   18.7423   13.2508    1.8333 C   0  0  0  0  0  0  0  0  0  0  0  0
   19.9977   13.2562    2.2776 N   0  0  0  0  0  0  0  0  0  0  0  0
   20.2789   14.5620    2.4638 N   0  0  0  0  0  0  0  0  0  0  0  0
   21.6686   14.9125    2.6295 C   0  0  0  0  0  0  0  0  0  0  0  0
   19.1755   15.3854    2.3718 C   0  0  0  0  0  0  0  0  0  0  0  0
   18.9049   16.7459    2.6630 C   0  0  0  0  0  0  0  0  0  0  0  0
   17.5714   17.2112    2.4814 C   0  0  0  0  0  0  0  0  0  0  0  0
   17.0340   18.5367    3.0391 C   0  0  2  0  0  0  0  0  0  0  0  0
   17.7955   18.8560    4.1905 O   0  0  0  0  0  0  0  0  0  0  0  0
   15.6493   18.4627    3.5397 N   0  0  0  0  0  0  0  0  0  0  0  0
   14.6306   18.9348    2.5773 C   0  0  0  0  0  0  0  0  0  0  0  0
   13.3610   18.0818    2.5537 C   0  0  0  0  0  0  0  0  0  0  0  0
   13.0022   17.3951    1.3837 C   0  0  0  0  0  0  0  0  0  0  0  0
   11.8636   16.5712    1.3343 C   0  0  0  0  0  0  0  0  0  0  0  0
   11.0147   16.4111    2.4416 C   0  0  0  0  0  0  0  0  0  0  0  0
    9.9445   15.3912    2.3966 C   0  0  0  0  0  0  0  0  0  0  0  0
    8.8430   15.1823    3.2735 C   0  0  0  0  0  0  0  0  0  0  0  0
    8.2592   14.0019    2.8719 C   0  0  0  0  0  0  0  0  0  0  0  0
    8.9849   13.5755    1.8061 N   0  0  0  0  0  0  0  0  0  0  0  0
    8.7884   12.3604    1.0538 C   0  0  0  0  0  0  0  0  0  0  0  0
    9.9961   14.3996    1.4868 N   0  0  0  0  0  0  0  0  0  0  0  0
   11.3304   17.1519    3.5925 C   0  0  0  0  0  0  0  0  0  0  0  0
   12.4916   17.9659    3.6506 C   0  0  0  0  0  0  0  0  0  0  0  0
   16.6689   16.3916    1.8002 C   0  0  0  0  0  0  0  0  0  0  0  0
   16.9485   15.0697    1.4957 C   0  0  0  0  0  0  0  0  0  0  0  0
   18.1875   14.5462    1.8581 C   0  0  0  0  0  0  0  0  0  0  0  0
  1  2  1  0
  2  3  2  0
  3  4  1  0
  4  5  1  0
  4  6  1  0
  6  7  2  0
  7  8  1  0
  8  9  1  0
  9 10  1  1
  9 11  1  0
 11 12  1  0
 12 13  1  0
 13 14  2  0
 14 15  1  0
 15 16  2  0
 16 17  1  0
 17 18  1  0
 18 19  2  0
 19 20  1  0
 20 21  1  0
 20 22  1  0
 16 23  1  0
 23 24  2  0
  8 25  2  0
 25 26  1  0
 26 27  2  0
 27  2  1  0
 27  6  1  0
 24 13  1  0
 22 17  2  0
M  END
>  <distance_score>  (366) 
1.803907

>  <smiles>  (366) 
Cc1nn(C)c2cc(C(O)NCc3ccc(-c4ccn(C)n4)cc3)ccc12

>  <fragmenstein_error>  (366) 


>  <fragmenstein_runtime>  (366) 
3.041561

>  <gnina_score_min>  (366) 
3.881

>  <orig_smiles>  (366) 
Cc1nn(C)c2cc(C(O)NCc3ccc(-c4ccn(C)n4)cc3)ccc12

>  <fragmenstein_mode>  (366) 
expansion

>  <rmsd(smina/fragmenstein)>  (366) 
2.948

>  <inspiration_score>  (366) 
None

>  <name>  (366) 
QAXMGIZYEFQQAT-UHFFFAOYSA-N-P76-P9-P76-601504

>  <ref_pdb>  (366) 
A0514b

>  <ref_mols>  (366) 
A0486a,A0717a

>  <subsites>  (366) 
None

>  <tags>  (366) 
openbind_a71ev2a_c1_elabs_filtered,fragmenstein_placed,a71ev2a_c1_elab_bulkdock_input,openbind_a71ev2a_c1_elab_chemspace_filtered_scored

>  <inchikey>  (366) 
QAXMGIZYEFQQAT-UHFFFAOYSA-N

>  <scratch_subdir>  (366) 
/opt/xchem-fragalysis-2/maxwin/BulkDock/SCRATCH/601504/QAXMGIZYEFQQAT-UHFFFAOYSA-N-P76-P9-P76-601504

>  <smina_score_min>  (366) 
-5.026

>  <energy_score>  (366) 
-18.703172

>  <Energy>  (366) 
32.733872

>  <fragmenstein_outcome>  (366) 
too moved

>  <alias>  (366) 
QAXMGIZYEFQQAT-UHFFFAOYSA-N-P76-P9-P76-601504

>  <HIPPO Pose ID>  (366) 
507561

>  <exports>  (366) 
['/opt/xchem-fragalysis-2/maxwin/openbind-hippo/a71ev2a/cycle_01/bulkdock/openbind_a71ev2a_c1_elab_chemspace.sdf', '/opt/xchem-fragalysis-2/maxwin/openbind-hippo/a71ev2a/cycle_01/syndirella/elabs/openbind_a71ev2a_c1_elab_chemspace_filtered.sdf']

>  <HIPPO Compound ID>  (366) 
289744

>  <gnina_score>  (366) 
4.406

$$$$
NPUMLTFYQROYDB-UHFFFAOYSA-N-P76-P9-P76-601504
     RDKit          3D

 27 30  0  0  0  0  0  0  0  0999 V2000
   20.0343   17.8630    3.1636 C   0  0  0  0  0  0  0  0  0  0  0  0
   19.1329   16.8872    2.4602 C   0  0  0  0  0  0  0  0  0  0  0  0
   17.8636   17.3456    1.9677 C   0  0  0  0  0  0  0  0  0  0  0  0
   17.1581   18.6246    2.4544 C   0  0  1  0  0  0  0  0  0  0  0  0
   17.1476   19.6023    1.4403 O   0  0  0  0  0  0  0  0  0  0  0  0
   15.8051   18.3678    2.9982 N   0  0  0  0  0  0  0  0  0  0  0  0
   14.6740   18.6309    2.0967 C   0  0  0  0  0  0  0  0  0  0  0  0
   13.4582   17.7210    2.2884 C   0  0  0  0  0  0  0  0  0  0  0  0
   13.5397   16.3495    2.0219 C   0  0  0  0  0  0  0  0  0  0  0  0
   12.3908   15.5426    2.0033 C   0  0  0  0  0  0  0  0  0  0  0  0
   11.1111   16.0666    2.2575 C   0  0  0  0  0  0  0  0  0  0  0  0
    9.9411   15.1807    2.1787 C   0  0  0  0  0  0  0  0  0  0  0  0
    8.9696   14.8608    3.1141 C   0  0  0  0  0  0  0  0  0  0  0  0
    8.2639   13.7718    2.5682 C   0  0  0  0  0  0  0  0  0  0  0  0
    8.6752   13.4752    1.3369 N   0  0  0  0  0  0  0  0  0  0  0  0
    9.6496   14.3713    1.0983 N   0  0  0  0  0  0  0  0  0  0  0  0
   10.2640   14.3777   -0.2101 C   0  0  0  0  0  0  0  0  0  0  0  0
   11.0288   17.4204    2.5880 C   0  0  0  0  0  0  0  0  0  0  0  0
   12.1851   18.2376    2.5934 C   0  0  0  0  0  0  0  0  0  0  0  0
   17.1289   16.5414    1.0932 C   0  0  0  0  0  0  0  0  0  0  0  0
   17.3736   15.1849    0.9915 C   0  0  0  0  0  0  0  0  0  0  0  0
   18.4444   14.6483    1.7016 C   0  0  0  0  0  0  0  0  0  0  0  0
   18.8519   13.3373    1.9866 C   0  0  0  0  0  0  0  0  0  0  0  0
   19.9903   13.3124    2.6655 N   0  0  0  0  0  0  0  0  0  0  0  0
   20.4052   14.6000    2.6201 N   0  0  0  0  0  0  0  0  0  0  0  0
   21.8351   14.7969    2.6640 C   0  0  0  0  0  0  0  0  0  0  0  0
   19.3827   15.4881    2.3145 C   0  0  0  0  0  0  0  0  0  0  0  0
  1  2  1  0
  2  3  2  0
  3  4  1  0
  4  5  1  6
  4  6  1  0
  6  7  1  0
  7  8  1  0
  8  9  2  0
  9 10  1  0
 10 11  2  0
 11 12  1  0
 12 13  2  0
 13 14  1  0
 14 15  2  0
 15 16  1  0
 16 17  1  0
 11 18  1  0
 18 19  2  0
  3 20  1  0
 20 21  2  0
 21 22  1  0
 22 23  1  0
 23 24  2  0
 24 25  1  0
 25 26  1  0
 25 27  1  0
 27  2  1  0
 19  8  1  0
 27 22  2  0
 16 12  1  0
M  END
>  <distance_score>  (367) 
1.634641

>  <smiles>  (367) 
Cc1c(C(O)NCc2ccc(-c3ccnn3C)cc2)ccc2cnn(C)c12

>  <fragmenstein_error>  (367) 


>  <fragmenstein_runtime>  (367) 
2.131391

>  <gnina_score_min>  (367) 
4.071

>  <orig_smiles>  (367) 
Cc1c(C(O)NCc2ccc(-c3ccnn3C)cc2)ccc2cnn(C)c12

>  <fragmenstein_mode>  (367) 
expansion

>  <rmsd(smina/fragmenstein)>  (367) 
3.431

>  <inspiration_score>  (367) 
None

>  <name>  (367) 
NPUMLTFYQROYDB-UHFFFAOYSA-N-P76-P9-P76-601504

>  <ref_pdb>  (367) 
A0514b

>  <ref_mols>  (367) 
A0486a,A0717a

>  <subsites>  (367) 
None

>  <tags>  (367) 
openbind_a71ev2a_c1_elabs_filtered,fragmenstein_placed,a71ev2a_c1_elab_bulkdock_input,openbind_a71ev2a_c1_elab_chemspace_filtered_scored

>  <inchikey>  (367) 
NPUMLTFYQROYDB-UHFFFAOYSA-N

>  <scratch_subdir>  (367) 
/opt/xchem-fragalysis-2/maxwin/BulkDock/SCRATCH/601504/NPUMLTFYQROYDB-UHFFFAOYSA-N-P76-P9-P76-601504

>  <smina_score_min>  (367) 
-3.626

>  <energy_score>  (367) 
-35.703464

>  <Energy>  (367) 
45.662202

>  <fragmenstein_outcome>  (367) 
too moved

>  <alias>  (367) 
NPUMLTFYQROYDB-UHFFFAOYSA-N-P76-P9-P76-601504

>  <HIPPO Pose ID>  (367) 
507563

>  <exports>  (367) 
['/opt/xchem-fragalysis-2/maxwin/openbind-hippo/a71ev2a/cycle_01/bulkdock/openbind_a71ev2a_c1_elab_chemspace.sdf', '/opt/xchem-fragalysis-2/maxwin/openbind-hippo/a71ev2a/cycle_01/syndirella/elabs/openbind_a71ev2a_c1_elab_chemspace_filtered.sdf']

>  <HIPPO Compound ID>  (367) 
289745

>  <gnina_score>  (367) 
4.142

$$$$
UYJHDDYHNOTAEK-UHFFFAOYSA-N-P9-P9-P76-601504
     RDKit          3D

 27 30  0  0  0  0  0  0  0  0999 V2000
   16.6243   14.8178    3.3936 C   0  0  0  0  0  0  0  0  0  0  0  0
   17.6109   15.7729    2.7998 C   0  0  0  0  0  0  0  0  0  0  0  0
   17.2911   17.1542    2.5244 C   0  0  0  0  0  0  0  0  0  0  0  0
   16.0072   17.7851    3.0979 C   0  0  1  0  0  0  0  0  0  0  0  0
   16.2134   19.1787    3.2863 O   0  0  0  0  0  0  0  0  0  0  0  0
   14.8441   17.5768    2.2572 N   0  0  0  0  0  0  0  0  0  0  0  0
   13.6873   18.3419    2.7575 C   0  0  0  0  0  0  0  0  0  0  0  0
   12.3783   17.6255    2.5058 C   0  0  0  0  0  0  0  0  0  0  0  0
   12.0404   17.1469    1.2378 C   0  0  0  0  0  0  0  0  0  0  0  0
   10.9086   16.3434    1.0623 C   0  0  0  0  0  0  0  0  0  0  0  0
   10.1069   15.9748    2.1508 C   0  0  0  0  0  0  0  0  0  0  0  0
    9.1837   14.8296    2.0777 C   0  0  0  0  0  0  0  0  0  0  0  0
    8.0712   14.5271    2.8502 C   0  0  0  0  0  0  0  0  0  0  0  0
    7.6617   13.2436    2.4562 C   0  0  0  0  0  0  0  0  0  0  0  0
    8.4260   12.7526    1.4867 N   0  0  0  0  0  0  0  0  0  0  0  0
    9.3848   13.6815    1.3249 N   0  0  0  0  0  0  0  0  0  0  0  0
   10.5107   13.3124    0.4945 C   0  0  0  0  0  0  0  0  0  0  0  0
   10.3319   16.6247    3.3704 C   0  0  0  0  0  0  0  0  0  0  0  0
   11.4686   17.4224    3.5531 C   0  0  0  0  0  0  0  0  0  0  0  0
   18.1772   18.0102    1.7784 C   0  0  0  0  0  0  0  0  0  0  0  0
   19.4599   17.6438    1.3570 C   0  0  0  0  0  0  0  0  0  0  0  0
   19.7711   16.3640    1.7723 C   0  0  0  0  0  0  0  0  0  0  0  0
   21.0144   15.8201    1.6666 C   0  0  0  0  0  0  0  0  0  0  0  0
   20.9206   14.6393    2.3375 N   0  0  0  0  0  0  0  0  0  0  0  0
   22.0566   13.8575    2.7609 C   0  0  0  0  0  0  0  0  0  0  0  0
   19.6564   14.2999    2.6957 N   0  0  0  0  0  0  0  0  0  0  0  0
   18.9354   15.4174    2.4545 C   0  0  0  0  0  0  0  0  0  0  0  0
  1  2  1  0
  2  3  2  0
  3  4  1  0
  4  5  1  6
  4  6  1  0
  6  7  1  0
  7  8  1  0
  8  9  2  0
  9 10  1  0
 10 11  2  0
 11 12  1  0
 12 13  2  0
 13 14  1  0
 14 15  2  0
 15 16  1  0
 16 17  1  0
 11 18  1  0
 18 19  2  0
  3 20  1  0
 20 21  2  0
 21 22  1  0
 22 23  2  0
 23 24  1  0
 24 25  1  0
 24 26  1  0
 26 27  2  0
 27  2  1  0
 19  8  1  0
 27 22  1  0
 16 12  1  0
M  END
>  <distance_score>  (368) 
1.743608

>  <smiles>  (368) 
Cc1c(C(O)NCc2ccc(-c3ccnn3C)cc2)ccc2cn(C)nc12

>  <fragmenstein_error>  (368) 


>  <fragmenstein_runtime>  (368) 
2.227402

>  <gnina_score_min>  (368) 
4.173

>  <orig_smiles>  (368) 
Cc1c(C(O)NCc2ccc(-c3ccnn3C)cc2)ccc2cn(C)nc12

>  <fragmenstein_mode>  (368) 
expansion

>  <rmsd(smina/fragmenstein)>  (368) 
2.17

>  <inspiration_score>  (368) 
None

>  <name>  (368) 
UYJHDDYHNOTAEK-UHFFFAOYSA-N-P9-P9-P76-601504

>  <ref_pdb>  (368) 
A0514b

>  <ref_mols>  (368) 
A0486a,A0717a

>  <subsites>  (368) 
None

>  <tags>  (368) 
openbind_a71ev2a_c1_elabs_filtered,fragmenstein_placed,a71ev2a_c1_elab_bulkdock_input,openbind_a71ev2a_c1_elab_chemspace_filtered_scored

>  <inchikey>  (368) 
UYJHDDYHNOTAEK-UHFFFAOYSA-N

>  <scratch_subdir>  (368) 
/opt/xchem-fragalysis-2/maxwin/BulkDock/SCRATCH/601504/UYJHDDYHNOTAEK-UHFFFAOYSA-N-P9-P9-P76-601504

>  <smina_score_min>  (368) 
-4.342

>  <energy_score>  (368) 
-17.90478

>  <Energy>  (368) 
22.019404

>  <fragmenstein_outcome>  (368) 
too moved

>  <alias>  (368) 
UYJHDDYHNOTAEK-UHFFFAOYSA-N-P9-P9-P76-601504

>  <HIPPO Pose ID>  (368) 
507570

>  <exports>  (368) 
['/opt/xchem-fragalysis-2/maxwin/openbind-hippo/a71ev2a/cycle_01/bulkdock/openbind_a71ev2a_c1_elab_chemspace.sdf', '/opt/xchem-fragalysis-2/maxwin/openbind-hippo/a71ev2a/cycle_01/syndirella/elabs/openbind_a71ev2a_c1_elab_chemspace_filtered.sdf']

>  <HIPPO Compound ID>  (368) 
289749

>  <gnina_score>  (368) 
4.63

$$$$
POQDMVWERIUBTA-UHFFFAOYSA-N-P9-P9-P76-601504
     RDKit          3D

 27 30  0  0  0  0  0  0  0  0999 V2000
   19.3333   18.6753    3.1061 C   0  0  0  0  0  0  0  0  0  0  0  0
   18.7892   17.4766    2.3946 C   0  0  0  0  0  0  0  0  0  0  0  0
   17.4921   17.4530    1.7774 C   0  0  0  0  0  0  0  0  0  0  0  0
   16.5688   18.6774    1.8777 C   0  0  1  0  0  0  0  0  0  0  0  0
   16.9264   19.5533    0.8336 O   0  0  0  0  0  0  0  0  0  0  0  0
   15.1330   18.4654    1.7408 N   0  0  0  0  0  0  0  0  0  0  0  0
   14.5325   17.7704    2.8766 C   0  0  0  0  0  0  0  0  0  0  0  0
   13.1776   17.1630    2.5479 C   0  0  0  0  0  0  0  0  0  0  0  0
   11.9866   17.6214    3.1354 C   0  0  0  0  0  0  0  0  0  0  0  0
   10.7621   16.9486    2.9303 C   0  0  0  0  0  0  0  0  0  0  0  0
   10.7013   15.8057    2.1240 C   0  0  0  0  0  0  0  0  0  0  0  0
    9.5374   14.9053    2.0779 C   0  0  0  0  0  0  0  0  0  0  0  0
    8.4425   14.8055    2.9803 C   0  0  0  0  0  0  0  0  0  0  0  0
    7.7859   13.6456    2.6394 C   0  0  0  0  0  0  0  0  0  0  0  0
    8.4631   13.1356    1.5779 N   0  0  0  0  0  0  0  0  0  0  0  0
    8.1926   11.8969    0.8902 C   0  0  0  0  0  0  0  0  0  0  0  0
    9.4958   13.8968    1.1901 N   0  0  0  0  0  0  0  0  0  0  0  0
   11.8843   15.4016    1.4783 C   0  0  0  0  0  0  0  0  0  0  0  0
   13.1005   16.0573    1.6943 C   0  0  0  0  0  0  0  0  0  0  0  0
   17.0476   16.3007    1.0292 C   0  0  0  0  0  0  0  0  0  0  0  0
   17.7336   15.0759    0.9138 C   0  0  0  0  0  0  0  0  0  0  0  0
   18.9471   15.1392    1.5643 C   0  0  0  0  0  0  0  0  0  0  0  0
   19.8778   14.1376    1.6003 C   0  0  0  0  0  0  0  0  0  0  0  0
   20.9215   14.6641    2.2991 N   0  0  0  0  0  0  0  0  0  0  0  0
   22.1806   14.0302    2.6107 C   0  0  0  0  0  0  0  0  0  0  0  0
   20.7189   15.9301    2.6936 N   0  0  0  0  0  0  0  0  0  0  0  0
   19.4954   16.2585    2.2592 C   0  0  0  0  0  0  0  0  0  0  0  0
  1  2  1  0
  2  3  2  0
  3  4  1  0
  4  5  1  6
  4  6  1  0
  6  7  1  0
  7  8  1  0
  8  9  2  0
  9 10  1  0
 10 11  2  0
 11 12  1  0
 12 13  1  0
 13 14  2  0
 14 15  1  0
 15 16  1  0
 15 17  1  0
 11 18  1  0
 18 19  2  0
  3 20  1  0
 20 21  2  0
 21 22  1  0
 22 23  2  0
 23 24  1  0
 24 25  1  0
 24 26  1  0
 26 27  2  0
 27  2  1  0
 19  8  1  0
 27 22  1  0
 17 12  2  0
M  END
>  <distance_score>  (369) 
1.869411

>  <smiles>  (369) 
Cc1c(C(O)NCc2ccc(-c3ccn(C)n3)cc2)ccc2cn(C)nc12

>  <fragmenstein_error>  (369) 


>  <fragmenstein_runtime>  (369) 
2.043914

>  <gnina_score_min>  (369) 
4.88

>  <orig_smiles>  (369) 
Cc1c(C(O)NCc2ccc(-c3ccn(C)n3)cc2)ccc2cn(C)nc12

>  <fragmenstein_mode>  (369) 
expansion

>  <rmsd(smina/fragmenstein)>  (369) 
0.881

>  <inspiration_score>  (369) 
None

>  <name>  (369) 
POQDMVWERIUBTA-UHFFFAOYSA-N-P9-P9-P76-601504

>  <ref_pdb>  (369) 
A0514b

>  <ref_mols>  (369) 
A0486a,A0717a

>  <subsites>  (369) 
None

>  <tags>  (369) 
openbind_a71ev2a_c1_elabs_filtered,fragmenstein_placed,a71ev2a_c1_elab_bulkdock_input,openbind_a71ev2a_c1_elab_chemspace_filtered_scored

>  <inchikey>  (369) 
POQDMVWERIUBTA-UHFFFAOYSA-N

>  <scratch_subdir>  (369) 
/opt/xchem-fragalysis-2/maxwin/BulkDock/SCRATCH/601504/POQDMVWERIUBTA-UHFFFAOYSA-N-P9-P9-P76-601504

>  <smina_score_min>  (369) 
-2.728

>  <energy_score>  (369) 
-36.238929

>  <Energy>  (369) 
15.969116

>  <fragmenstein_outcome>  (369) 
too moved

>  <alias>  (369) 
POQDMVWERIUBTA-UHFFFAOYSA-N-P9-P9-P76-601504

>  <HIPPO Pose ID>  (369) 
507572

>  <exports>  (369) 
['/opt/xchem-fragalysis-2/maxwin/openbind-hippo/a71ev2a/cycle_01/bulkdock/openbind_a71ev2a_c1_elab_chemspace.sdf', '/opt/xchem-fragalysis-2/maxwin/openbind-hippo/a71ev2a/cycle_01/syndirella/elabs/openbind_a71ev2a_c1_elab_chemspace_filtered.sdf']

>  <HIPPO Compound ID>  (369) 
289750

>  <gnina_score>  (369) 
4.616

$$$$
OVHYTYKUHPUBKR-UHFFFAOYSA-N-P76-P9-P76-601504
     RDKit          3D

 27 30  0  0  0  0  0  0  0  0999 V2000
   17.2965   19.9782   -0.0150 C   0  0  0  0  0  0  0  0  0  0  0  0
   16.8219   18.6406   -0.0641 O   0  0  0  0  0  0  0  0  0  0  0  0
   16.4377   18.1527    1.2114 C   0  0  1  0  0  0  0  0  0  0  0  0
   15.1196   17.5421    1.0890 N   0  0  0  0  0  0  0  0  0  0  0  0
   13.9865   18.4516    1.0510 C   0  0  0  0  0  0  0  0  0  0  0  0
   12.7038   17.6647    1.2831 C   0  0  0  0  0  0  0  0  0  0  0  0
   12.2116   16.8118    0.2890 C   0  0  0  0  0  0  0  0  0  0  0  0
   11.1300   15.9600    0.5504 C   0  0  0  0  0  0  0  0  0  0  0  0
   10.4949   15.9358    1.8053 C   0  0  0  0  0  0  0  0  0  0  0  0
    9.5203   14.8751    2.1001 C   0  0  0  0  0  0  0  0  0  0  0  0
    8.5821   14.7668    3.1623 C   0  0  0  0  0  0  0  0  0  0  0  0
    8.0424   13.5056    3.0558 C   0  0  0  0  0  0  0  0  0  0  0  0
    8.6463   12.9352    1.9808 N   0  0  0  0  0  0  0  0  0  0  0  0
    8.4726   11.5852    1.5036 C   0  0  0  0  0  0  0  0  0  0  0  0
    9.5030   13.7550    1.3561 N   0  0  0  0  0  0  0  0  0  0  0  0
   10.9354   16.8459    2.7740 C   0  0  0  0  0  0  0  0  0  0  0  0
   12.0353   17.6900    2.5193 C   0  0  0  0  0  0  0  0  0  0  0  0
   17.4285   17.0848    1.7223 C   0  0  0  0  0  0  0  0  0  0  0  0
   16.9217   16.2028    2.7513 C   0  0  0  0  0  0  0  0  0  0  0  0
   17.5936   15.0947    3.2841 C   0  0  0  0  0  0  0  0  0  0  0  0
   18.8548   14.9982    2.7393 C   0  0  0  0  0  0  0  0  0  0  0  0
   19.7859   14.0727    3.1051 C   0  0  0  0  0  0  0  0  0  0  0  0
   20.9107   14.4261    2.4279 N   0  0  0  0  0  0  0  0  0  0  0  0
   22.2298   13.8665    2.6018 C   0  0  0  0  0  0  0  0  0  0  0  0
   20.7295   15.4522    1.5736 N   0  0  0  0  0  0  0  0  0  0  0  0
   19.4643   15.8595    1.7751 C   0  0  0  0  0  0  0  0  0  0  0  0
   18.7530   16.9438    1.2224 C   0  0  0  0  0  0  0  0  0  0  0  0
  1  2  1  0
  2  3  1  0
  3  4  1  6
  4  5  1  0
  5  6  1  0
  6  7  2  0
  7  8  1  0
  8  9  2  0
  9 10  1  0
 10 11  1  0
 11 12  2  0
 12 13  1  0
 13 14  1  0
 13 15  1  0
  9 16  1  0
 16 17  2  0
  3 18  1  0
 18 19  1  0
 19 20  2  0
 20 21  1  0
 21 22  2  0
 22 23  1  0
 23 24  1  0
 23 25  1  0
 25 26  2  0
 26 27  1  0
 17  6  1  0
 27 18  2  0
 15 10  2  0
 26 21  1  0
M  END
>  <distance_score>  (370) 
1.845261

>  <smiles>  (370) 
COC(NCc1ccc(-c2ccn(C)n2)cc1)c1ccc2cn(C)nc2c1

>  <fragmenstein_error>  (370) 


>  <fragmenstein_runtime>  (370) 
2.161568

>  <gnina_score_min>  (370) 
4.496

>  <orig_smiles>  (370) 
COC(NCc1ccc(-c2ccn(C)n2)cc1)c1ccc2cn(C)nc2c1

>  <fragmenstein_mode>  (370) 
expansion

>  <rmsd(smina/fragmenstein)>  (370) 
3.115

>  <inspiration_score>  (370) 
None

>  <name>  (370) 
OVHYTYKUHPUBKR-UHFFFAOYSA-N-P76-P9-P76-601504

>  <ref_pdb>  (370) 
A0514b

>  <ref_mols>  (370) 
A0486a,A0717a

>  <subsites>  (370) 
None

>  <tags>  (370) 
openbind_a71ev2a_c1_elabs_filtered,fragmenstein_placed,a71ev2a_c1_elab_bulkdock_input,openbind_a71ev2a_c1_elab_chemspace_filtered_scored

>  <inchikey>  (370) 
OVHYTYKUHPUBKR-UHFFFAOYSA-N

>  <scratch_subdir>  (370) 
/opt/xchem-fragalysis-2/maxwin/BulkDock/SCRATCH/601504/OVHYTYKUHPUBKR-UHFFFAOYSA-N-P76-P9-P76-601504

>  <smina_score_min>  (370) 
-3.284

>  <energy_score>  (370) 
-35.044658

>  <Energy>  (370) 
30.573082

>  <fragmenstein_outcome>  (370) 
too moved

>  <alias>  (370) 
OVHYTYKUHPUBKR-UHFFFAOYSA-N-P76-P9-P76-601504

>  <HIPPO Pose ID>  (370) 
507575

>  <exports>  (370) 
['/opt/xchem-fragalysis-2/maxwin/openbind-hippo/a71ev2a/cycle_01/bulkdock/openbind_a71ev2a_c1_elab_chemspace.sdf', '/opt/xchem-fragalysis-2/maxwin/openbind-hippo/a71ev2a/cycle_01/syndirella/elabs/openbind_a71ev2a_c1_elab_chemspace_filtered.sdf']

>  <HIPPO Compound ID>  (370) 
289751

>  <gnina_score>  (370) 
3.9

$$$$
RPWLBUIULDXFFQ-UHFFFAOYSA-N-P76-P9-P76-601504
     RDKit          3D

 27 30  0  0  0  0  0  0  0  0999 V2000
   22.0710   15.5860    0.5259 C   0  0  0  0  0  0  0  0  0  0  0  0
   20.9011   15.3744    1.4131 C   0  0  0  0  0  0  0  0  0  0  0  0
   19.7184   16.0480    1.5690 C   0  0  0  0  0  0  0  0  0  0  0  0
   19.3692   17.2144    0.9034 C   0  0  0  0  0  0  0  0  0  0  0  0
   18.1912   17.7784    1.4221 C   0  0  0  0  0  0  0  0  0  0  0  0
   17.4314   17.2106    2.4984 C   0  0  0  0  0  0  0  0  0  0  0  0
   16.2109   17.9509    3.0547 C   0  0  1  0  0  0  0  0  0  0  0  0
   16.3067   19.3285    2.7673 O   0  0  0  0  0  0  0  0  0  0  0  0
   14.9683   17.4511    2.5004 N   0  0  0  0  0  0  0  0  0  0  0  0
   13.7886   18.0830    3.1177 C   0  0  0  0  0  0  0  0  0  0  0  0
   12.4978   17.3429    2.8184 C   0  0  0  0  0  0  0  0  0  0  0  0
   12.3341   16.5985    1.6466 C   0  0  0  0  0  0  0  0  0  0  0  0
   11.1932   15.8160    1.4584 C   0  0  0  0  0  0  0  0  0  0  0  0
   10.1694   15.7705    2.4199 C   0  0  0  0  0  0  0  0  0  0  0  0
    9.1687   14.6980    2.3393 C   0  0  0  0  0  0  0  0  0  0  0  0
    8.2032   14.2953    3.3023 C   0  0  0  0  0  0  0  0  0  0  0  0
    7.6911   13.1057    2.8397 C   0  0  0  0  0  0  0  0  0  0  0  0
    8.3238   12.8654    1.6612 N   0  0  0  0  0  0  0  0  0  0  0  0
    8.1620   11.7134    0.8086 C   0  0  0  0  0  0  0  0  0  0  0  0
    9.1840   13.8311    1.3120 N   0  0  0  0  0  0  0  0  0  0  0  0
   10.2637   16.6307    3.5203 C   0  0  0  0  0  0  0  0  0  0  0  0
   11.4217   17.4017    3.7209 C   0  0  0  0  0  0  0  0  0  0  0  0
   17.7913   15.9605    3.0872 C   0  0  0  0  0  0  0  0  0  0  0  0
   18.9860   15.3962    2.6129 C   0  0  0  0  0  0  0  0  0  0  0  0
   19.6629   14.3071    3.0154 N   0  0  0  0  0  0  0  0  0  0  0  0
   20.8654   14.4208    2.4007 N   0  0  0  0  0  0  0  0  0  0  0  0
   22.0049   13.6788    2.8915 C   0  0  0  0  0  0  0  0  0  0  0  0
  1  2  1  0
  2  3  2  0
  3  4  1  0
  4  5  2  0
  5  6  1  0
  6  7  1  0
  7  8  1  6
  7  9  1  0
  9 10  1  0
 10 11  1  0
 11 12  2  0
 12 13  1  0
 13 14  2  0
 14 15  1  0
 15 16  1  0
 16 17  2  0
 17 18  1  0
 18 19  1  0
 18 20  1  0
 14 21  1  0
 21 22  2  0
  6 23  2  0
 23 24  1  0
 24 25  2  0
 25 26  1  0
 26 27  1  0
 26  2  1  0
 24  3  1  0
 22 11  1  0
 20 15  2  0
M  END
>  <distance_score>  (371) 
1.614343

>  <smiles>  (371) 
Cc1c2ccc(C(O)NCc3ccc(-c4ccn(C)n4)cc3)cc2nn1C

>  <fragmenstein_error>  (371) 


>  <fragmenstein_runtime>  (371) 
2.427039

>  <gnina_score_min>  (371) 
3.889

>  <orig_smiles>  (371) 
Cc1c2ccc(C(O)NCc3ccc(-c4ccn(C)n4)cc3)cc2nn1C

>  <fragmenstein_mode>  (371) 
expansion

>  <rmsd(smina/fragmenstein)>  (371) 
2.959

>  <inspiration_score>  (371) 
None

>  <name>  (371) 
RPWLBUIULDXFFQ-UHFFFAOYSA-N-P76-P9-P76-601504

>  <ref_pdb>  (371) 
A0514b

>  <ref_mols>  (371) 
A0486a,A0717a

>  <subsites>  (371) 
None

>  <tags>  (371) 
openbind_a71ev2a_c1_elabs_filtered,fragmenstein_placed,a71ev2a_c1_elab_bulkdock_input,openbind_a71ev2a_c1_elab_chemspace_filtered_scored

>  <inchikey>  (371) 
RPWLBUIULDXFFQ-UHFFFAOYSA-N

>  <scratch_subdir>  (371) 
/opt/xchem-fragalysis-2/maxwin/BulkDock/SCRATCH/601504/RPWLBUIULDXFFQ-UHFFFAOYSA-N-P76-P9-P76-601504

>  <smina_score_min>  (371) 
-5.235

>  <energy_score>  (371) 
-29.777478

>  <Energy>  (371) 
15.192871

>  <fragmenstein_outcome>  (371) 
too moved

>  <alias>  (371) 
RPWLBUIULDXFFQ-UHFFFAOYSA-N-P76-P9-P76-601504

>  <HIPPO Pose ID>  (371) 
507581

>  <exports>  (371) 
['/opt/xchem-fragalysis-2/maxwin/openbind-hippo/a71ev2a/cycle_01/bulkdock/openbind_a71ev2a_c1_elab_chemspace.sdf', '/opt/xchem-fragalysis-2/maxwin/openbind-hippo/a71ev2a/cycle_01/syndirella/elabs/openbind_a71ev2a_c1_elab_chemspace_filtered.sdf']

>  <HIPPO Compound ID>  (371) 
289754

>  <gnina_score>  (371) 
4.125

$$$$
HPSYOIDWZCGVIM-UHFFFAOYSA-N-P76-P9-P76-601504
     RDKit          3D

 27 30  0  0  0  0  0  0  0  0999 V2000
   10.5434   14.6604   -0.2956 C   0  0  0  0  0  0  0  0  0  0  0  0
    9.8803   14.5946    0.9871 N   0  0  0  0  0  0  0  0  0  0  0  0
    8.8528   13.7367    1.1258 N   0  0  0  0  0  0  0  0  0  0  0  0
    8.3923   13.9842    2.3504 C   0  0  0  0  0  0  0  0  0  0  0  0
    9.1328   14.9910    2.9979 C   0  0  0  0  0  0  0  0  0  0  0  0
   10.1745   15.3037    2.1347 C   0  0  0  0  0  0  0  0  0  0  0  0
   11.4205   16.0567    2.3668 C   0  0  0  0  0  0  0  0  0  0  0  0
   12.6561   15.4311    2.1172 C   0  0  0  0  0  0  0  0  0  0  0  0
   13.8775   16.0300    2.4706 C   0  0  0  0  0  0  0  0  0  0  0  0
   13.9238   17.2941    3.0702 C   0  0  0  0  0  0  0  0  0  0  0  0
   15.2628   17.8769    3.5281 C   0  0  0  0  0  0  0  0  0  0  0  0
   15.9002   18.7831    2.5632 N   0  0  0  0  0  0  0  0  0  0  0  0
   17.3671   18.6674    2.4683 C   0  0  1  0  0  0  0  0  0  0  0  0
   17.9060   18.9937    3.7329 O   0  0  0  0  0  0  0  0  0  0  0  0
   17.8996   17.3148    1.9935 C   0  0  0  0  0  0  0  0  0  0  0  0
   17.1213   16.5931    1.0820 C   0  0  0  0  0  0  0  0  0  0  0  0
   17.2980   15.2276    0.9092 C   0  0  0  0  0  0  0  0  0  0  0  0
   18.3343   14.5913    1.5961 C   0  0  0  0  0  0  0  0  0  0  0  0
   18.7078   13.2599    1.8356 C   0  0  0  0  0  0  0  0  0  0  0  0
   17.6875   11.7725    1.3025 Br  0  0  0  0  0  0  0  0  0  0  0  0
   19.8439   13.1629    2.5149 N   0  0  0  0  0  0  0  0  0  0  0  0
   20.2752   14.4394    2.5717 N   0  0  0  0  0  0  0  0  0  0  0  0
   21.6919   14.6578    2.7474 C   0  0  0  0  0  0  0  0  0  0  0  0
   19.2901   15.3570    2.2647 C   0  0  0  0  0  0  0  0  0  0  0  0
   19.1065   16.7403    2.4718 C   0  0  0  0  0  0  0  0  0  0  0  0
   12.6960   17.9432    3.2840 C   0  0  0  0  0  0  0  0  0  0  0  0
   11.4614   17.3261    2.9527 C   0  0  0  0  0  0  0  0  0  0  0  0
  1  2  1  0
  2  3  1  0
  3  4  2  0
  4  5  1  0
  5  6  2  0
  6  7  1  0
  7  8  2  0
  8  9  1  0
  9 10  2  0
 10 11  1  0
 11 12  1  0
 12 13  1  0
 13 14  1  1
 13 15  1  0
 15 16  2  0
 16 17  1  0
 17 18  2  0
 18 19  1  0
 19 20  1  0
 19 21  2  0
 21 22  1  0
 22 23  1  0
 22 24  1  0
 24 25  2  0
 10 26  1  0
 26 27  2  0
  6  2  1  0
 27  7  1  0
 25 15  1  0
 24 18  1  0
M  END
>  <distance_score>  (372) 
1.73668

>  <smiles>  (372) 
Cn1nccc1-c1ccc(CNC(O)c2ccc3c(Br)nn(C)c3c2)cc1

>  <fragmenstein_error>  (372) 


>  <fragmenstein_runtime>  (372) 
2.819661

>  <gnina_score_min>  (372) 
4.452

>  <orig_smiles>  (372) 
Cn1nccc1-c1ccc(CNC(O)c2ccc3c(Br)nn(C)c3c2)cc1

>  <fragmenstein_mode>  (372) 
expansion

>  <rmsd(smina/fragmenstein)>  (372) 
4.285

>  <inspiration_score>  (372) 
None

>  <name>  (372) 
HPSYOIDWZCGVIM-UHFFFAOYSA-N-P76-P9-P76-601504

>  <ref_pdb>  (372) 
A0514b

>  <ref_mols>  (372) 
A0486a,A0717a

>  <subsites>  (372) 
None

>  <tags>  (372) 
openbind_a71ev2a_c1_elabs_filtered,fragmenstein_placed,a71ev2a_c1_elab_bulkdock_input,openbind_a71ev2a_c1_elab_chemspace_filtered_scored

>  <inchikey>  (372) 
HPSYOIDWZCGVIM-UHFFFAOYSA-N

>  <scratch_subdir>  (372) 
/opt/xchem-fragalysis-2/maxwin/BulkDock/SCRATCH/601504/HPSYOIDWZCGVIM-UHFFFAOYSA-N-P76-P9-P76-601504

>  <smina_score_min>  (372) 
-3.632

>  <energy_score>  (372) 
-14.349774

>  <Energy>  (372) 
30.990945

>  <fragmenstein_outcome>  (372) 
too moved

>  <alias>  (372) 
HPSYOIDWZCGVIM-UHFFFAOYSA-N-P76-P9-P76-601504

>  <HIPPO Pose ID>  (372) 
507583

>  <exports>  (372) 
['/opt/xchem-fragalysis-2/maxwin/openbind-hippo/a71ev2a/cycle_01/bulkdock/openbind_a71ev2a_c1_elab_chemspace.sdf', '/opt/xchem-fragalysis-2/maxwin/openbind-hippo/a71ev2a/cycle_01/syndirella/elabs/openbind_a71ev2a_c1_elab_chemspace_filtered.sdf']

>  <HIPPO Compound ID>  (372) 
289755

>  <gnina_score>  (372) 
4.513

$$$$
SDXXQLOXNUSHOW-UHFFFAOYSA-N-P76-P9-P76-601504
     RDKit          3D

 27 30  0  0  0  0  0  0  0  0999 V2000
    8.6351   12.4378    0.8262 C   0  0  0  0  0  0  0  0  0  0  0  0
    8.9125   13.6076    1.6233 N   0  0  0  0  0  0  0  0  0  0  0  0
    8.1826   14.0762    2.6681 C   0  0  0  0  0  0  0  0  0  0  0  0
    8.8589   15.1829    3.1296 C   0  0  0  0  0  0  0  0  0  0  0  0
   10.0218   15.2972    2.3152 C   0  0  0  0  0  0  0  0  0  0  0  0
   11.2138   16.1596    2.4886 C   0  0  0  0  0  0  0  0  0  0  0  0
   12.3751   15.8714    1.7497 C   0  0  0  0  0  0  0  0  0  0  0  0
   13.6173   16.4567    2.0523 C   0  0  0  0  0  0  0  0  0  0  0  0
   13.7589   17.3768    3.0973 C   0  0  0  0  0  0  0  0  0  0  0  0
   15.1486   17.8585    3.5314 C   0  0  0  0  0  0  0  0  0  0  0  0
   15.8170   18.7509    2.5710 N   0  0  0  0  0  0  0  0  0  0  0  0
   17.2847   18.6472    2.5659 C   0  0  2  0  0  0  0  0  0  0  0  0
   17.7552   19.6913    1.7476 O   0  0  0  0  0  0  0  0  0  0  0  0
   17.8665   17.3388    2.0311 C   0  0  0  0  0  0  0  0  0  0  0  0
   17.1396   16.6332    1.0693 C   0  0  0  0  0  0  0  0  0  0  0  0
   17.3213   15.2690    0.8909 C   0  0  0  0  0  0  0  0  0  0  0  0
   18.3388   14.6288    1.6015 C   0  0  0  0  0  0  0  0  0  0  0  0
   18.7139   13.2969    1.8395 C   0  0  0  0  0  0  0  0  0  0  0  0
   17.7111   11.8075    1.2801 Br  0  0  0  0  0  0  0  0  0  0  0  0
   19.8392   13.2011    2.5384 N   0  0  0  0  0  0  0  0  0  0  0  0
   20.2656   14.4799    2.5977 N   0  0  0  0  0  0  0  0  0  0  0  0
   21.6851   14.7034    2.7441 C   0  0  0  0  0  0  0  0  0  0  0  0
   19.2737   15.3942    2.3004 C   0  0  0  0  0  0  0  0  0  0  0  0
   19.0675   16.7722    2.5311 C   0  0  0  0  0  0  0  0  0  0  0  0
   12.5883   17.7281    3.7921 C   0  0  0  0  0  0  0  0  0  0  0  0
   11.3347   17.1313    3.4929 C   0  0  0  0  0  0  0  0  0  0  0  0
   10.0114   14.3359    1.3729 N   0  0  0  0  0  0  0  0  0  0  0  0
  1  2  1  0
  2  3  1  0
  3  4  2  0
  4  5  1  0
  5  6  1  0
  6  7  2  0
  7  8  1  0
  8  9  2  0
  9 10  1  0
 10 11  1  0
 11 12  1  0
 12 13  1  6
 12 14  1  0
 14 15  2  0
 15 16  1  0
 16 17  2  0
 17 18  1  0
 18 19  1  0
 18 20  2  0
 20 21  1  0
 21 22  1  0
 21 23  1  0
 23 24  2  0
  9 25  1  0
 25 26  2  0
  5 27  2  0
 27  2  1  0
 26  6  1  0
 24 14  1  0
 23 17  1  0
M  END
>  <distance_score>  (373) 
1.775674

>  <smiles>  (373) 
Cn1ccc(-c2ccc(CNC(O)c3ccc4c(Br)nn(C)c4c3)cc2)n1

>  <fragmenstein_error>  (373) 


>  <fragmenstein_runtime>  (373) 
2.217233

>  <gnina_score_min>  (373) 
4.19

>  <orig_smiles>  (373) 
Cn1ccc(-c2ccc(CNC(O)c3ccc4c(Br)nn(C)c4c3)cc2)n1

>  <fragmenstein_mode>  (373) 
expansion

>  <rmsd(smina/fragmenstein)>  (373) 
2.972

>  <inspiration_score>  (373) 
None

>  <name>  (373) 
SDXXQLOXNUSHOW-UHFFFAOYSA-N-P76-P9-P76-601504

>  <ref_pdb>  (373) 
A0514b

>  <ref_mols>  (373) 
A0486a,A0717a

>  <subsites>  (373) 
None

>  <tags>  (373) 
openbind_a71ev2a_c1_elabs_filtered,fragmenstein_placed,a71ev2a_c1_elab_bulkdock_input,openbind_a71ev2a_c1_elab_chemspace_filtered_scored

>  <inchikey>  (373) 
SDXXQLOXNUSHOW-UHFFFAOYSA-N

>  <scratch_subdir>  (373) 
/opt/xchem-fragalysis-2/maxwin/BulkDock/SCRATCH/601504/SDXXQLOXNUSHOW-UHFFFAOYSA-N-P76-P9-P76-601504

>  <smina_score_min>  (373) 
-4.163

>  <energy_score>  (373) 
-15.49574

>  <Energy>  (373) 
36.210905

>  <fragmenstein_outcome>  (373) 
too moved

>  <alias>  (373) 
SDXXQLOXNUSHOW-UHFFFAOYSA-N-P76-P9-P76-601504

>  <HIPPO Pose ID>  (373) 
507585

>  <exports>  (373) 
['/opt/xchem-fragalysis-2/maxwin/openbind-hippo/a71ev2a/cycle_01/bulkdock/openbind_a71ev2a_c1_elab_chemspace.sdf', '/opt/xchem-fragalysis-2/maxwin/openbind-hippo/a71ev2a/cycle_01/syndirella/elabs/openbind_a71ev2a_c1_elab_chemspace_filtered.sdf']

>  <HIPPO Compound ID>  (373) 
289756

>  <gnina_score>  (373) 
4.447

$$$$
MQTSULCDEQVALO-UHFFFAOYSA-N-P76-P9-P76-601504
     RDKit          3D

 28 31  0  0  0  0  0  0  0  0999 V2000
   16.5476   14.3725    2.9764 C   0  0  0  0  0  0  0  0  0  0  0  0
   17.5057   15.4420    2.5506 C   0  0  0  0  0  0  0  0  0  0  0  0
   17.0776   16.7461    2.1125 C   0  0  0  0  0  0  0  0  0  0  0  0
   15.5774   17.0908    1.9669 C   0  0  2  0  0  0  0  0  0  0  0  0
   15.4182   17.7236    0.7031 O   0  0  0  0  0  0  0  0  0  0  0  0
   15.1086   17.9548    3.0459 N   0  0  0  0  0  0  0  0  0  0  0  0
   13.8606   18.6797    2.7438 C   0  0  0  0  0  0  0  0  0  0  0  0
   12.6136   17.8341    2.6057 C   0  0  0  0  0  0  0  0  0  0  0  0
   12.2077   17.3695    1.3502 C   0  0  0  0  0  0  0  0  0  0  0  0
   11.0985   16.5246    1.2196 C   0  0  0  0  0  0  0  0  0  0  0  0
   10.3744   16.0973    2.3396 C   0  0  0  0  0  0  0  0  0  0  0  0
    9.4249   14.9718    2.2617 C   0  0  0  0  0  0  0  0  0  0  0  0
    8.3385   14.6562    3.0657 C   0  0  0  0  0  0  0  0  0  0  0  0
    7.8721   13.4090    2.6191 C   0  0  0  0  0  0  0  0  0  0  0  0
    8.5784   12.9523    1.5900 N   0  0  0  0  0  0  0  0  0  0  0  0
    9.5595   13.8606    1.4417 N   0  0  0  0  0  0  0  0  0  0  0  0
   10.6437   13.5063    0.5522 C   0  0  0  0  0  0  0  0  0  0  0  0
   10.6857   16.6940    3.5698 C   0  0  0  0  0  0  0  0  0  0  0  0
   11.8125   17.5216    3.7101 C   0  0  0  0  0  0  0  0  0  0  0  0
   18.0163   17.7763    1.7433 C   0  0  0  0  0  0  0  0  0  0  0  0
   19.4052   17.6102    1.7232 C   0  0  0  0  0  0  0  0  0  0  0  0
   19.7710   16.3285    2.1021 C   0  0  0  0  0  0  0  0  0  0  0  0
   21.0614   15.8708    2.1439 C   0  0  0  0  0  0  0  0  0  0  0  0
   22.3647   16.5007    1.8107 C   0  0  0  0  0  0  0  0  0  0  0  0
   20.9415   14.5865    2.6120 N   0  0  0  0  0  0  0  0  0  0  0  0
   22.0286   13.6932    2.9411 C   0  0  0  0  0  0  0  0  0  0  0  0
   19.6630   14.1812    2.8100 N   0  0  0  0  0  0  0  0  0  0  0  0
   18.9073   15.2545    2.5096 C   0  0  0  0  0  0  0  0  0  0  0  0
  1  2  1  0
  2  3  2  0
  3  4  1  0
  4  5  1  6
  4  6  1  0
  6  7  1  0
  7  8  1  0
  8  9  2  0
  9 10  1  0
 10 11  2  0
 11 12  1  0
 12 13  2  0
 13 14  1  0
 14 15  2  0
 15 16  1  0
 16 17  1  0
 11 18  1  0
 18 19  2  0
  3 20  1  0
 20 21  2  0
 21 22  1  0
 22 23  2  0
 23 24  1  0
 23 25  1  0
 25 26  1  0
 25 27  1  0
 27 28  2  0
 28  2  1  0
 19  8  1  0
 28 22  1  0
 16 12  1  0
M  END
>  <distance_score>  (374) 
1.685208

>  <smiles>  (374) 
Cc1c(C(O)NCc2ccc(-c3ccnn3C)cc2)ccc2c(C)n(C)nc12

>  <fragmenstein_error>  (374) 


>  <fragmenstein_runtime>  (374) 
2.547751

>  <gnina_score_min>  (374) 
4.211

>  <orig_smiles>  (374) 
Cc1c(C(O)NCc2ccc(-c3ccnn3C)cc2)ccc2c(C)n(C)nc12

>  <fragmenstein_mode>  (374) 
expansion

>  <rmsd(smina/fragmenstein)>  (374) 
2.601

>  <inspiration_score>  (374) 
None

>  <name>  (374) 
MQTSULCDEQVALO-UHFFFAOYSA-N-P76-P9-P76-601504

>  <ref_pdb>  (374) 
A0514b

>  <ref_mols>  (374) 
A0486a,A0717a

>  <subsites>  (374) 
None

>  <tags>  (374) 
openbind_a71ev2a_c1_elabs_filtered,fragmenstein_placed,a71ev2a_c1_elab_bulkdock_input,openbind_a71ev2a_c1_elab_chemspace_filtered_scored

>  <inchikey>  (374) 
MQTSULCDEQVALO-UHFFFAOYSA-N

>  <scratch_subdir>  (374) 
/opt/xchem-fragalysis-2/maxwin/BulkDock/SCRATCH/601504/MQTSULCDEQVALO-UHFFFAOYSA-N-P76-P9-P76-601504

>  <smina_score_min>  (374) 
-4.017

>  <energy_score>  (374) 
-30.52444

>  <Energy>  (374) 
18.370726

>  <fragmenstein_outcome>  (374) 
too moved

>  <alias>  (374) 
MQTSULCDEQVALO-UHFFFAOYSA-N-P76-P9-P76-601504

>  <HIPPO Pose ID>  (374) 
507591

>  <exports>  (374) 
['/opt/xchem-fragalysis-2/maxwin/openbind-hippo/a71ev2a/cycle_01/bulkdock/openbind_a71ev2a_c1_elab_chemspace.sdf', '/opt/xchem-fragalysis-2/maxwin/openbind-hippo/a71ev2a/cycle_01/syndirella/elabs/openbind_a71ev2a_c1_elab_chemspace_filtered.sdf']

>  <HIPPO Compound ID>  (374) 
289759

>  <gnina_score>  (374) 
4.486

$$$$
BSIRVHWYKABYMU-UHFFFAOYSA-N-P76-P9-P76-601504
     RDKit          3D

 28 31  0  0  0  0  0  0  0  0999 V2000
   17.9950   12.0343    1.5473 C   0  0  0  0  0  0  0  0  0  0  0  0
   18.7046   13.2820    1.9256 C   0  0  0  0  0  0  0  0  0  0  0  0
   19.9314   13.2487    2.4330 N   0  0  0  0  0  0  0  0  0  0  0  0
   20.3040   14.5474    2.4937 N   0  0  0  0  0  0  0  0  0  0  0  0
   21.7193   14.7772    2.6566 C   0  0  0  0  0  0  0  0  0  0  0  0
   19.2551   15.4363    2.3066 C   0  0  0  0  0  0  0  0  0  0  0  0
   19.0398   16.8429    2.4733 C   0  0  0  0  0  0  0  0  0  0  0  0
   20.1056   17.8176    2.8877 C   0  0  0  0  0  0  0  0  0  0  0  0
   17.6926   17.2966    2.2661 C   0  0  0  0  0  0  0  0  0  0  0  0
   17.0622   18.5843    2.8425 C   0  0  2  0  0  0  0  0  0  0  0  0
   17.7852   19.0054    3.9776 O   0  0  0  0  0  0  0  0  0  0  0  0
   15.6940   18.3804    3.3661 N   0  0  0  0  0  0  0  0  0  0  0  0
   14.6252   18.9063    2.5012 C   0  0  0  0  0  0  0  0  0  0  0  0
   13.3642   18.0403    2.4856 C   0  0  0  0  0  0  0  0  0  0  0  0
   12.4790   17.9625    3.5732 C   0  0  0  0  0  0  0  0  0  0  0  0
   11.3219   17.1430    3.5281 C   0  0  0  0  0  0  0  0  0  0  0  0
   11.0281   16.3577    2.4015 C   0  0  0  0  0  0  0  0  0  0  0  0
    9.9506   15.3456    2.3704 C   0  0  0  0  0  0  0  0  0  0  0  0
    8.8380   15.1665    3.2394 C   0  0  0  0  0  0  0  0  0  0  0  0
    8.2470   13.9834    2.8569 C   0  0  0  0  0  0  0  0  0  0  0  0
    8.9796   13.5269    1.8083 N   0  0  0  0  0  0  0  0  0  0  0  0
    8.7782   12.2984    1.0794 C   0  0  0  0  0  0  0  0  0  0  0  0
   10.0039   14.3329    1.4844 N   0  0  0  0  0  0  0  0  0  0  0  0
   11.9019   16.4691    1.3069 C   0  0  0  0  0  0  0  0  0  0  0  0
   13.0381   17.2961    1.3430 C   0  0  0  0  0  0  0  0  0  0  0  0
   16.8186   16.4937    1.5256 C   0  0  0  0  0  0  0  0  0  0  0  0
   17.0641   15.1539    1.3100 C   0  0  0  0  0  0  0  0  0  0  0  0
   18.2423   14.6070    1.8104 C   0  0  0  0  0  0  0  0  0  0  0  0
  1  2  1  0
  2  3  2  0
  3  4  1  0
  4  5  1  0
  4  6  1  0
  6  7  2  0
  7  8  1  0
  7  9  1  0
  9 10  1  0
 10 11  1  1
 10 12  1  0
 12 13  1  0
 13 14  1  0
 14 15  2  0
 15 16  1  0
 16 17  2  0
 17 18  1  0
 18 19  1  0
 19 20  2  0
 20 21  1  0
 21 22  1  0
 21 23  1  0
 17 24  1  0
 24 25  2  0
  9 26  2  0
 26 27  1  0
 27 28  2  0
 28  2  1  0
 28  6  1  0
 25 14  1  0
 23 18  2  0
M  END
>  <distance_score>  (375) 
1.74543

>  <smiles>  (375) 
Cc1nn(C)c2c(C)c(C(O)NCc3ccc(-c4ccn(C)n4)cc3)ccc12

>  <fragmenstein_error>  (375) 


>  <fragmenstein_runtime>  (375) 
2.574057

>  <gnina_score_min>  (375) 
4.1

>  <orig_smiles>  (375) 
Cc1nn(C)c2c(C)c(C(O)NCc3ccc(-c4ccn(C)n4)cc3)ccc12

>  <fragmenstein_mode>  (375) 
expansion

>  <rmsd(smina/fragmenstein)>  (375) 
2.869

>  <inspiration_score>  (375) 
None

>  <name>  (375) 
BSIRVHWYKABYMU-UHFFFAOYSA-N-P76-P9-P76-601504

>  <ref_pdb>  (375) 
A0514b

>  <ref_mols>  (375) 
A0486a,A0717a

>  <subsites>  (375) 
None

>  <tags>  (375) 
openbind_a71ev2a_c1_elabs_filtered,fragmenstein_placed,a71ev2a_c1_elab_bulkdock_input,openbind_a71ev2a_c1_elab_chemspace_filtered_scored

>  <inchikey>  (375) 
BSIRVHWYKABYMU-UHFFFAOYSA-N

>  <scratch_subdir>  (375) 
/opt/xchem-fragalysis-2/maxwin/BulkDock/SCRATCH/601504/BSIRVHWYKABYMU-UHFFFAOYSA-N-P76-P9-P76-601504

>  <smina_score_min>  (375) 
-5.174

>  <energy_score>  (375) 
-20.073306

>  <Energy>  (375) 
42.923188

>  <fragmenstein_outcome>  (375) 
too moved

>  <alias>  (375) 
BSIRVHWYKABYMU-UHFFFAOYSA-N-P76-P9-P76-601504

>  <HIPPO Pose ID>  (375) 
507595

>  <exports>  (375) 
['/opt/xchem-fragalysis-2/maxwin/openbind-hippo/a71ev2a/cycle_01/bulkdock/openbind_a71ev2a_c1_elab_chemspace.sdf', '/opt/xchem-fragalysis-2/maxwin/openbind-hippo/a71ev2a/cycle_01/syndirella/elabs/openbind_a71ev2a_c1_elab_chemspace_filtered.sdf']

>  <HIPPO Compound ID>  (375) 
289761

>  <gnina_score>  (375) 
4.47

$$$$
HVXLDXITFPGFJS-UHFFFAOYSA-N-P76-P9-P76-601504
     RDKit          3D

 28 31  0  0  0  0  0  0  0  0999 V2000
   18.0153   12.0919    1.4485 C   0  0  0  0  0  0  0  0  0  0  0  0
   18.7436   13.3171    1.8613 C   0  0  0  0  0  0  0  0  0  0  0  0
   19.8920   13.2382    2.5250 N   0  0  0  0  0  0  0  0  0  0  0  0
   20.3410   14.5144    2.5542 N   0  0  0  0  0  0  0  0  0  0  0  0
   21.7660   14.6639    2.7264 C   0  0  0  0  0  0  0  0  0  0  0  0
   19.3549   15.4479    2.2707 C   0  0  0  0  0  0  0  0  0  0  0  0
   19.1663   16.8560    2.4394 C   0  0  0  0  0  0  0  0  0  0  0  0
   20.1807   17.7987    3.0227 C   0  0  0  0  0  0  0  0  0  0  0  0
   17.8722   17.3480    2.0662 C   0  0  0  0  0  0  0  0  0  0  0  0
   17.1371   18.5649    2.6730 C   0  0  2  0  0  0  0  0  0  0  0  0
   17.8380   19.0967    3.7693 O   0  0  0  0  0  0  0  0  0  0  0  0
   15.8225   18.1854    3.2373 N   0  0  0  0  0  0  0  0  0  0  0  0
   14.6732   18.6202    2.4295 C   0  0  0  0  0  0  0  0  0  0  0  0
   13.4477   17.7058    2.5086 C   0  0  0  0  0  0  0  0  0  0  0  0
   13.5008   16.3879    2.0397 C   0  0  0  0  0  0  0  0  0  0  0  0
   12.3437   15.5963    1.9542 C   0  0  0  0  0  0  0  0  0  0  0  0
   11.0800   16.0826    2.3325 C   0  0  0  0  0  0  0  0  0  0  0  0
    9.9059   15.2041    2.2178 C   0  0  0  0  0  0  0  0  0  0  0  0
    8.9525   14.8264    3.1515 C   0  0  0  0  0  0  0  0  0  0  0  0
    8.2530   13.7545    2.5652 C   0  0  0  0  0  0  0  0  0  0  0  0
    8.6467   13.5267    1.3136 N   0  0  0  0  0  0  0  0  0  0  0  0
    9.5874   14.4631    1.0964 N   0  0  0  0  0  0  0  0  0  0  0  0
   10.1393   14.5754   -0.2350 C   0  0  0  0  0  0  0  0  0  0  0  0
   11.0268   17.3773    2.8531 C   0  0  0  0  0  0  0  0  0  0  0  0
   12.1920   18.1799    2.9307 C   0  0  0  0  0  0  0  0  0  0  0  0
   17.1075   16.6157    1.1531 C   0  0  0  0  0  0  0  0  0  0  0  0
   17.3250   15.2659    0.9617 C   0  0  0  0  0  0  0  0  0  0  0  0
   18.3804   14.6617    1.6426 C   0  0  0  0  0  0  0  0  0  0  0  0
  1  2  1  0
  2  3  2  0
  3  4  1  0
  4  5  1  0
  4  6  1  0
  6  7  2  0
  7  8  1  0
  7  9  1  0
  9 10  1  0
 10 11  1  1
 10 12  1  0
 12 13  1  0
 13 14  1  0
 14 15  2  0
 15 16  1  0
 16 17  2  0
 17 18  1  0
 18 19  2  0
 19 20  1  0
 20 21  2  0
 21 22  1  0
 22 23  1  0
 17 24  1  0
 24 25  2  0
  9 26  2  0
 26 27  1  0
 27 28  2  0
 28  2  1  0
 28  6  1  0
 25 14  1  0
 22 18  1  0
M  END
>  <distance_score>  (376) 
1.674286

>  <smiles>  (376) 
Cc1nn(C)c2c(C)c(C(O)NCc3ccc(-c4ccnn4C)cc3)ccc12

>  <fragmenstein_error>  (376) 


>  <fragmenstein_runtime>  (376) 
2.523407

>  <gnina_score_min>  (376) 
4.272

>  <orig_smiles>  (376) 
Cc1nn(C)c2c(C)c(C(O)NCc3ccc(-c4ccnn4C)cc3)ccc12

>  <fragmenstein_mode>  (376) 
expansion

>  <rmsd(smina/fragmenstein)>  (376) 
2.39

>  <inspiration_score>  (376) 
None

>  <name>  (376) 
HVXLDXITFPGFJS-UHFFFAOYSA-N-P76-P9-P76-601504

>  <ref_pdb>  (376) 
A0514b

>  <ref_mols>  (376) 
A0486a,A0717a

>  <subsites>  (376) 
None

>  <tags>  (376) 
openbind_a71ev2a_c1_elabs_filtered,fragmenstein_placed,a71ev2a_c1_elab_bulkdock_input,openbind_a71ev2a_c1_elab_chemspace_filtered_scored

>  <inchikey>  (376) 
HVXLDXITFPGFJS-UHFFFAOYSA-N

>  <scratch_subdir>  (376) 
/opt/xchem-fragalysis-2/maxwin/BulkDock/SCRATCH/601504/HVXLDXITFPGFJS-UHFFFAOYSA-N-P76-P9-P76-601504

>  <smina_score_min>  (376) 
-4.411

>  <energy_score>  (376) 
-17.503164

>  <Energy>  (376) 
47.266482

>  <fragmenstein_outcome>  (376) 
too moved

>  <alias>  (376) 
HVXLDXITFPGFJS-UHFFFAOYSA-N-P76-P9-P76-601504

>  <HIPPO Pose ID>  (376) 
507597

>  <exports>  (376) 
['/opt/xchem-fragalysis-2/maxwin/openbind-hippo/a71ev2a/cycle_01/bulkdock/openbind_a71ev2a_c1_elab_chemspace.sdf', '/opt/xchem-fragalysis-2/maxwin/openbind-hippo/a71ev2a/cycle_01/syndirella/elabs/openbind_a71ev2a_c1_elab_chemspace_filtered.sdf']

>  <HIPPO Compound ID>  (376) 
289762

>  <gnina_score>  (376) 
4.46

$$$$
ROFKHKMBGCUQTH-UHFFFAOYSA-N-P76-P9-P76-601504
     RDKit          3D

 28 31  0  0  0  0  0  0  0  0999 V2000
    8.4843   11.9402    0.9613 C   0  0  0  0  0  0  0  0  0  0  0  0
    8.6001   13.1256    1.7747 N   0  0  0  0  0  0  0  0  0  0  0  0
    7.9104   13.4065    2.9103 C   0  0  0  0  0  0  0  0  0  0  0  0
    8.4026   14.6108    3.3581 C   0  0  0  0  0  0  0  0  0  0  0  0
    9.4131   14.9850    2.4296 C   0  0  0  0  0  0  0  0  0  0  0  0
   10.4009   16.0764    2.5057 C   0  0  0  0  0  0  0  0  0  0  0  0
   11.3530   16.2078    1.4811 C   0  0  0  0  0  0  0  0  0  0  0  0
   12.4635   17.0467    1.6190 C   0  0  0  0  0  0  0  0  0  0  0  0
   12.6686   17.7832    2.7931 C   0  0  0  0  0  0  0  0  0  0  0  0
   13.9535   18.5796    2.9545 C   0  0  0  0  0  0  0  0  0  0  0  0
   15.0960   17.6734    2.9303 N   0  0  0  0  0  0  0  0  0  0  0  0
   16.3912   18.2834    2.6281 C   0  0  0  0  0  0  0  0  0  0  0  0
   17.4230   17.2001    2.3052 C   0  0  0  0  0  0  0  0  0  0  0  0
   16.9886   16.0875    1.4969 C   0  0  0  0  0  0  0  0  0  0  0  0
   17.7651   14.9582    1.1829 C   0  0  0  0  0  0  0  0  0  0  0  0
   19.0329   15.0832    1.7143 C   0  0  0  0  0  0  0  0  0  0  0  0
   20.0484   14.1852    1.5516 C   0  0  0  0  0  0  0  0  0  0  0  0
   21.1448   14.7791    2.1180 N   0  0  0  0  0  0  0  0  0  0  0  0
   22.5602   14.3877    1.9777 C   0  0  0  0  0  0  0  0  0  0  0  0
   22.7571   13.2660    0.9454 C   0  0  0  0  0  0  0  0  0  0  0  0
   23.3868   15.5959    1.4746 C   0  0  0  0  0  0  0  0  0  0  0  0
   23.1366   13.9144    3.3112 C   0  0  0  0  0  0  0  0  0  0  0  0
   20.8374   15.9352    2.7538 N   0  0  0  0  0  0  0  0  0  0  0  0
   19.5516   16.1768    2.4672 C   0  0  0  0  0  0  0  0  0  0  0  0
   18.7527   17.2895    2.7887 C   0  0  0  0  0  0  0  0  0  0  0  0
   11.6838   17.7197    3.7897 C   0  0  0  0  0  0  0  0  0  0  0  0
   10.5559   16.8845    3.6427 C   0  0  0  0  0  0  0  0  0  0  0  0
    9.4818   14.0782    1.4372 N   0  0  0  0  0  0  0  0  0  0  0  0
  1  2  1  0
  2  3  1  0
  3  4  2  0
  4  5  1  0
  5  6  1  0
  6  7  2  0
  7  8  1  0
  8  9  2  0
  9 10  1  0
 10 11  1  0
 11 12  1  0
 12 13  1  0
 13 14  1  0
 14 15  2  0
 15 16  1  0
 16 17  2  0
 17 18  1  0
 18 19  1  0
 19 20  1  0
 19 21  1  0
 19 22  1  0
 18 23  1  0
 23 24  2  0
 24 25  1  0
  9 26  1  0
 26 27  2  0
  5 28  2  0
 28  2  1  0
 27  6  1  0
 25 13  2  0
 24 16  1  0
M  END
>  <distance_score>  (377) 
1.715789

>  <smiles>  (377) 
Cn1ccc(-c2ccc(CNCc3ccc4cn(C(C)(C)C)nc4c3)cc2)n1

>  <fragmenstein_error>  (377) 


>  <fragmenstein_runtime>  (377) 
4.255449

>  <gnina_score_min>  (377) 
4.811

>  <orig_smiles>  (377) 
Cn1ccc(-c2ccc(CNCc3ccc4cn(C(C)(C)C)nc4c3)cc2)n1

>  <fragmenstein_mode>  (377) 
expansion

>  <rmsd(smina/fragmenstein)>  (377) 
1.127

>  <inspiration_score>  (377) 
None

>  <name>  (377) 
ROFKHKMBGCUQTH-UHFFFAOYSA-N-P76-P9-P76-601504

>  <ref_pdb>  (377) 
A0514b

>  <ref_mols>  (377) 
A0486a,A0717a

>  <subsites>  (377) 
None

>  <tags>  (377) 
openbind_a71ev2a_c1_elabs_filtered,fragmenstein_placed,a71ev2a_c1_elab_bulkdock_input,openbind_a71ev2a_c1_elab_chemspace_filtered_scored

>  <inchikey>  (377) 
ROFKHKMBGCUQTH-UHFFFAOYSA-N

>  <scratch_subdir>  (377) 
/opt/xchem-fragalysis-2/maxwin/BulkDock/SCRATCH/601504/ROFKHKMBGCUQTH-UHFFFAOYSA-N-P76-P9-P76-601504

>  <smina_score_min>  (377) 
-3.258

>  <energy_score>  (377) 
-42.821159

>  <Energy>  (377) 
70.774492

>  <fragmenstein_outcome>  (377) 
too moved

>  <alias>  (377) 
ROFKHKMBGCUQTH-UHFFFAOYSA-N-P76-P9-P76-601504

>  <HIPPO Pose ID>  (377) 
507599

>  <exports>  (377) 
['/opt/xchem-fragalysis-2/maxwin/openbind-hippo/a71ev2a/cycle_01/bulkdock/openbind_a71ev2a_c1_elab_chemspace.sdf', '/opt/xchem-fragalysis-2/maxwin/openbind-hippo/a71ev2a/cycle_01/syndirella/elabs/openbind_a71ev2a_c1_elab_chemspace_filtered.sdf']

>  <HIPPO Compound ID>  (377) 
289763

>  <gnina_score>  (377) 
4.459

$$$$
ONSHOKSXCKRHGR-UHFFFAOYSA-N-P76-P9-P76-601504
     RDKit          3D

 28 31  0  0  0  0  0  0  0  0999 V2000
   10.7391   13.8176    0.5590 C   0  0  0  0  0  0  0  0  0  0  0  0
    9.6654   14.0976    1.4870 N   0  0  0  0  0  0  0  0  0  0  0  0
    8.7305   13.1422    1.6336 N   0  0  0  0  0  0  0  0  0  0  0  0
    7.9910   13.5650    2.6532 C   0  0  0  0  0  0  0  0  0  0  0  0
    8.4166   14.8174    3.1275 C   0  0  0  0  0  0  0  0  0  0  0  0
    9.5071   15.1764    2.3469 C   0  0  0  0  0  0  0  0  0  0  0  0
   10.4359   16.3187    2.4669 C   0  0  0  0  0  0  0  0  0  0  0  0
   11.1431   16.8073    1.3613 C   0  0  0  0  0  0  0  0  0  0  0  0
   12.2574   17.6417    1.5221 C   0  0  0  0  0  0  0  0  0  0  0  0
   12.6752   18.0498    2.7952 C   0  0  0  0  0  0  0  0  0  0  0  0
   14.0030   18.7709    2.9544 C   0  0  0  0  0  0  0  0  0  0  0  0
   15.0876   17.8003    2.8400 N   0  0  0  0  0  0  0  0  0  0  0  0
   16.4166   18.3711    2.6010 C   0  0  0  0  0  0  0  0  0  0  0  0
   17.4260   17.2649    2.2822 C   0  0  0  0  0  0  0  0  0  0  0  0
   16.9856   16.1728    1.4500 C   0  0  0  0  0  0  0  0  0  0  0  0
   17.7479   15.0338    1.1330 C   0  0  0  0  0  0  0  0  0  0  0  0
   19.0097   15.1270    1.6865 C   0  0  0  0  0  0  0  0  0  0  0  0
   20.0147   14.2172    1.5213 C   0  0  0  0  0  0  0  0  0  0  0  0
   21.1128   14.7860    2.1117 N   0  0  0  0  0  0  0  0  0  0  0  0
   22.5258   14.3820    1.9775 C   0  0  0  0  0  0  0  0  0  0  0  0
   22.7192   13.2704    0.9337 C   0  0  0  0  0  0  0  0  0  0  0  0
   23.3673   15.5878    1.4937 C   0  0  0  0  0  0  0  0  0  0  0  0
   23.0879   13.8885    3.3098 C   0  0  0  0  0  0  0  0  0  0  0  0
   20.8115   15.9332    2.7659 N   0  0  0  0  0  0  0  0  0  0  0  0
   19.5344   16.1994    2.4650 C   0  0  0  0  0  0  0  0  0  0  0  0
   18.7489   17.3203    2.7907 C   0  0  0  0  0  0  0  0  0  0  0  0
   11.8787   17.6958    3.8905 C   0  0  0  0  0  0  0  0  0  0  0  0
   10.7581   16.8606    3.7217 C   0  0  0  0  0  0  0  0  0  0  0  0
  1  2  1  0
  2  3  1  0
  3  4  2  0
  4  5  1  0
  5  6  2  0
  6  7  1  0
  7  8  2  0
  8  9  1  0
  9 10  2  0
 10 11  1  0
 11 12  1  0
 12 13  1  0
 13 14  1  0
 14 15  1  0
 15 16  2  0
 16 17  1  0
 17 18  2  0
 18 19  1  0
 19 20  1  0
 20 21  1  0
 20 22  1  0
 20 23  1  0
 19 24  1  0
 24 25  2  0
 25 26  1  0
 10 27  1  0
 27 28  2  0
  6  2  1  0
 28  7  1  0
 26 14  2  0
 25 17  1  0
M  END
>  <distance_score>  (378) 
1.835606

>  <smiles>  (378) 
Cn1nccc1-c1ccc(CNCc2ccc3cn(C(C)(C)C)nc3c2)cc1

>  <fragmenstein_error>  (378) 


>  <fragmenstein_runtime>  (378) 
5.004676

>  <gnina_score_min>  (378) 
4.278

>  <orig_smiles>  (378) 
Cn1nccc1-c1ccc(CNCc2ccc3cn(C(C)(C)C)nc3c2)cc1

>  <fragmenstein_mode>  (378) 
expansion

>  <rmsd(smina/fragmenstein)>  (378) 
2.773

>  <inspiration_score>  (378) 
None

>  <name>  (378) 
ONSHOKSXCKRHGR-UHFFFAOYSA-N-P76-P9-P76-601504

>  <ref_pdb>  (378) 
A0514b

>  <ref_mols>  (378) 
A0486a,A0717a

>  <subsites>  (378) 
None

>  <tags>  (378) 
openbind_a71ev2a_c1_elabs_filtered,fragmenstein_placed,a71ev2a_c1_elab_bulkdock_input,openbind_a71ev2a_c1_elab_chemspace_filtered_scored

>  <inchikey>  (378) 
ONSHOKSXCKRHGR-UHFFFAOYSA-N

>  <scratch_subdir>  (378) 
/opt/xchem-fragalysis-2/maxwin/BulkDock/SCRATCH/601504/ONSHOKSXCKRHGR-UHFFFAOYSA-N-P76-P9-P76-601504

>  <smina_score_min>  (378) 
-4.15

>  <energy_score>  (378) 
-31.401177

>  <Energy>  (378) 
69.539111

>  <fragmenstein_outcome>  (378) 
too moved

>  <alias>  (378) 
ONSHOKSXCKRHGR-UHFFFAOYSA-N-P76-P9-P76-601504

>  <HIPPO Pose ID>  (378) 
507601

>  <exports>  (378) 
['/opt/xchem-fragalysis-2/maxwin/openbind-hippo/a71ev2a/cycle_01/bulkdock/openbind_a71ev2a_c1_elab_chemspace.sdf', '/opt/xchem-fragalysis-2/maxwin/openbind-hippo/a71ev2a/cycle_01/syndirella/elabs/openbind_a71ev2a_c1_elab_chemspace_filtered.sdf']

>  <HIPPO Compound ID>  (378) 
289764

>  <gnina_score>  (378) 
4.425

$$$$
JYOSNIZMEZSZEB-UHFFFAOYSA-N-P76-P9-P76-601504
     RDKit          3D

 28 31  0  0  0  0  0  0  0  0999 V2000
    9.5651   14.5229   -0.4089 C   0  0  0  0  0  0  0  0  0  0  0  0
    9.1109   14.2713    0.9397 N   0  0  0  0  0  0  0  0  0  0  0  0
    8.1663   13.3319    1.1274 N   0  0  0  0  0  0  0  0  0  0  0  0
    7.9050   13.3989    2.4321 C   0  0  0  0  0  0  0  0  0  0  0  0
    8.6789   14.3786    3.0775 C   0  0  0  0  0  0  0  0  0  0  0  0
    9.5339   14.8717    2.1047 C   0  0  0  0  0  0  0  0  0  0  0  0
   10.7446   15.6847    2.2340 C   0  0  0  0  0  0  0  0  0  0  0  0
   10.7769   16.8933    2.9336 C   0  0  0  0  0  0  0  0  0  0  0  0
   12.0009   17.5505    3.1729 C   0  0  0  0  0  0  0  0  0  0  0  0
   13.2179   17.0002    2.7383 C   0  0  0  0  0  0  0  0  0  0  0  0
   14.5593   17.6378    3.0627 C   0  0  0  0  0  0  0  0  0  0  0  0
   15.0923   18.3987    1.9323 N   0  0  0  0  0  0  0  0  0  0  0  0
   16.5317   18.6362    1.9907 C   0  0  1  0  0  0  0  0  0  0  0  0
   16.7967   19.3773    3.1623 O   0  0  0  0  0  0  0  0  0  0  0  0
   17.4511   17.4117    1.8945 C   0  0  0  0  0  0  0  0  0  0  0  0
   17.0434   16.2727    1.1105 C   0  0  0  0  0  0  0  0  0  0  0  0
   17.7615   15.0640    0.9869 C   0  0  0  0  0  0  0  0  0  0  0  0
   18.9618   15.1358    1.6668 C   0  0  0  0  0  0  0  0  0  0  0  0
   19.9123   14.1555    1.7160 C   0  0  0  0  0  0  0  0  0  0  0  0
   20.9401   14.6988    2.4407 N   0  0  0  0  0  0  0  0  0  0  0  0
   22.2209   14.0693    2.7466 C   0  0  0  0  0  0  0  0  0  0  0  0
   22.6722   13.3479    1.6848 F   0  0  0  0  0  0  0  0  0  0  0  0
   22.0975   13.2113    3.7853 F   0  0  0  0  0  0  0  0  0  0  0  0
   20.6875   15.9628    2.8551 N   0  0  0  0  0  0  0  0  0  0  0  0
   19.4639   16.2516    2.4008 C   0  0  0  0  0  0  0  0  0  0  0  0
   18.7186   17.4314    2.5394 C   0  0  0  0  0  0  0  0  0  0  0  0
   13.1784   15.8029    2.0152 C   0  0  0  0  0  0  0  0  0  0  0  0
   11.9623   15.1609    1.7639 C   0  0  0  0  0  0  0  0  0  0  0  0
  1  2  1  0
  2  3  1  0
  3  4  2  0
  4  5  1  0
  5  6  2  0
  6  7  1  0
  7  8  2  0
  8  9  1  0
  9 10  2  0
 10 11  1  0
 11 12  1  0
 12 13  1  0
 13 14  1  1
 13 15  1  0
 15 16  1  0
 16 17  2  0
 17 18  1  0
 18 19  2  0
 19 20  1  0
 20 21  1  0
 21 22  1  0
 21 23  1  0
 20 24  1  0
 24 25  2  0
 25 26  1  0
 10 27  1  0
 27 28  2  0
  6  2  1  0
 28  7  1  0
 26 15  2  0
 25 18  1  0
M  END
>  <distance_score>  (379) 
1.78201

>  <smiles>  (379) 
Cn1nccc1-c1ccc(CNC(O)c2ccc3cn(C(F)F)nc3c2)cc1

>  <fragmenstein_error>  (379) 


>  <fragmenstein_runtime>  (379) 
2.165071

>  <gnina_score_min>  (379) 
4.693

>  <orig_smiles>  (379) 
Cn1nccc1-c1ccc(CNC(O)c2ccc3cn(C(F)F)nc3c2)cc1

>  <fragmenstein_mode>  (379) 
expansion

>  <rmsd(smina/fragmenstein)>  (379) 
2.511

>  <inspiration_score>  (379) 
None

>  <name>  (379) 
JYOSNIZMEZSZEB-UHFFFAOYSA-N-P76-P9-P76-601504

>  <ref_pdb>  (379) 
A0514b

>  <ref_mols>  (379) 
A0486a,A0717a

>  <subsites>  (379) 
None

>  <tags>  (379) 
openbind_a71ev2a_c1_elabs_filtered,fragmenstein_placed,a71ev2a_c1_elab_bulkdock_input,openbind_a71ev2a_c1_elab_chemspace_filtered_scored

>  <inchikey>  (379) 
JYOSNIZMEZSZEB-UHFFFAOYSA-N

>  <scratch_subdir>  (379) 
/opt/xchem-fragalysis-2/maxwin/BulkDock/SCRATCH/601504/JYOSNIZMEZSZEB-UHFFFAOYSA-N-P76-P9-P76-601504

>  <smina_score_min>  (379) 
-3.516

>  <energy_score>  (379) 
-46.919375

>  <Energy>  (379) 
56.114579

>  <fragmenstein_outcome>  (379) 
too moved

>  <alias>  (379) 
JYOSNIZMEZSZEB-UHFFFAOYSA-N-P76-P9-P76-601504

>  <HIPPO Pose ID>  (379) 
507605

>  <exports>  (379) 
['/opt/xchem-fragalysis-2/maxwin/openbind-hippo/a71ev2a/cycle_01/bulkdock/openbind_a71ev2a_c1_elab_chemspace.sdf', '/opt/xchem-fragalysis-2/maxwin/openbind-hippo/a71ev2a/cycle_01/syndirella/elabs/openbind_a71ev2a_c1_elab_chemspace_filtered.sdf']

>  <HIPPO Compound ID>  (379) 
289766

>  <gnina_score>  (379) 
4.201

$$$$
XLDXDMPLOLSHOF-UHFFFAOYSA-N-P76-P9-P76-601504
     RDKit          3D

 28 31  0  0  0  0  0  0  0  0999 V2000
   22.5817   14.0616    1.6483 C   0  0  0  0  0  0  0  0  0  0  0  0
   21.7177   14.5741    2.7923 C   0  0  0  0  0  0  0  0  0  0  0  0
   20.2993   14.3811    2.5539 N   0  0  0  0  0  0  0  0  0  0  0  0
   19.8587   13.1079    2.4626 N   0  0  0  0  0  0  0  0  0  0  0  0
   18.7250   13.2214    1.7834 C   0  0  0  0  0  0  0  0  0  0  0  0
   18.3413   14.5603    1.6235 C   0  0  0  0  0  0  0  0  0  0  0  0
   17.2610   15.1883    1.0056 C   0  0  0  0  0  0  0  0  0  0  0  0
   17.0608   16.5349    1.2519 C   0  0  0  0  0  0  0  0  0  0  0  0
   17.8774   17.2444    2.1476 C   0  0  0  0  0  0  0  0  0  0  0  0
   17.2320   18.5103    2.7428 C   0  0  2  0  0  0  0  0  0  0  0  0
   15.9230   18.0935    3.2734 N   0  0  0  0  0  0  0  0  0  0  0  0
   14.7986   19.0128    3.2649 C   0  0  0  0  0  0  0  0  0  0  0  0
   13.4895   18.2462    3.0540 C   0  0  0  0  0  0  0  0  0  0  0  0
   12.6255   17.9032    4.1020 C   0  0  0  0  0  0  0  0  0  0  0  0
   11.4742   17.1111    3.8720 C   0  0  0  0  0  0  0  0  0  0  0  0
   11.1623   16.6056    2.5963 C   0  0  0  0  0  0  0  0  0  0  0  0
   10.1101   15.5752    2.4005 C   0  0  0  0  0  0  0  0  0  0  0  0
    8.9372   15.3369    3.1077 C   0  0  0  0  0  0  0  0  0  0  0  0
    8.3906   14.1530    2.5815 C   0  0  0  0  0  0  0  0  0  0  0  0
    9.1333   13.6597    1.5970 N   0  0  0  0  0  0  0  0  0  0  0  0
   10.1815   14.5017    1.5202 N   0  0  0  0  0  0  0  0  0  0  0  0
   11.2663   14.1147    0.6444 C   0  0  0  0  0  0  0  0  0  0  0  0
   11.9740   17.0474    1.5415 C   0  0  0  0  0  0  0  0  0  0  0  0
   13.1219   17.8338    1.7654 C   0  0  0  0  0  0  0  0  0  0  0  0
   17.0902   19.4862    1.7176 O   0  0  0  0  0  0  0  0  0  0  0  0
   18.2740   20.2441    1.5120 C   0  0  0  0  0  0  0  0  0  0  0  0
   19.1114   16.6869    2.5682 C   0  0  0  0  0  0  0  0  0  0  0  0
   19.3071   15.3109    2.2987 C   0  0  0  0  0  0  0  0  0  0  0  0
  1  2  1  0
  2  3  1  0
  3  4  1  0
  4  5  2  0
  5  6  1  0
  6  7  2  0
  7  8  1  0
  8  9  2  0
  9 10  1  0
 10 11  1  6
 11 12  1  0
 12 13  1  0
 13 14  2  0
 14 15  1  0
 15 16  2  0
 16 17  1  0
 17 18  2  0
 18 19  1  0
 19 20  2  0
 20 21  1  0
 21 22  1  0
 16 23  1  0
 23 24  2  0
 10 25  1  0
 25 26  1  0
  9 27  1  0
 27 28  2  0
 28  3  1  0
 28  6  1  0
 24 13  1  0
 21 17  1  0
M  END
>  <distance_score>  (380) 
1.719234

>  <smiles>  (380) 
CCn1ncc2ccc(C(NCc3ccc(-c4ccnn4C)cc3)OC)cc21

>  <fragmenstein_error>  (380) 


>  <fragmenstein_runtime>  (380) 
2.652786

>  <gnina_score_min>  (380) 
4.285

>  <orig_smiles>  (380) 
CCn1ncc2ccc(C(NCc3ccc(-c4ccnn4C)cc3)OC)cc21

>  <fragmenstein_mode>  (380) 
expansion

>  <rmsd(smina/fragmenstein)>  (380) 
2.756

>  <inspiration_score>  (380) 
None

>  <name>  (380) 
XLDXDMPLOLSHOF-UHFFFAOYSA-N-P76-P9-P76-601504

>  <ref_pdb>  (380) 
A0514b

>  <ref_mols>  (380) 
A0486a,A0717a

>  <subsites>  (380) 
None

>  <tags>  (380) 
openbind_a71ev2a_c1_elabs_filtered,fragmenstein_placed,a71ev2a_c1_elab_bulkdock_input,openbind_a71ev2a_c1_elab_chemspace_filtered_scored

>  <inchikey>  (380) 
XLDXDMPLOLSHOF-UHFFFAOYSA-N

>  <scratch_subdir>  (380) 
/opt/xchem-fragalysis-2/maxwin/BulkDock/SCRATCH/601504/XLDXDMPLOLSHOF-UHFFFAOYSA-N-P76-P9-P76-601504

>  <smina_score_min>  (380) 
-3.87

>  <energy_score>  (380) 
-24.921233

>  <Energy>  (380) 
54.699342

>  <fragmenstein_outcome>  (380) 
too moved

>  <alias>  (380) 
XLDXDMPLOLSHOF-UHFFFAOYSA-N-P76-P9-P76-601504

>  <HIPPO Pose ID>  (380) 
507609

>  <exports>  (380) 
['/opt/xchem-fragalysis-2/maxwin/openbind-hippo/a71ev2a/cycle_01/bulkdock/openbind_a71ev2a_c1_elab_chemspace.sdf', '/opt/xchem-fragalysis-2/maxwin/openbind-hippo/a71ev2a/cycle_01/syndirella/elabs/openbind_a71ev2a_c1_elab_chemspace_filtered.sdf']

>  <HIPPO Compound ID>  (380) 
289768

>  <gnina_score>  (380) 
4.441

$$$$
RGKXBNXITOBCMI-UHFFFAOYSA-N-P76-P9-P76-601504
     RDKit          3D

 29 32  0  0  0  0  0  0  0  0999 V2000
    8.0390   11.5112    1.0857 C   0  0  0  0  0  0  0  0  0  0  0  0
    8.2951   12.7525    1.7746 N   0  0  0  0  0  0  0  0  0  0  0  0
    7.6873   13.2006    2.9045 C   0  0  0  0  0  0  0  0  0  0  0  0
    8.2992   14.3935    3.2107 C   0  0  0  0  0  0  0  0  0  0  0  0
    9.2931   14.5802    2.2121 C   0  0  0  0  0  0  0  0  0  0  0  0
   10.3769   15.5682    2.1495 C   0  0  0  0  0  0  0  0  0  0  0  0
   10.4927   16.6262    3.0574 C   0  0  0  0  0  0  0  0  0  0  0  0
   11.6768   17.3801    3.1201 C   0  0  0  0  0  0  0  0  0  0  0  0
   12.7595   17.1013    2.2674 C   0  0  0  0  0  0  0  0  0  0  0  0
   14.0909   17.8060    2.4258 C   0  0  0  0  0  0  0  0  0  0  0  0
   14.8473   17.3225    3.5912 N   0  0  0  0  0  0  0  0  0  0  0  0
   15.5486   16.0743    3.3461 C   0  0  2  0  0  0  0  0  0  0  0  0
   15.5092   15.4091    4.6016 O   0  0  0  0  0  0  0  0  0  0  0  0
   17.0193   16.1941    2.9214 C   0  0  0  0  0  0  0  0  0  0  0  0
   17.6005   17.4503    2.5410 C   0  0  0  0  0  0  0  0  0  0  0  0
   18.9482   17.6139    2.1765 C   0  0  0  0  0  0  0  0  0  0  0  0
   19.6388   16.4136    2.2392 C   0  0  0  0  0  0  0  0  0  0  0  0
   20.9720   16.2699    2.0010 C   0  0  0  0  0  0  0  0  0  0  0  0
   21.2333   14.9386    2.1933 N   0  0  0  0  0  0  0  0  0  0  0  0
   22.5239   14.2522    2.0003 C   0  0  0  0  0  0  0  0  0  0  0  0
   22.3637   13.1771    0.9203 C   0  0  0  0  0  0  0  0  0  0  0  0
   23.6449   15.2042    1.5132 C   0  0  0  0  0  0  0  0  0  0  0  0
   23.0048   13.6295    3.3109 C   0  0  0  0  0  0  0  0  0  0  0  0
   20.1257   14.2235    2.5433 N   0  0  0  0  0  0  0  0  0  0  0  0
   19.1315   15.1242    2.5866 C   0  0  0  0  0  0  0  0  0  0  0  0
   17.7846   14.9829    2.9269 C   0  0  0  0  0  0  0  0  0  0  0  0
   12.6095   16.1041    1.3028 C   0  0  0  0  0  0  0  0  0  0  0  0
   11.4357   15.3517    1.2475 C   0  0  0  0  0  0  0  0  0  0  0  0
    9.2314   13.5885    1.3078 N   0  0  0  0  0  0  0  0  0  0  0  0
  1  2  1  0
  2  3  1  0
  3  4  2  0
  4  5  1  0
  5  6  1  0
  6  7  2  0
  7  8  1  0
  8  9  2  0
  9 10  1  0
 10 11  1  0
 11 12  1  0
 12 13  1  1
 12 14  1  0
 14 15  1  0
 15 16  2  0
 16 17  1  0
 17 18  2  0
 18 19  1  0
 19 20  1  0
 20 21  1  0
 20 22  1  0
 20 23  1  0
 19 24  1  0
 24 25  2  0
 25 26  1  0
  9 27  1  0
 27 28  2  0
  5 29  2  0
 29  2  1  0
 28  6  1  0
 26 14  2  0
 25 17  1  0
M  END
>  <distance_score>  (381) 
1.75766

>  <smiles>  (381) 
Cn1ccc(-c2ccc(CNC(O)c3ccc4cn(C(C)(C)C)nc4c3)cc2)n1

>  <fragmenstein_error>  (381) 


>  <fragmenstein_runtime>  (381) 
5.030825

>  <gnina_score_min>  (381) 
4.201

>  <orig_smiles>  (381) 
Cn1ccc(-c2ccc(CNC(O)c3ccc4cn(C(C)(C)C)nc4c3)cc2)n1

>  <fragmenstein_mode>  (381) 
expansion

>  <rmsd(smina/fragmenstein)>  (381) 
2.632

>  <inspiration_score>  (381) 
None

>  <name>  (381) 
RGKXBNXITOBCMI-UHFFFAOYSA-N-P76-P9-P76-601504

>  <ref_pdb>  (381) 
A0514b

>  <ref_mols>  (381) 
A0486a,A0717a

>  <subsites>  (381) 
None

>  <tags>  (381) 
openbind_a71ev2a_c1_elabs_filtered,fragmenstein_placed,a71ev2a_c1_elab_bulkdock_input,openbind_a71ev2a_c1_elab_chemspace_filtered_scored

>  <inchikey>  (381) 
RGKXBNXITOBCMI-UHFFFAOYSA-N

>  <scratch_subdir>  (381) 
/opt/xchem-fragalysis-2/maxwin/BulkDock/SCRATCH/601504/RGKXBNXITOBCMI-UHFFFAOYSA-N-P76-P9-P76-601504

>  <smina_score_min>  (381) 
-5.767

>  <energy_score>  (381) 
-43.007599

>  <Energy>  (381) 
23.680706

>  <fragmenstein_outcome>  (381) 
too moved

>  <alias>  (381) 
RGKXBNXITOBCMI-UHFFFAOYSA-N-P76-P9-P76-601504

>  <HIPPO Pose ID>  (381) 
507613

>  <exports>  (381) 
['/opt/xchem-fragalysis-2/maxwin/openbind-hippo/a71ev2a/cycle_01/bulkdock/openbind_a71ev2a_c1_elab_chemspace.sdf', '/opt/xchem-fragalysis-2/maxwin/openbind-hippo/a71ev2a/cycle_01/syndirella/elabs/openbind_a71ev2a_c1_elab_chemspace_filtered.sdf']

>  <HIPPO Compound ID>  (381) 
289770

>  <gnina_score>  (381) 
4.833

$$$$
FARSFNFYTOPKIW-UHFFFAOYSA-N-P445-P87-P445-601506
     RDKit          3D

 25 27  0  0  0  0  0  0  0  0999 V2000
   12.2915   15.0239   28.2987 C   0  0  0  0  0  0  0  0  0  0  0  0
   11.6000   15.0552   27.0626 O   0  0  0  0  0  0  0  0  0  0  0  0
   11.9507   14.2822   25.9852 C   0  0  0  0  0  0  0  0  0  0  0  0
   11.0942   14.5632   24.8967 C   0  0  0  0  0  0  0  0  0  0  0  0
   11.2527   14.0564   23.6185 C   0  0  0  0  0  0  0  0  0  0  0  0
   10.4794   14.3755   22.2609 C   0  0  2  0  0  0  0  0  0  0  0  0
   11.2484   15.3031   21.3492 C   0  0  0  0  0  0  0  0  0  0  0  0
    9.9181   15.5022   20.7130 C   0  0  0  0  0  0  0  0  0  0  0  0
    9.2140   15.3229   22.0354 N   0  0  0  0  0  0  0  0  0  0  0  0
    7.9080   14.6044   22.3795 C   0  0  0  0  0  0  0  0  0  0  0  0
    7.1899   13.9562   21.6993 O   0  0  0  0  0  0  0  0  0  0  0  0
    7.5728   14.9524   23.8250 C   0  0  0  0  0  0  0  0  0  0  0  0
    6.7381   13.9625   24.6223 C   0  0  0  0  0  0  0  0  0  0  0  0
    7.5758   13.1605   25.6018 C   0  0  0  0  0  0  0  0  0  0  0  0
    7.8902   11.8285   25.1202 N   0  0  0  0  0  0  0  0  0  0  0  0
    8.4954   11.7061   23.8057 C   0  0  0  0  0  0  0  0  0  0  0  0
    9.1908   10.4043   23.5331 C   0  0  0  0  0  0  0  0  0  0  0  0
    8.3186    9.2384   23.8953 C   0  0  0  0  0  0  0  0  0  0  0  0
    7.1851    9.5299   24.8567 C   0  0  0  0  0  0  0  0  0  0  0  0
    7.1673   10.7890   25.6497 C   0  0  0  0  0  0  0  0  0  0  0  0
    6.4987   10.8673   26.6793 O   0  0  0  0  0  0  0  0  0  0  0  0
   12.2779   13.1225   23.5392 C   0  0  0  0  0  0  0  0  0  0  0  0
   13.0258   12.6592   24.6219 C   0  0  0  0  0  0  0  0  0  0  0  0
   12.9085   13.2575   25.8483 C   0  0  0  0  0  0  0  0  0  0  0  0
   14.1088   12.5178   27.1941 Br  0  0  0  0  0  0  0  0  0  0  0  0
  1  2  1  0
  2  3  1  0
  3  4  2  0
  4  5  1  0
  6  5  1  1
  6  7  1  0
  7  8  1  0
  8  9  1  0
  9 10  1  0
 10 11  2  0
 10 12  1  0
 12 13  1  0
 13 14  1  0
 14 15  1  0
 15 16  1  0
 16 17  1  0
 17 18  1  0
 18 19  1  0
 19 20  1  0
 20 21  2  0
  5 22  2  0
 22 23  1  0
 23 24  2  0
 24 25  1  0
 24  3  1  0
  9  6  1  0
 20 15  1  0
M  END
>  <distance_score>  (382) 
1.85793

>  <smiles>  (382) 
COc1cc(C2CCN2C(=O)CCCN2CCCCC2=O)ccc1Br

>  <fragmenstein_error>  (382) 


>  <fragmenstein_runtime>  (382) 
10.803884

>  <gnina_score_min>  (382) 
5.579

>  <orig_smiles>  (382) 
COc1cc(C2CCN2C(=O)CCCN2CCCCC2=O)ccc1Br

>  <fragmenstein_mode>  (382) 
expansion

>  <rmsd(smina/fragmenstein)>  (382) 
2.032

>  <inspiration_score>  (382) 
None

>  <name>  (382) 
FARSFNFYTOPKIW-UHFFFAOYSA-N-P445-P87-P445-601506

>  <ref_pdb>  (382) 
A2629a

>  <ref_mols>  (382) 
A4715a,A0875a

>  <subsites>  (382) 
None

>  <tags>  (382) 
openbind_a71ev2a_c1_elabs_filtered,fragmenstein_placed,a71ev2a_c1_elab_bulkdock_input,openbind_a71ev2a_c1_elab_chemspace_filtered_scored

>  <inchikey>  (382) 
FARSFNFYTOPKIW-UHFFFAOYSA-N

>  <scratch_subdir>  (382) 
/opt/xchem-fragalysis-2/maxwin/BulkDock/SCRATCH/601506/FARSFNFYTOPKIW-UHFFFAOYSA-N-P445-P87-P445-601506

>  <smina_score_min>  (382) 
8.395

>  <energy_score>  (382) 
-11.581549

>  <Energy>  (382) 
71.602874

>  <fragmenstein_outcome>  (382) 
too moved

>  <alias>  (382) 
FARSFNFYTOPKIW-UHFFFAOYSA-N-P445-P87-P445-601506

>  <HIPPO Pose ID>  (382) 
510919

>  <exports>  (382) 
['/opt/xchem-fragalysis-2/maxwin/openbind-hippo/a71ev2a/cycle_01/bulkdock/openbind_a71ev2a_c1_elab_chemspace.sdf', '/opt/xchem-fragalysis-2/maxwin/openbind-hippo/a71ev2a/cycle_01/syndirella/elabs/openbind_a71ev2a_c1_elab_chemspace_filtered.sdf']

>  <HIPPO Compound ID>  (382) 
290570

>  <gnina_score>  (382) 
4.464

$$$$
ILHVWNALJHCAPJ-UHFFFAOYSA-N-P445-P87-P445-601506
     RDKit          3D

 26 30  0  0  0  0  0  0  0  0999 V2000
    9.4787   12.6136   25.1172 O   0  0  0  0  0  0  0  0  0  0  0  0
    8.8465   13.2991   24.3976 C   0  0  0  0  0  0  0  0  0  0  0  0
    7.3303   13.2723   24.4873 C   0  0  2  0  0  0  0  0  0  0  0  0
    6.9932   14.4513   25.4079 C   0  0  0  0  0  0  0  0  0  0  0  0
    5.7219   14.2827   26.2104 C   0  0  0  0  0  0  0  0  0  0  0  0
    5.7583   13.0228   26.9665 N   0  0  0  0  0  0  0  0  0  0  0  0
    4.6471   13.0118   27.9348 C   0  0  0  0  0  0  0  0  0  0  0  0
    3.9710   11.6592   28.1441 C   0  0  0  0  0  0  0  0  0  0  0  0
    4.9711   10.5251   28.0534 C   0  0  0  0  0  0  0  0  0  0  0  0
    5.7297   10.5377   26.7368 C   0  0  0  0  0  0  0  0  0  0  0  0
    5.7320   11.8950   26.0225 C   0  0  2  0  0  0  0  0  0  0  0  0
    6.9345   11.9041   25.0751 C   0  0  0  0  0  0  0  0  0  0  0  0
    9.2932   14.3404   23.3973 N   0  0  0  0  0  0  0  0  0  0  0  0
    9.5312   13.7057   21.9701 C   0  0  0  0  0  0  0  0  0  0  0  0
   10.5033   14.7469   21.6551 C   0  0  0  0  0  0  0  0  0  0  0  0
   11.7422   14.6217   20.8067 C   0  0  0  0  0  0  0  0  0  0  0  0
   10.9375   15.2848   19.6789 C   0  0  0  0  0  0  0  0  0  0  0  0
   10.0161   15.8834   20.7793 C   0  0  0  0  0  0  0  0  0  0  0  0
   10.6724   14.8872   23.0906 C   0  0  2  0  0  0  0  0  0  0  0  0
   11.6720   14.1648   24.0442 C   0  0  0  0  0  0  0  0  0  0  0  0
   11.7385   14.4993   25.3996 C   0  0  0  0  0  0  0  0  0  0  0  0
   12.6048   13.8483   26.2648 C   0  0  0  0  0  0  0  0  0  0  0  0
   13.3945   12.7982   25.8356 C   0  0  0  0  0  0  0  0  0  0  0  0
   14.7830   12.0261   26.8544 Br  0  0  0  0  0  0  0  0  0  0  0  0
   13.2324   12.3802   24.5587 C   0  0  0  0  0  0  0  0  0  0  0  0
   12.4230   13.0766   23.6635 C   0  0  0  0  0  0  0  0  0  0  0  0
  1  2  2  0
  3  2  1  1
  3  4  1  0
  4  5  1  0
  5  6  1  0
  6  7  1  0
  7  8  1  0
  8  9  1  0
  9 10  1  0
 11 10  1  1
 11 12  1  0
  2 13  1  0
 13 14  1  0
 14 15  1  0
 15 16  1  0
 16 17  1  0
 17 18  1  0
 15 19  1  0
 19 20  1  1
 20 21  2  0
 21 22  1  0
 22 23  2  0
 23 24  1  0
 23 25  1  0
 25 26  2  0
 12  3  1  0
 19 13  1  0
 26 20  1  0
 11  6  1  0
 18 15  1  0
M  END
>  <distance_score>  (383) 
1.753734

>  <smiles>  (383) 
O=C(C1CCN2CCCCC2C1)N1CC2(CCC2)C1c1ccc(Br)cc1

>  <fragmenstein_error>  (383) 


>  <fragmenstein_runtime>  (383) 
11.331398

>  <gnina_score_min>  (383) 
5.651

>  <orig_smiles>  (383) 
O=C(C1CCN2CCCCC2C1)N1CC2(CCC2)C1c1ccc(Br)cc1

>  <fragmenstein_mode>  (383) 
expansion

>  <rmsd(smina/fragmenstein)>  (383) 
4.28

>  <inspiration_score>  (383) 
None

>  <name>  (383) 
ILHVWNALJHCAPJ-UHFFFAOYSA-N-P445-P87-P445-601506

>  <ref_pdb>  (383) 
A2629a

>  <ref_mols>  (383) 
A4715a,A0875a

>  <subsites>  (383) 
None

>  <tags>  (383) 
openbind_a71ev2a_c1_elabs_filtered,fragmenstein_placed,a71ev2a_c1_elab_bulkdock_input,openbind_a71ev2a_c1_elab_chemspace_filtered_scored

>  <inchikey>  (383) 
ILHVWNALJHCAPJ-UHFFFAOYSA-N

>  <scratch_subdir>  (383) 
/opt/xchem-fragalysis-2/maxwin/BulkDock/SCRATCH/601506/ILHVWNALJHCAPJ-UHFFFAOYSA-N-P445-P87-P445-601506

>  <smina_score_min>  (383) 
-1.655

>  <energy_score>  (383) 
-6.701773

>  <Energy>  (383) 
95.876204

>  <fragmenstein_outcome>  (383) 
too moved

>  <alias>  (383) 
ILHVWNALJHCAPJ-UHFFFAOYSA-N-P445-P87-P445-601506

>  <HIPPO Pose ID>  (383) 
510977

>  <exports>  (383) 
['/opt/xchem-fragalysis-2/maxwin/openbind-hippo/a71ev2a/cycle_01/bulkdock/openbind_a71ev2a_c1_elab_chemspace.sdf', '/opt/xchem-fragalysis-2/maxwin/openbind-hippo/a71ev2a/cycle_01/syndirella/elabs/openbind_a71ev2a_c1_elab_chemspace_filtered.sdf']

>  <HIPPO Compound ID>  (383) 
290599

>  <gnina_score>  (383) 
5.094

$$$$
RRRLDDYBWRXELM-UHFFFAOYSA-N-P106-P106-P296-601508
     RDKit          3D

 19 22  0  0  0  0  0  0  0  0999 V2000
   15.8077   12.8206   27.3256 C   0  0  0  0  0  0  0  0  0  0  0  0
   16.5245   11.5081   27.1090 C   0  0  0  0  0  0  0  0  0  0  0  0
   15.7708   10.9559   25.9181 C   0  0  0  0  0  0  0  0  0  0  0  0
   14.3432   11.3248   26.1448 N   0  0  0  0  0  0  0  0  0  0  0  0
   13.6906   11.4876   24.8470 C   0  0  1  0  0  0  0  0  0  0  0  0
   12.4083   10.5505   24.8290 C   0  0  0  0  0  0  0  0  0  0  0  0
   11.5484   11.8161   24.9153 C   0  0  2  0  0  0  0  0  0  0  0  0
   10.4972   11.7729   23.9665 N   0  0  0  0  0  0  0  0  0  0  0  0
    9.2854   12.2214   24.3443 C   0  0  0  0  0  0  0  0  0  0  0  0
    8.8537   12.2983   25.5843 N   0  0  0  0  0  0  0  0  0  0  0  0
    7.5613   12.8020   25.5678 C   0  0  0  0  0  0  0  0  0  0  0  0
    6.8164   13.0580   26.8367 C   0  0  0  0  0  0  0  0  0  0  0  0
    6.0131   11.9629   27.4399 C   0  0  0  0  0  0  0  0  0  0  0  0
    5.6618   10.6855   26.7341 C   0  0  0  0  0  0  0  0  0  0  0  0
    4.6552   11.7870   26.8543 C   0  0  0  0  0  0  0  0  0  0  0  0
    7.0348   13.1758   24.4063 N   0  0  0  0  0  0  0  0  0  0  0  0
    8.1794   12.9208   23.2530 S   0  0  0  0  0  0  0  0  0  0  0  0
   12.7521   12.6740   24.5616 C   0  0  0  0  0  0  0  0  0  0  0  0
   14.3584   12.4303   27.1061 C   0  0  0  0  0  0  0  0  0  0  0  0
  1  2  1  0
  2  3  1  0
  3  4  1  0
  5  4  1  1
  5  6  1  0
  6  7  1  0
  7  8  1  6
  8  9  1  0
  9 10  2  0
 10 11  1  0
 11 12  1  0
 12 13  1  0
 13 14  1  0
 14 15  1  0
 11 16  2  0
 16 17  1  0
  7 18  1  0
  4 19  1  0
 19  1  1  0
 18  5  1  0
 17  9  1  0
 15 13  1  0
M  END
>  <distance_score>  (384) 
1.829063

>  <smiles>  (384) 
C1CCN(C2CC(Nc3nc(CC4CC4)ns3)C2)C1

>  <fragmenstein_error>  (384) 


>  <fragmenstein_runtime>  (384) 
3.31574

>  <gnina_score_min>  (384) 
4.938

>  <orig_smiles>  (384) 
C1CCN(C2CC(Nc3nc(CC4CC4)ns3)C2)C1

>  <fragmenstein_mode>  (384) 
expansion

>  <rmsd(smina/fragmenstein)>  (384) 
1.307

>  <inspiration_score>  (384) 
None

>  <name>  (384) 
RRRLDDYBWRXELM-UHFFFAOYSA-N-P106-P106-P296-601508

>  <ref_pdb>  (384) 
A0875a

>  <ref_mols>  (384) 
A4311a,A1140a

>  <subsites>  (384) 
None

>  <tags>  (384) 
openbind_a71ev2a_c1_elabs_filtered,fragmenstein_placed,a71ev2a_c1_elab_bulkdock_input,openbind_a71ev2a_c1_elab_chemspace_filtered_scored

>  <inchikey>  (384) 
RRRLDDYBWRXELM-UHFFFAOYSA-N

>  <scratch_subdir>  (384) 
/opt/xchem-fragalysis-2/maxwin/BulkDock/SCRATCH/601508/RRRLDDYBWRXELM-UHFFFAOYSA-N-P106-P106-P296-601508

>  <smina_score_min>  (384) 
-5.299

>  <energy_score>  (384) 
-60.596901

>  <Energy>  (384) 
79.124521

>  <fragmenstein_outcome>  (384) 
too moved

>  <alias>  (384) 
RRRLDDYBWRXELM-UHFFFAOYSA-N-P106-P106-P296-601508

>  <HIPPO Pose ID>  (384) 
513554

>  <exports>  (384) 
['/opt/xchem-fragalysis-2/maxwin/openbind-hippo/a71ev2a/cycle_01/bulkdock/openbind_a71ev2a_c1_elab_chemspace.sdf', '/opt/xchem-fragalysis-2/maxwin/openbind-hippo/a71ev2a/cycle_01/syndirella/elabs/openbind_a71ev2a_c1_elab_chemspace_filtered.sdf']

>  <HIPPO Compound ID>  (384) 
289922

>  <gnina_score>  (384) 
5.261

$$$$
OZAZPXQSXICTGU-UHFFFAOYSA-N-P106-P106-P296-601508
     RDKit          3D

 20 22  0  0  0  0  0  0  0  0999 V2000
   10.1751   13.9015   21.4957 C   0  0  0  0  0  0  0  0  0  0  0  0
    9.5038   14.7386   22.5853 C   0  0  0  0  0  0  0  0  0  0  0  0
   10.4617   14.8501   23.7520 C   0  0  0  0  0  0  0  0  0  0  0  0
    9.2930   16.1409   21.9603 C   0  0  0  0  0  0  0  0  0  0  0  0
    8.0958   14.1763   22.9607 C   0  0  0  0  0  0  0  0  0  0  0  0
    8.0307   12.9648   23.8090 C   0  0  0  0  0  0  0  0  0  0  0  0
    7.0544   12.6934   24.6846 N   0  0  0  0  0  0  0  0  0  0  0  0
    7.4528   11.1939   25.3453 S   0  0  0  0  0  0  0  0  0  0  0  0
    8.9916   11.2104   24.6016 C   0  0  0  0  0  0  0  0  0  0  0  0
   10.1119   10.5839   24.9828 N   0  0  0  0  0  0  0  0  0  0  0  0
   11.3288   11.0510   24.3883 C   0  0  2  0  0  0  0  0  0  0  0  0
   12.4786   10.1453   24.7646 C   0  0  0  0  0  0  0  0  0  0  0  0
   13.3963   11.4171   24.9323 C   0  0  2  0  0  0  0  0  0  0  0  0
   14.2254   11.2777   26.1239 N   0  0  0  0  0  0  0  0  0  0  0  0
   15.5633   10.7431   25.7467 C   0  0  0  0  0  0  0  0  0  0  0  0
   16.4707   11.1419   26.9070 C   0  0  0  0  0  0  0  0  0  0  0  0
   15.7176   12.2471   27.6286 C   0  0  0  0  0  0  0  0  0  0  0  0
   14.5893   12.5895   26.6778 C   0  0  0  0  0  0  0  0  0  0  0  0
   12.0912   12.2167   25.0914 C   0  0  0  0  0  0  0  0  0  0  0  0
    9.0204   12.0626   23.6233 N   0  0  0  0  0  0  0  0  0  0  0  0
  1  2  1  0
  2  3  1  0
  2  4  1  0
  2  5  1  0
  5  6  1  0
  6  7  2  0
  7  8  1  0
  8  9  1  0
  9 10  1  0
 11 10  1  1
 11 12  1  0
 12 13  1  0
 13 14  1  1
 14 15  1  0
 15 16  1  0
 16 17  1  0
 17 18  1  0
 13 19  1  0
  9 20  2  0
 20  6  1  0
 19 11  1  0
 18 14  1  0
M  END
>  <distance_score>  (385) 
1.733633

>  <smiles>  (385) 
CC(C)(C)Cc1nsc(NC2CC(N3CCCC3)C2)n1

>  <fragmenstein_error>  (385) 


>  <fragmenstein_runtime>  (385) 
3.768528

>  <gnina_score_min>  (385) 
5.163

>  <orig_smiles>  (385) 
CC(C)(C)Cc1nsc(NC2CC(N3CCCC3)C2)n1

>  <fragmenstein_mode>  (385) 
expansion

>  <rmsd(smina/fragmenstein)>  (385) 
0.618

>  <inspiration_score>  (385) 
None

>  <name>  (385) 
OZAZPXQSXICTGU-UHFFFAOYSA-N-P106-P106-P296-601508

>  <ref_pdb>  (385) 
A0875a

>  <ref_mols>  (385) 
A4311a,A1140a

>  <subsites>  (385) 
None

>  <tags>  (385) 
openbind_a71ev2a_c1_elabs_filtered,fragmenstein_placed,a71ev2a_c1_elab_bulkdock_input,openbind_a71ev2a_c1_elab_chemspace_filtered_scored

>  <inchikey>  (385) 
OZAZPXQSXICTGU-UHFFFAOYSA-N

>  <scratch_subdir>  (385) 
/opt/xchem-fragalysis-2/maxwin/BulkDock/SCRATCH/601508/OZAZPXQSXICTGU-UHFFFAOYSA-N-P106-P106-P296-601508

>  <smina_score_min>  (385) 
-6.287

>  <energy_score>  (385) 
-38.564094

>  <Energy>  (385) 
57.591906

>  <fragmenstein_outcome>  (385) 
too moved

>  <alias>  (385) 
OZAZPXQSXICTGU-UHFFFAOYSA-N-P106-P106-P296-601508

>  <HIPPO Pose ID>  (385) 
513556

>  <exports>  (385) 
['/opt/xchem-fragalysis-2/maxwin/openbind-hippo/a71ev2a/cycle_01/bulkdock/openbind_a71ev2a_c1_elab_chemspace.sdf', '/opt/xchem-fragalysis-2/maxwin/openbind-hippo/a71ev2a/cycle_01/syndirella/elabs/openbind_a71ev2a_c1_elab_chemspace_filtered.sdf']

>  <HIPPO Compound ID>  (385) 
289923

>  <gnina_score>  (385) 
5.311

$$$$
CWONUZCUTWZKGJ-UHFFFAOYSA-N-P38-P38-P51-601508
     RDKit          3D

 24 27  0  0  0  0  0  0  0  0999 V2000
   14.2712    8.5622   -1.8403 C   0  0  0  0  0  0  0  0  0  0  0  0
   13.9813    9.7695   -1.1449 O   0  0  0  0  0  0  0  0  0  0  0  0
   15.0444   10.4548   -0.6283 C   0  0  0  0  0  0  0  0  0  0  0  0
   16.3872   10.1498   -0.8057 C   0  0  0  0  0  0  0  0  0  0  0  0
   17.3738   10.9422   -0.2073 C   0  0  0  0  0  0  0  0  0  0  0  0
   17.0454   12.0729    0.5665 C   0  0  0  0  0  0  0  0  0  0  0  0
   15.6845   12.3472    0.7770 C   0  0  0  0  0  0  0  0  0  0  0  0
   14.7029   11.5538    0.1576 C   0  0  0  0  0  0  0  0  0  0  0  0
   15.2266   13.5019    1.6248 C   0  0  0  0  0  0  0  0  0  0  0  0
   16.2850   13.9391    2.6271 C   0  0  0  0  0  0  0  0  0  0  0  0
   17.6034   14.1895    1.9076 C   0  0  0  0  0  0  0  0  0  0  0  0
   18.1381   12.9085    1.2318 C   0  0  1  0  0  0  0  0  0  0  0  0
   18.6870   12.0938    2.2792 O   0  0  0  0  0  0  0  0  0  0  0  0
   19.2626   13.2994    0.2372 C   0  0  0  0  0  0  0  0  0  0  0  0
   20.5329   13.6380    0.8367 N   0  0  0  0  0  0  0  0  0  0  0  0
   21.9611   13.6167    0.2427 C   0  0  0  0  0  0  0  0  0  0  0  0
   22.3414   13.2499   -0.7964 O   0  0  0  0  0  0  0  0  0  0  0  0
   22.9059   14.2234    1.3046 C   0  0  1  0  0  0  0  0  0  0  0  0
   24.3669   14.2587    0.7982 C   0  0  0  0  0  0  0  0  0  0  0  0
   24.5969   15.7682    0.5861 C   0  0  1  0  0  0  0  0  0  0  0  0
   23.2233   16.3433    0.2845 C   0  0  0  0  0  0  0  0  0  0  0  0
   22.6221   15.7257    1.5352 C   0  0  2  0  0  0  0  0  0  0  0  0
   23.5993   16.2724    2.5797 C   0  0  0  0  0  0  0  0  0  0  0  0
   24.8618   16.3297    1.8880 O   0  0  0  0  0  0  0  0  0  0  0  0
  1  2  1  0
  2  3  1  0
  3  4  2  0
  4  5  1  0
  5  6  2  0
  6  7  1  0
  7  8  2  0
  7  9  1  0
  9 10  1  0
 10 11  1  0
 11 12  1  0
 12 13  1  1
 12 14  1  0
 14 15  1  0
 15 16  1  0
 16 17  2  0
 18 16  1  6
 18 19  1  0
 20 19  1  1
 20 21  1  0
 21 22  1  0
 22 23  1  1
 23 24  1  0
  8  3  1  0
 22 18  1  0
 12  6  1  0
 24 20  1  0
M  END
>  <distance_score>  (386) 
1.621406

>  <smiles>  (386) 
COc1ccc2c(c1)CCCC2(O)CNC(=O)C1CC2CC1CO2

>  <fragmenstein_error>  (386) 


>  <fragmenstein_runtime>  (386) 
11.250409

>  <gnina_score_min>  (386) 
4.076

>  <orig_smiles>  (386) 
COc1ccc2c(c1)CCCC2(O)CNC(=O)C1CC2CC1CO2

>  <fragmenstein_mode>  (386) 
expansion

>  <rmsd(smina/fragmenstein)>  (386) 
2.498

>  <inspiration_score>  (386) 
None

>  <name>  (386) 
CWONUZCUTWZKGJ-UHFFFAOYSA-N-P38-P38-P51-601508

>  <ref_pdb>  (386) 
A0875a

>  <ref_mols>  (386) 
A0239a,A0608a

>  <subsites>  (386) 
None

>  <tags>  (386) 
openbind_a71ev2a_c1_elabs_filtered,fragmenstein_placed,a71ev2a_c1_elab_bulkdock_input,openbind_a71ev2a_c1_elab_chemspace_filtered_scored

>  <inchikey>  (386) 
CWONUZCUTWZKGJ-UHFFFAOYSA-N

>  <scratch_subdir>  (386) 
/opt/xchem-fragalysis-2/maxwin/BulkDock/SCRATCH/601508/CWONUZCUTWZKGJ-UHFFFAOYSA-N-P38-P38-P51-601508

>  <smina_score_min>  (386) 
-5.29

>  <energy_score>  (386) 
-33.463296

>  <Energy>  (386) 
74.788245

>  <fragmenstein_outcome>  (386) 
too moved

>  <alias>  (386) 
CWONUZCUTWZKGJ-UHFFFAOYSA-N-P38-P38-P51-601508

>  <HIPPO Pose ID>  (386) 
514030

>  <exports>  (386) 
['/opt/xchem-fragalysis-2/maxwin/openbind-hippo/a71ev2a/cycle_01/bulkdock/openbind_a71ev2a_c1_elab_chemspace.sdf', '/opt/xchem-fragalysis-2/maxwin/openbind-hippo/a71ev2a/cycle_01/syndirella/elabs/openbind_a71ev2a_c1_elab_chemspace_filtered.sdf']

>  <HIPPO Compound ID>  (386) 
290290

>  <gnina_score>  (386) 
4.137

$$$$
XAROSNGDCXVAEE-UHFFFAOYSA-N-P38-P38-P51-601508
     RDKit          3D

 25 27  0  0  0  0  0  0  0  0999 V2000
   28.8300   11.5885    2.9135 C   0  0  0  0  0  0  0  0  0  0  0  0
   27.4633   11.9591    3.0562 O   0  0  0  0  0  0  0  0  0  0  0  0
   26.7358   12.0593    1.9037 C   0  0  0  0  0  0  0  0  0  0  0  0
   25.3660   12.2063    2.0790 C   0  0  0  0  0  0  0  0  0  0  0  0
   24.5182   12.3256    0.9742 C   0  0  0  0  0  0  0  0  0  0  0  0
   25.0160   12.3194   -0.3311 C   0  0  0  0  0  0  0  0  0  0  0  0
   26.4061   12.1827   -0.5002 C   0  0  0  0  0  0  0  0  0  0  0  0
   27.2528   12.0572    0.6112 C   0  0  0  0  0  0  0  0  0  0  0  0
   26.9986   12.2872   -1.8818 C   0  0  0  0  0  0  0  0  0  0  0  0
   26.1746   11.5468   -2.9290 C   0  0  0  0  0  0  0  0  0  0  0  0
   24.6623   11.5436   -2.6794 C   0  0  0  0  0  0  0  0  0  0  0  0
   24.1734   12.5183   -1.5851 C   0  0  2  0  0  0  0  0  0  0  0  0
   24.3996   13.8625   -2.0536 O   0  0  0  0  0  0  0  0  0  0  0  0
   22.6473   12.3242   -1.4562 C   0  0  0  0  0  0  0  0  0  0  0  0
   22.0285   13.3087   -0.6135 N   0  0  0  0  0  0  0  0  0  0  0  0
   20.6607   13.3033    0.0925 C   0  0  0  0  0  0  0  0  0  0  0  0
   19.7874   12.5343    0.0408 O   0  0  0  0  0  0  0  0  0  0  0  0
   20.5770   14.5845    0.9119 C   0  0  2  0  0  0  0  0  0  0  0  0
   20.3947   15.7252   -0.0649 C   0  0  0  0  0  0  0  0  0  0  0  0
   21.6831   14.6909    1.9867 C   0  0  0  0  0  0  0  0  0  0  0  0
   22.8776   15.6286    1.8127 C   0  0  2  0  0  0  0  0  0  0  0  0
   22.5837   17.1010    2.0420 C   0  0  0  0  0  0  0  0  0  0  0  0
   23.7695   17.7493    1.3806 C   0  0  0  0  0  0  0  0  0  0  0  0
   24.0378   16.8356    0.2040 C   0  0  0  0  0  0  0  0  0  0  0  0
   23.4675   15.5464    0.5075 O   0  0  0  0  0  0  0  0  0  0  0  0
  1  2  1  0
  2  3  1  0
  3  4  2  0
  4  5  1  0
  5  6  2  0
  6  7  1  0
  7  8  2  0
  7  9  1  0
  9 10  1  0
 10 11  1  0
 11 12  1  0
 12 13  1  6
 12 14  1  0
 14 15  1  0
 15 16  1  0
 16 17  2  0
 16 18  1  0
 18 19  1  6
 18 20  1  0
 21 20  1  6
 21 22  1  0
 22 23  1  0
 23 24  1  0
 24 25  1  0
  8  3  1  0
 25 21  1  0
 12  6  1  0
M  END
>  <distance_score>  (387) 
1.981361

>  <smiles>  (387) 
COc1ccc2c(c1)CCCC2(O)CNC(=O)C(C)CC1CCCO1

>  <fragmenstein_error>  (387) 


>  <fragmenstein_runtime>  (387) 
26.858888

>  <gnina_score_min>  (387) 
3.973

>  <orig_smiles>  (387) 
COc1ccc2c(c1)CCCC2(O)CNC(=O)C(C)CC1CCCO1

>  <fragmenstein_mode>  (387) 
expansion

>  <rmsd(smina/fragmenstein)>  (387) 
1.888

>  <inspiration_score>  (387) 
None

>  <name>  (387) 
XAROSNGDCXVAEE-UHFFFAOYSA-N-P38-P38-P51-601508

>  <ref_pdb>  (387) 
A0875a

>  <ref_mols>  (387) 
A0239a,A0608a

>  <subsites>  (387) 
None

>  <tags>  (387) 
openbind_a71ev2a_c1_elabs_filtered,fragmenstein_placed,a71ev2a_c1_elab_bulkdock_input,openbind_a71ev2a_c1_elab_chemspace_filtered_scored

>  <inchikey>  (387) 
XAROSNGDCXVAEE-UHFFFAOYSA-N

>  <scratch_subdir>  (387) 
/opt/xchem-fragalysis-2/maxwin/BulkDock/SCRATCH/601508/XAROSNGDCXVAEE-UHFFFAOYSA-N-P38-P38-P51-601508

>  <smina_score_min>  (387) 
-3.789

>  <energy_score>  (387) 
-29.126889

>  <Energy>  (387) 
70.508675

>  <fragmenstein_outcome>  (387) 
too moved

>  <alias>  (387) 
XAROSNGDCXVAEE-UHFFFAOYSA-N-P38-P38-P51-601508

>  <HIPPO Pose ID>  (387) 
514060

>  <exports>  (387) 
['/opt/xchem-fragalysis-2/maxwin/openbind-hippo/a71ev2a/cycle_01/bulkdock/openbind_a71ev2a_c1_elab_chemspace.sdf', '/opt/xchem-fragalysis-2/maxwin/openbind-hippo/a71ev2a/cycle_01/syndirella/elabs/openbind_a71ev2a_c1_elab_chemspace_filtered.sdf']

>  <HIPPO Compound ID>  (387) 
290307

>  <gnina_score>  (387) 
4.441

$$$$
IMUYXSJFCIUBEL-UHFFFAOYSA-N-P51-P38-P51-601508
     RDKit          3D

 25 28  0  0  0  0  0  0  0  0999 V2000
   17.9012   18.7985    2.4427 C   0  0  0  0  0  0  0  0  0  0  0  0
   16.6621   18.3629    1.8929 O   0  0  0  0  0  0  0  0  0  0  0  0
   16.6051   17.0418    1.5391 C   0  0  0  0  0  0  0  0  0  0  0  0
   15.7209   16.7391    0.5104 C   0  0  0  0  0  0  0  0  0  0  0  0
   15.5810   15.4242    0.0750 C   0  0  0  0  0  0  0  0  0  0  0  0
   16.3113   14.3860    0.6769 C   0  0  0  0  0  0  0  0  0  0  0  0
   17.2098   14.6767    1.7281 C   0  0  0  0  0  0  0  0  0  0  0  0
   17.3236   16.0150    2.1584 C   0  0  0  0  0  0  0  0  0  0  0  0
   17.9203   13.5452    2.4479 C   0  0  2  0  0  0  0  0  0  0  0  0
   16.9227   13.2074    3.4528 O   0  0  0  0  0  0  0  0  0  0  0  0
   19.2341   13.8785    3.2164 C   0  0  0  0  0  0  0  0  0  0  0  0
   20.5184   14.0748    2.5884 N   0  0  0  0  0  0  0  0  0  0  0  0
   20.8774   14.5729    1.1641 C   0  0  0  0  0  0  0  0  0  0  0  0
   20.1895   14.8266    0.2568 O   0  0  0  0  0  0  0  0  0  0  0  0
   22.4217   14.7979    1.1305 C   0  0  1  0  0  0  0  0  0  0  0  0
   23.1927   13.4670    1.2176 C   0  0  0  0  0  0  0  0  0  0  0  0
   22.8725   15.5707   -0.1430 C   0  0  0  0  0  0  0  0  0  0  0  0
   23.5263   16.8262    0.4438 C   0  0  1  0  0  0  0  0  0  0  0  0
   22.4731   17.7701    1.0178 C   0  0  0  0  0  0  0  0  0  0  0  0
   22.0745   17.0537    2.3041 C   0  0  0  0  0  0  0  0  0  0  0  0
   22.9060   15.7726    2.2305 C   0  0  2  0  0  0  0  0  0  0  0  0
   24.1250   16.2943    1.6434 O   0  0  0  0  0  0  0  0  0  0  0  0
   18.0971   12.3164    1.5364 C   0  0  0  0  0  0  0  0  0  0  0  0
   16.7634   11.8810    0.9384 C   0  0  0  0  0  0  0  0  0  0  0  0
   16.1510   12.9966    0.1045 C   0  0  0  0  0  0  0  0  0  0  0  0
  1  2  1  0
  2  3  1  0
  3  4  2  0
  4  5  1  0
  5  6  2  0
  6  7  1  0
  7  8  2  0
  7  9  1  0
  9 10  1  1
  9 11  1  0
 11 12  1  0
 12 13  1  0
 13 14  2  0
 13 15  1  0
 15 16  1  1
 15 17  1  0
 18 17  1  1
 18 19  1  0
 19 20  1  0
 21 20  1  6
 21 22  1  0
  9 23  1  0
 23 24  1  0
 24 25  1  0
  8  3  1  0
 21 15  1  0
 25  6  1  0
 22 18  1  0
M  END
>  <distance_score>  (388) 
1.344159

>  <smiles>  (388) 
COc1ccc2c(c1)C(O)(CNC(=O)C1(C)CC3CCC1O3)CCC2

>  <fragmenstein_error>  (388) 


>  <fragmenstein_runtime>  (388) 
11.226487

>  <gnina_score_min>  (388) 
4.132

>  <orig_smiles>  (388) 
COc1ccc2c(c1)C(O)(CNC(=O)C1(C)CC3CCC1O3)CCC2

>  <fragmenstein_mode>  (388) 
expansion

>  <rmsd(smina/fragmenstein)>  (388) 
1.563

>  <inspiration_score>  (388) 
None

>  <name>  (388) 
IMUYXSJFCIUBEL-UHFFFAOYSA-N-P51-P38-P51-601508

>  <ref_pdb>  (388) 
A0875a

>  <ref_mols>  (388) 
A0239a,A0608a

>  <subsites>  (388) 
None

>  <tags>  (388) 
openbind_a71ev2a_c1_elabs_filtered,fragmenstein_placed,a71ev2a_c1_elab_bulkdock_input,openbind_a71ev2a_c1_elab_chemspace_filtered_scored

>  <inchikey>  (388) 
IMUYXSJFCIUBEL-UHFFFAOYSA-N

>  <scratch_subdir>  (388) 
/opt/xchem-fragalysis-2/maxwin/BulkDock/SCRATCH/601508/IMUYXSJFCIUBEL-UHFFFAOYSA-N-P51-P38-P51-601508

>  <smina_score_min>  (388) 
-3.467

>  <energy_score>  (388) 
-26.479172

>  <Energy>  (388) 
100.470605

>  <fragmenstein_outcome>  (388) 
too moved

>  <alias>  (388) 
IMUYXSJFCIUBEL-UHFFFAOYSA-N-P51-P38-P51-601508

>  <HIPPO Pose ID>  (388) 
514069

>  <exports>  (388) 
['/opt/xchem-fragalysis-2/maxwin/openbind-hippo/a71ev2a/cycle_01/bulkdock/openbind_a71ev2a_c1_elab_chemspace.sdf', '/opt/xchem-fragalysis-2/maxwin/openbind-hippo/a71ev2a/cycle_01/syndirella/elabs/openbind_a71ev2a_c1_elab_chemspace_filtered.sdf']

>  <HIPPO Compound ID>  (388) 
290320

>  <gnina_score>  (388) 
4.577

$$$$
UURGVZUIMYLALW-UHFFFAOYSA-N-P38-P38-P51-601508
     RDKit          3D

 25 28  0  0  0  0  0  0  0  0999 V2000
   27.6074   11.4232    3.0753 C   0  0  0  0  0  0  0  0  0  0  0  0
   27.7684   11.4318    1.6659 O   0  0  0  0  0  0  0  0  0  0  0  0
   26.6665   11.7564    0.9309 C   0  0  0  0  0  0  0  0  0  0  0  0
   25.3724   11.9249    1.4018 C   0  0  0  0  0  0  0  0  0  0  0  0
   24.3372   12.2242    0.5048 C   0  0  0  0  0  0  0  0  0  0  0  0
   24.5686   12.4017   -0.8611 C   0  0  0  0  0  0  0  0  0  0  0  0
   25.8839   12.2242   -1.3237 C   0  0  0  0  0  0  0  0  0  0  0  0
   26.9142   11.9086   -0.4303 C   0  0  0  0  0  0  0  0  0  0  0  0
   26.1935   12.4594   -2.7792 C   0  0  0  0  0  0  0  0  0  0  0  0
   25.1207   11.8790   -3.6971 C   0  0  0  0  0  0  0  0  0  0  0  0
   23.6869   11.9564   -3.1533 C   0  0  0  0  0  0  0  0  0  0  0  0
   23.5155   12.8203   -1.8854 C   0  0  2  0  0  0  0  0  0  0  0  0
   23.7783   14.1905   -2.2528 O   0  0  0  0  0  0  0  0  0  0  0  0
   22.0241   12.7477   -1.4664 C   0  0  0  0  0  0  0  0  0  0  0  0
   21.7228   13.6492   -0.3848 N   0  0  0  0  0  0  0  0  0  0  0  0
   20.6132   13.5975    0.6813 C   0  0  0  0  0  0  0  0  0  0  0  0
   19.7180   12.8571    0.8076 O   0  0  0  0  0  0  0  0  0  0  0  0
   20.9096   14.6969    1.7414 C   0  0  1  0  0  0  0  0  0  0  0  0
   22.3248   14.7210    2.3661 C   0  0  0  0  0  0  0  0  0  0  0  0
   22.6122   16.0501    1.6558 C   0  0  1  0  0  0  0  0  0  0  0  0
   23.1041   17.2161    2.4905 C   0  0  0  0  0  0  0  0  0  0  0  0
   23.7105   18.1154    1.4313 C   0  0  0  0  0  0  0  0  0  0  0  0
   24.3753   17.1234    0.4951 C   0  0  0  0  0  0  0  0  0  0  0  0
   23.5257   15.9639    0.5283 O   0  0  0  0  0  0  0  0  0  0  0  0
   21.1206   16.1387    1.2581 C   0  0  0  0  0  0  0  0  0  0  0  0
  1  2  1  0
  2  3  1  0
  3  4  2  0
  4  5  1  0
  5  6  2  0
  6  7  1  0
  7  8  2  0
  7  9  1  0
  9 10  1  0
 10 11  1  0
 11 12  1  0
 12 13  1  6
 12 14  1  0
 14 15  1  0
 15 16  1  0
 16 17  2  0
 18 16  1  6
 18 19  1  0
 20 19  1  1
 20 21  1  0
 21 22  1  0
 22 23  1  0
 23 24  1  0
 20 25  1  0
  8  3  1  0
 25 18  1  0
 12  6  1  0
 24 20  1  0
M  END
>  <distance_score>  (389) 
1.836306

>  <smiles>  (389) 
COc1ccc2c(c1)CCCC2(O)CNC(=O)C1CC2(CCCO2)C1

>  <fragmenstein_error>  (389) 


>  <fragmenstein_runtime>  (389) 
46.973405

>  <gnina_score_min>  (389) 
4.12

>  <orig_smiles>  (389) 
COc1ccc2c(c1)CCCC2(O)CNC(=O)C1CC2(CCCO2)C1

>  <fragmenstein_mode>  (389) 
expansion

>  <rmsd(smina/fragmenstein)>  (389) 
2.759

>  <inspiration_score>  (389) 
None

>  <name>  (389) 
UURGVZUIMYLALW-UHFFFAOYSA-N-P38-P38-P51-601508

>  <ref_pdb>  (389) 
A0875a

>  <ref_mols>  (389) 
A0239a,A0608a

>  <subsites>  (389) 
None

>  <tags>  (389) 
openbind_a71ev2a_c1_elabs_filtered,fragmenstein_placed,a71ev2a_c1_elab_bulkdock_input,openbind_a71ev2a_c1_elab_chemspace_filtered_scored

>  <inchikey>  (389) 
UURGVZUIMYLALW-UHFFFAOYSA-N

>  <scratch_subdir>  (389) 
/opt/xchem-fragalysis-2/maxwin/BulkDock/SCRATCH/601508/UURGVZUIMYLALW-UHFFFAOYSA-N-P38-P38-P51-601508

>  <smina_score_min>  (389) 
-4.606

>  <energy_score>  (389) 
-36.37821

>  <Energy>  (389) 
69.09954

>  <fragmenstein_outcome>  (389) 
too moved

>  <alias>  (389) 
UURGVZUIMYLALW-UHFFFAOYSA-N-P38-P38-P51-601508

>  <HIPPO Pose ID>  (389) 
514078

>  <exports>  (389) 
['/opt/xchem-fragalysis-2/maxwin/openbind-hippo/a71ev2a/cycle_01/bulkdock/openbind_a71ev2a_c1_elab_chemspace.sdf', '/opt/xchem-fragalysis-2/maxwin/openbind-hippo/a71ev2a/cycle_01/syndirella/elabs/openbind_a71ev2a_c1_elab_chemspace_filtered.sdf']

>  <HIPPO Compound ID>  (389) 
290331

>  <gnina_score>  (389) 
4.537

$$$$
SLYIICNVYREAHT-UHFFFAOYSA-N-P51-P38-P51-601508
     RDKit          3D

 26 28  0  0  0  0  0  0  0  0999 V2000
   29.0616    8.7488   -3.2715 C   0  0  0  0  0  0  0  0  0  0  0  0
   28.8272    8.9814   -1.8883 O   0  0  0  0  0  0  0  0  0  0  0  0
   27.8706    9.9081   -1.5773 C   0  0  0  0  0  0  0  0  0  0  0  0
   26.9839   10.4951   -2.4741 C   0  0  0  0  0  0  0  0  0  0  0  0
   26.0646   11.4463   -2.0252 C   0  0  0  0  0  0  0  0  0  0  0  0
   26.0106   11.8274   -0.6732 C   0  0  0  0  0  0  0  0  0  0  0  0
   26.8910   11.2210    0.2401 C   0  0  0  0  0  0  0  0  0  0  0  0
   27.8130   10.2682   -0.2286 C   0  0  0  0  0  0  0  0  0  0  0  0
   26.9422   11.5966    1.7047 C   0  0  0  0  0  0  0  0  0  0  0  0
   25.8605   12.5636    2.1736 C   0  0  0  0  0  0  0  0  0  0  0  0
   25.5024   13.5504    1.0745 C   0  0  0  0  0  0  0  0  0  0  0  0
   24.9904   12.8444   -0.1982 C   0  0  1  0  0  0  0  0  0  0  0  0
   24.7552   13.8320   -1.2179 O   0  0  0  0  0  0  0  0  0  0  0  0
   23.6569   12.1136   -0.0007 C   0  0  0  0  0  0  0  0  0  0  0  0
   22.6141   13.0561    0.2680 N   0  0  0  0  0  0  0  0  0  0  0  0
   22.1627   13.7056    1.6031 C   0  0  0  0  0  0  0  0  0  0  0  0
   22.5210   13.5130    2.6963 O   0  0  0  0  0  0  0  0  0  0  0  0
   21.1762   14.7827    1.2051 C   0  0  0  0  0  0  0  0  0  0  0  0
   20.3319   15.1698    2.1879 F   0  0  0  0  0  0  0  0  0  0  0  0
   20.4037   14.3574    0.1617 F   0  0  0  0  0  0  0  0  0  0  0  0
   22.0163   15.9488    0.7280 C   0  0  0  0  0  0  0  0  0  0  0  0
   22.9455   16.5148    1.8012 C   0  0  2  0  0  0  0  0  0  0  0  0
   22.3260   17.6690    2.5662 C   0  0  0  0  0  0  0  0  0  0  0  0
   22.7515   18.8650    1.7546 C   0  0  0  0  0  0  0  0  0  0  0  0
   24.1377   18.4586    1.3086 C   0  0  0  0  0  0  0  0  0  0  0  0
   24.0950   17.0428    1.1060 O   0  0  0  0  0  0  0  0  0  0  0  0
  1  2  1  0
  2  3  1  0
  3  4  2  0
  4  5  1  0
  5  6  2  0
  6  7  1  0
  7  8  2  0
  7  9  1  0
  9 10  1  0
 10 11  1  0
 11 12  1  0
 12 13  1  6
 12 14  1  0
 14 15  1  0
 15 16  1  0
 16 17  2  0
 16 18  1  0
 18 19  1  0
 18 20  1  0
 18 21  1  0
 22 21  1  6
 22 23  1  0
 23 24  1  0
 24 25  1  0
 25 26  1  0
  8  3  1  0
 26 22  1  0
 12  6  1  0
M  END
>  <distance_score>  (390) 
1.978025

>  <smiles>  (390) 
COc1ccc2c(c1)CCCC2(O)CNC(=O)C(F)(F)CC1CCCO1

>  <fragmenstein_error>  (390) 


>  <fragmenstein_runtime>  (390) 
22.794873

>  <gnina_score_min>  (390) 
4.193

>  <orig_smiles>  (390) 
COc1ccc2c(c1)CCCC2(O)CNC(=O)C(F)(F)CC1CCCO1

>  <fragmenstein_mode>  (390) 
expansion

>  <rmsd(smina/fragmenstein)>  (390) 
1.594

>  <inspiration_score>  (390) 
None

>  <name>  (390) 
SLYIICNVYREAHT-UHFFFAOYSA-N-P51-P38-P51-601508

>  <ref_pdb>  (390) 
A0875a

>  <ref_mols>  (390) 
A0239a,A0608a

>  <subsites>  (390) 
None

>  <tags>  (390) 
openbind_a71ev2a_c1_elabs_filtered,fragmenstein_placed,a71ev2a_c1_elab_bulkdock_input,openbind_a71ev2a_c1_elab_chemspace_filtered_scored

>  <inchikey>  (390) 
SLYIICNVYREAHT-UHFFFAOYSA-N

>  <scratch_subdir>  (390) 
/opt/xchem-fragalysis-2/maxwin/BulkDock/SCRATCH/601508/SLYIICNVYREAHT-UHFFFAOYSA-N-P51-P38-P51-601508

>  <smina_score_min>  (390) 
-4.096

>  <energy_score>  (390) 
-30.154557

>  <Energy>  (390) 
124.771924

>  <fragmenstein_outcome>  (390) 
too moved

>  <alias>  (390) 
SLYIICNVYREAHT-UHFFFAOYSA-N-P51-P38-P51-601508

>  <HIPPO Pose ID>  (390) 
514099

>  <exports>  (390) 
['/opt/xchem-fragalysis-2/maxwin/openbind-hippo/a71ev2a/cycle_01/bulkdock/openbind_a71ev2a_c1_elab_chemspace.sdf', '/opt/xchem-fragalysis-2/maxwin/openbind-hippo/a71ev2a/cycle_01/syndirella/elabs/openbind_a71ev2a_c1_elab_chemspace_filtered.sdf']

>  <HIPPO Compound ID>  (390) 
290346

>  <gnina_score>  (390) 
4.628

$$$$
WLNUZXIHIMSZOP-UHFFFAOYSA-N-P38-P38-P51-601508
     RDKit          3D

 28 31  0  0  0  0  0  0  0  0999 V2000
   14.9786    9.7921   -0.9398 C   0  0  0  0  0  0  0  0  0  0  0  0
   15.4994   10.4952    0.1863 O   0  0  0  0  0  0  0  0  0  0  0  0
   16.7445   11.0469    0.0192 C   0  0  0  0  0  0  0  0  0  0  0  0
   17.7059   10.5126   -0.8353 C   0  0  0  0  0  0  0  0  0  0  0  0
   18.9226   11.1608   -0.9916 C   0  0  0  0  0  0  0  0  0  0  0  0
   19.2003   12.3164   -0.2593 C   0  0  0  0  0  0  0  0  0  0  0  0
   18.2920   12.8438    0.6722 C   0  0  0  0  0  0  0  0  0  0  0  0
   17.0248   12.2122    0.7711 C   0  0  0  0  0  0  0  0  0  0  0  0
   15.9360   12.7740    1.6564 C   0  0  0  0  0  0  0  0  0  0  0  0
   16.1087   14.2604    1.9159 C   0  0  0  0  0  0  0  0  0  0  0  0
   17.5151   14.5253    2.4249 C   0  0  0  0  0  0  0  0  0  0  0  0
   18.6041   14.1698    1.3792 C   0  0  2  0  0  0  0  0  0  0  0  0
   18.5633   15.2008    0.3714 O   0  0  0  0  0  0  0  0  0  0  0  0
   19.9635   14.3392    2.1423 C   0  0  0  0  0  0  0  0  0  0  0  0
   21.2123   14.1592    1.4352 N   0  0  0  0  0  0  0  0  0  0  0  0
   22.6540   13.9108    1.9751 C   0  0  0  0  0  0  0  0  0  0  0  0
   23.0334   13.7382    3.0659 O   0  0  0  0  0  0  0  0  0  0  0  0
   23.6218   13.8684    0.7570 C   0  0  2  0  0  0  0  0  0  0  0  0
   23.1275   12.9704   -0.3769 C   0  0  0  0  0  0  0  0  0  0  0  0
   24.1615   12.1181   -1.0809 C   0  0  0  0  0  0  0  0  0  0  0  0
   25.5021   12.7971   -1.2903 C   0  0  0  0  0  0  0  0  0  0  0  0
   25.9573   13.7197   -0.1598 C   0  0  0  0  0  0  0  0  0  0  0  0
   25.1204   13.6435    1.1297 C   0  0  2  0  0  0  0  0  0  0  0  0
   25.4866   12.4097    1.9841 C   0  0  2  0  0  0  0  0  0  0  0  0
   26.7385   12.6689    2.8171 C   0  0  0  0  0  0  0  0  0  0  0  0
   27.2264   11.2724    3.0871 C   0  0  0  0  0  0  0  0  0  0  0  0
   26.9479   10.5962    1.7685 C   0  0  0  0  0  0  0  0  0  0  0  0
   25.8040   11.2470    1.1994 O   0  0  0  0  0  0  0  0  0  0  0  0
  1  2  1  0
  2  3  1  0
  3  4  2  0
  4  5  1  0
  5  6  2  0
  6  7  1  0
  7  8  2  0
  8  9  1  0
  9 10  1  0
 10 11  1  0
 11 12  1  0
 12 13  1  6
 12 14  1  0
 14 15  1  0
 15 16  1  0
 16 17  2  0
 18 16  1  1
 18 19  1  0
 19 20  1  0
 20 21  1  0
 21 22  1  0
 23 22  1  6
 23 24  1  0
 24 25  1  6
 25 26  1  0
 26 27  1  0
 27 28  1  0
  8  3  1  0
 23 18  1  0
 28 24  1  0
 12  7  1  0
M  END
>  <distance_score>  (391) 
1.700976

>  <smiles>  (391) 
COc1cccc2c1CCCC2(O)CNC(=O)C1CCCCC1C1CCCO1

>  <fragmenstein_error>  (391) 


>  <fragmenstein_runtime>  (391) 
18.441724

>  <gnina_score_min>  (391) 
4.522

>  <orig_smiles>  (391) 
COc1cccc2c1CCCC2(O)CNC(=O)C1CCCCC1C1CCCO1

>  <fragmenstein_mode>  (391) 
expansion

>  <rmsd(smina/fragmenstein)>  (391) 
1.493

>  <inspiration_score>  (391) 
None

>  <name>  (391) 
WLNUZXIHIMSZOP-UHFFFAOYSA-N-P38-P38-P51-601508

>  <ref_pdb>  (391) 
A0875a

>  <ref_mols>  (391) 
A0239a,A0608a

>  <subsites>  (391) 
None

>  <tags>  (391) 
openbind_a71ev2a_c1_elabs_filtered,fragmenstein_placed,a71ev2a_c1_elab_bulkdock_input,openbind_a71ev2a_c1_elab_chemspace_filtered_scored

>  <inchikey>  (391) 
WLNUZXIHIMSZOP-UHFFFAOYSA-N

>  <scratch_subdir>  (391) 
/opt/xchem-fragalysis-2/maxwin/BulkDock/SCRATCH/601508/WLNUZXIHIMSZOP-UHFFFAOYSA-N-P38-P38-P51-601508

>  <smina_score_min>  (391) 
-5.017

>  <energy_score>  (391) 
-50.705415

>  <Energy>  (391) 
90.879763

>  <fragmenstein_outcome>  (391) 
too moved

>  <alias>  (391) 
WLNUZXIHIMSZOP-UHFFFAOYSA-N-P38-P38-P51-601508

>  <HIPPO Pose ID>  (391) 
514124

>  <exports>  (391) 
['/opt/xchem-fragalysis-2/maxwin/openbind-hippo/a71ev2a/cycle_01/bulkdock/openbind_a71ev2a_c1_elab_chemspace.sdf', '/opt/xchem-fragalysis-2/maxwin/openbind-hippo/a71ev2a/cycle_01/syndirella/elabs/openbind_a71ev2a_c1_elab_chemspace_filtered.sdf']

>  <HIPPO Compound ID>  (391) 
290376

>  <gnina_score>  (391) 
5.158

$$$$
OSDSSPLCWWJAKL-UHFFFAOYSA-N-P51-P38-P51-601508
     RDKit          3D

 28 31  0  0  0  0  0  0  0  0999 V2000
   15.7489    9.0604   -2.1028 C   0  0  0  0  0  0  0  0  0  0  0  0
   17.1187    9.4394   -2.0412 O   0  0  0  0  0  0  0  0  0  0  0  0
   17.4445   10.4421   -1.1732 C   0  0  0  0  0  0  0  0  0  0  0  0
   18.7849   10.8069   -1.1830 C   0  0  0  0  0  0  0  0  0  0  0  0
   19.2378   11.8447   -0.3680 C   0  0  0  0  0  0  0  0  0  0  0  0
   18.3748   12.5611    0.4672 C   0  0  0  0  0  0  0  0  0  0  0  0
   17.0270   12.1525    0.5182 C   0  0  0  0  0  0  0  0  0  0  0  0
   16.5737   11.1048   -0.3110 C   0  0  0  0  0  0  0  0  0  0  0  0
   16.0162   12.8409    1.3974 C   0  0  0  0  0  0  0  0  0  0  0  0
   16.6610   13.6834    2.4872 C   0  0  0  0  0  0  0  0  0  0  0  0
   17.7560   14.5593    1.8928 C   0  0  0  0  0  0  0  0  0  0  0  0
   18.9209   13.7310    1.2831 C   0  0  1  0  0  0  0  0  0  0  0  0
   19.6322   13.1720    2.3879 O   0  0  0  0  0  0  0  0  0  0  0  0
   19.7893   14.7439    0.4259 C   0  0  0  0  0  0  0  0  0  0  0  0
   21.2325   14.5927    0.2272 N   0  0  0  0  0  0  0  0  0  0  0  0
   22.3413   14.1361    1.2092 C   0  0  0  0  0  0  0  0  0  0  0  0
   22.2643   13.7371    2.3022 O   0  0  0  0  0  0  0  0  0  0  0  0
   23.7344   14.3981    0.5289 C   0  0  1  0  0  0  0  0  0  0  0  0
   24.7462   14.7929    1.6478 C   0  0  0  0  0  0  0  0  0  0  0  0
   25.7492   13.7053    2.0543 C   0  0  0  0  0  0  0  0  0  0  0  0
   25.2343   12.3042    1.8034 C   0  0  0  0  0  0  0  0  0  0  0  0
   24.8631   12.0810    0.3409 C   0  0  0  0  0  0  0  0  0  0  0  0
   24.4161   13.3571   -0.3887 C   0  0  1  0  0  0  0  0  0  0  0  0
   23.7839   13.1090   -1.7694 C   0  0  2  0  0  0  0  0  0  0  0  0
   22.4987   12.3063   -1.8335 C   0  0  0  0  0  0  0  0  0  0  0  0
   22.6444   11.5090   -3.1064 C   0  0  0  0  0  0  0  0  0  0  0  0
   24.1245   11.2294   -3.1277 C   0  0  0  0  0  0  0  0  0  0  0  0
   24.7438   12.4027   -2.5898 O   0  0  0  0  0  0  0  0  0  0  0  0
  1  2  1  0
  2  3  1  0
  3  4  2  0
  4  5  1  0
  5  6  2  0
  6  7  1  0
  7  8  2  0
  7  9  1  0
  9 10  1  0
 10 11  1  0
 11 12  1  0
 12 13  1  1
 12 14  1  0
 14 15  1  0
 15 16  1  0
 16 17  2  0
 18 16  1  1
 18 19  1  0
 19 20  1  0
 20 21  1  0
 21 22  1  0
 23 22  1  1
 23 24  1  0
 24 25  1  1
 25 26  1  0
 26 27  1  0
 27 28  1  0
  8  3  1  0
 23 18  1  0
 28 24  1  0
 12  6  1  0
M  END
>  <distance_score>  (392) 
1.835925

>  <smiles>  (392) 
COc1ccc2c(c1)CCCC2(O)CNC(=O)C1CCCCC1C1CCCO1

>  <fragmenstein_error>  (392) 


>  <fragmenstein_runtime>  (392) 
19.617649

>  <gnina_score_min>  (392) 
4.437

>  <orig_smiles>  (392) 
COc1ccc2c(c1)CCCC2(O)CNC(=O)C1CCCCC1C1CCCO1

>  <fragmenstein_mode>  (392) 
expansion

>  <rmsd(smina/fragmenstein)>  (392) 
1.219

>  <inspiration_score>  (392) 
None

>  <name>  (392) 
OSDSSPLCWWJAKL-UHFFFAOYSA-N-P51-P38-P51-601508

>  <ref_pdb>  (392) 
A0875a

>  <ref_mols>  (392) 
A0239a,A0608a

>  <subsites>  (392) 
None

>  <tags>  (392) 
openbind_a71ev2a_c1_elabs_filtered,fragmenstein_placed,a71ev2a_c1_elab_bulkdock_input,openbind_a71ev2a_c1_elab_chemspace_filtered_scored

>  <inchikey>  (392) 
OSDSSPLCWWJAKL-UHFFFAOYSA-N

>  <scratch_subdir>  (392) 
/opt/xchem-fragalysis-2/maxwin/BulkDock/SCRATCH/601508/OSDSSPLCWWJAKL-UHFFFAOYSA-N-P51-P38-P51-601508

>  <smina_score_min>  (392) 
-5.461

>  <energy_score>  (392) 
-26.550565

>  <Energy>  (392) 
91.935154

>  <fragmenstein_outcome>  (392) 
too moved

>  <alias>  (392) 
OSDSSPLCWWJAKL-UHFFFAOYSA-N-P51-P38-P51-601508

>  <HIPPO Pose ID>  (392) 
514127

>  <exports>  (392) 
['/opt/xchem-fragalysis-2/maxwin/openbind-hippo/a71ev2a/cycle_01/bulkdock/openbind_a71ev2a_c1_elab_chemspace.sdf', '/opt/xchem-fragalysis-2/maxwin/openbind-hippo/a71ev2a/cycle_01/syndirella/elabs/openbind_a71ev2a_c1_elab_chemspace_filtered.sdf']

>  <HIPPO Compound ID>  (392) 
290377

>  <gnina_score>  (392) 
4.757

$$$$
WBWUXRNBKBEWRQ-UHFFFAOYSA-N-P51-P38-P51-601508
     RDKit          3D

 28 30  0  0  0  0  0  0  0  0999 V2000
   18.0774    9.8788   -3.2316 C   0  0  0  0  0  0  0  0  0  0  0  0
   17.4709    9.6302   -1.9638 O   0  0  0  0  0  0  0  0  0  0  0  0
   17.7391   10.5990   -1.0399 C   0  0  0  0  0  0  0  0  0  0  0  0
   18.9985   11.1305   -0.8268 C   0  0  0  0  0  0  0  0  0  0  0  0
   19.1767   12.1460    0.1199 C   0  0  0  0  0  0  0  0  0  0  0  0
   18.1153   12.6737    0.8704 C   0  0  0  0  0  0  0  0  0  0  0  0
   16.8399   12.1032    0.6500 C   0  0  0  0  0  0  0  0  0  0  0  0
   16.6756   11.0482   -0.2697 C   0  0  0  0  0  0  0  0  0  0  0  0
   15.6084   12.5744    1.3765 C   0  0  0  0  0  0  0  0  0  0  0  0
   15.7450   13.9869    1.9134 C   0  0  0  0  0  0  0  0  0  0  0  0
   17.0556   14.1169    2.6738 C   0  0  0  0  0  0  0  0  0  0  0  0
   18.2910   13.9141    1.7538 C   0  0  2  0  0  0  0  0  0  0  0  0
   18.3061   15.0633    0.8913 O   0  0  0  0  0  0  0  0  0  0  0  0
   19.5199   14.0098    2.7217 C   0  0  0  0  0  0  0  0  0  0  0  0
   20.8819   14.0509    2.2111 N   0  0  0  0  0  0  0  0  0  0  0  0
   21.4294   14.5245    0.8396 C   0  0  0  0  0  0  0  0  0  0  0  0
   20.8640   14.8818   -0.1185 O   0  0  0  0  0  0  0  0  0  0  0  0
   22.9540   14.5858    0.8917 C   0  0  1  0  0  0  0  0  0  0  0  0
   23.4453   15.5465    1.9848 C   0  0  0  0  0  0  0  0  0  0  0  0
   22.8826   16.9565    1.7655 C   0  0  1  0  0  0  0  0  0  0  0  0
   23.4534   17.9810    2.7208 C   0  0  0  0  0  0  0  0  0  0  0  0
   24.7768   18.3184    2.0812 C   0  0  0  0  0  0  0  0  0  0  0  0
   24.4974   18.1612    0.6029 C   0  0  0  0  0  0  0  0  0  0  0  0
   23.2932   17.3978    0.4651 O   0  0  0  0  0  0  0  0  0  0  0  0
   23.6034   13.2311    0.9784 C   0  0  0  0  0  0  0  0  0  0  0  0
   23.6798   12.7957    2.2512 F   0  0  0  0  0  0  0  0  0  0  0  0
   24.8688   13.2773    0.5022 F   0  0  0  0  0  0  0  0  0  0  0  0
   22.9427   12.3178    0.2369 F   0  0  0  0  0  0  0  0  0  0  0  0
  1  2  1  0
  2  3  1  0
  3  4  2  0
  4  5  1  0
  5  6  2  0
  6  7  1  0
  7  8  2  0
  7  9  1  0
  9 10  1  0
 10 11  1  0
 11 12  1  0
 12 13  1  6
 12 14  1  0
 14 15  1  0
 15 16  1  0
 16 17  2  0
 16 18  1  0
 18 19  1  1
 20 19  1  1
 20 21  1  0
 21 22  1  0
 22 23  1  0
 23 24  1  0
 18 25  1  0
 25 26  1  0
 25 27  1  0
 25 28  1  0
  8  3  1  0
 24 20  1  0
 12  6  1  0
M  END
>  <distance_score>  (393) 
1.378131

>  <smiles>  (393) 
COc1ccc2c(c1)CCCC2(O)CNC(=O)C(CC1CCCO1)C(F)(F)F

>  <fragmenstein_error>  (393) 


>  <fragmenstein_runtime>  (393) 
28.006683

>  <gnina_score_min>  (393) 
4.141

>  <orig_smiles>  (393) 
COc1ccc2c(c1)CCCC2(O)CNC(=O)C(CC1CCCO1)C(F)(F)F

>  <fragmenstein_mode>  (393) 
expansion

>  <rmsd(smina/fragmenstein)>  (393) 
1.983

>  <inspiration_score>  (393) 
None

>  <name>  (393) 
WBWUXRNBKBEWRQ-UHFFFAOYSA-N-P51-P38-P51-601508

>  <ref_pdb>  (393) 
A0875a

>  <ref_mols>  (393) 
A0239a,A0608a

>  <subsites>  (393) 
None

>  <tags>  (393) 
openbind_a71ev2a_c1_elabs_filtered,fragmenstein_placed,a71ev2a_c1_elab_bulkdock_input,openbind_a71ev2a_c1_elab_chemspace_filtered_scored

>  <inchikey>  (393) 
WBWUXRNBKBEWRQ-UHFFFAOYSA-N

>  <scratch_subdir>  (393) 
/opt/xchem-fragalysis-2/maxwin/BulkDock/SCRATCH/601508/WBWUXRNBKBEWRQ-UHFFFAOYSA-N-P51-P38-P51-601508

>  <smina_score_min>  (393) 
-3.92

>  <energy_score>  (393) 
-21.455466

>  <Energy>  (393) 
52.09511

>  <fragmenstein_outcome>  (393) 
too moved

>  <alias>  (393) 
WBWUXRNBKBEWRQ-UHFFFAOYSA-N-P51-P38-P51-601508

>  <HIPPO Pose ID>  (393) 
514135

>  <exports>  (393) 
['/opt/xchem-fragalysis-2/maxwin/openbind-hippo/a71ev2a/cycle_01/bulkdock/openbind_a71ev2a_c1_elab_chemspace.sdf', '/opt/xchem-fragalysis-2/maxwin/openbind-hippo/a71ev2a/cycle_01/syndirella/elabs/openbind_a71ev2a_c1_elab_chemspace_filtered.sdf']

>  <HIPPO Compound ID>  (393) 
290384

>  <gnina_score>  (393) 
5.147

$$$$
GMZSVXPQZFTMBL-UHFFFAOYSA-N-P51-P38-P51-601508
     RDKit          3D

 28 30  0  0  0  0  0  0  0  0999 V2000
   14.8161    9.7391   -1.3061 C   0  0  0  0  0  0  0  0  0  0  0  0
   15.1082   10.7306   -0.3286 O   0  0  0  0  0  0  0  0  0  0  0  0
   16.4197   11.1151   -0.1926 C   0  0  0  0  0  0  0  0  0  0  0  0
   17.4909   10.4761   -0.8102 C   0  0  0  0  0  0  0  0  0  0  0  0
   18.7808   10.9500   -0.6154 C   0  0  0  0  0  0  0  0  0  0  0  0
   19.0125   12.0476    0.2172 C   0  0  0  0  0  0  0  0  0  0  0  0
   17.9703   12.7124    0.8761 C   0  0  0  0  0  0  0  0  0  0  0  0
   16.6507   12.2399    0.6380 C   0  0  0  0  0  0  0  0  0  0  0  0
   15.4459   12.9004    1.2701 C   0  0  0  0  0  0  0  0  0  0  0  0
   15.7150   14.3015    1.7813 C   0  0  0  0  0  0  0  0  0  0  0  0
   17.0014   14.3127    2.5847 C   0  0  0  0  0  0  0  0  0  0  0  0
   18.2349   13.9743    1.7047 C   0  0  2  0  0  0  0  0  0  0  0  0
   18.3833   15.0856    0.8110 O   0  0  0  0  0  0  0  0  0  0  0  0
   19.4315   13.9749    2.7127 C   0  0  0  0  0  0  0  0  0  0  0  0
   20.8229   14.0538    2.2882 N   0  0  0  0  0  0  0  0  0  0  0  0
   21.4383   14.4264    0.9102 C   0  0  0  0  0  0  0  0  0  0  0  0
   20.9211   14.6512   -0.1142 O   0  0  0  0  0  0  0  0  0  0  0  0
   22.9582   14.5910    1.0575 C   0  0  1  0  0  0  0  0  0  0  0  0
   23.2793   15.7044    2.0671 C   0  0  0  0  0  0  0  0  0  0  0  0
   22.8336   17.0658    1.5353 C   0  0  1  0  0  0  0  0  0  0  0  0
   23.2322   18.1961    2.4740 C   0  0  0  0  0  0  0  0  0  0  0  0
   24.2268   19.0109    1.6793 C   0  0  0  0  0  0  0  0  0  0  0  0
   24.6930   18.0585    0.6102 C   0  0  0  0  0  0  0  0  0  0  0  0
   23.5290   17.2937    0.2987 O   0  0  0  0  0  0  0  0  0  0  0  0
   23.6523   13.3161    1.4329 C   0  0  0  0  0  0  0  0  0  0  0  0
   23.2831   12.9544    2.6767 F   0  0  0  0  0  0  0  0  0  0  0  0
   24.9969   13.4625    1.4531 F   0  0  0  0  0  0  0  0  0  0  0  0
   23.3726   12.3244    0.5671 F   0  0  0  0  0  0  0  0  0  0  0  0
  1  2  1  0
  2  3  1  0
  3  4  2  0
  4  5  1  0
  5  6  2  0
  6  7  1  0
  7  8  2  0
  8  9  1  0
  9 10  1  0
 10 11  1  0
 11 12  1  0
 12 13  1  6
 12 14  1  0
 14 15  1  0
 15 16  1  0
 16 17  2  0
 16 18  1  0
 18 19  1  1
 20 19  1  1
 20 21  1  0
 21 22  1  0
 22 23  1  0
 23 24  1  0
 18 25  1  0
 25 26  1  0
 25 27  1  0
 25 28  1  0
  8  3  1  0
 24 20  1  0
 12  7  1  0
M  END
>  <distance_score>  (394) 
1.358471

>  <smiles>  (394) 
COc1cccc2c1CCCC2(O)CNC(=O)C(CC1CCCO1)C(F)(F)F

>  <fragmenstein_error>  (394) 


>  <fragmenstein_runtime>  (394) 
27.300529

>  <gnina_score_min>  (394) 
4.168

>  <orig_smiles>  (394) 
COc1cccc2c1CCCC2(O)CNC(=O)C(CC1CCCO1)C(F)(F)F

>  <fragmenstein_mode>  (394) 
expansion

>  <rmsd(smina/fragmenstein)>  (394) 
1.885

>  <inspiration_score>  (394) 
None

>  <name>  (394) 
GMZSVXPQZFTMBL-UHFFFAOYSA-N-P51-P38-P51-601508

>  <ref_pdb>  (394) 
A0875a

>  <ref_mols>  (394) 
A0239a,A0608a

>  <subsites>  (394) 
None

>  <tags>  (394) 
openbind_a71ev2a_c1_elabs_filtered,fragmenstein_placed,a71ev2a_c1_elab_bulkdock_input,openbind_a71ev2a_c1_elab_chemspace_filtered_scored

>  <inchikey>  (394) 
GMZSVXPQZFTMBL-UHFFFAOYSA-N

>  <scratch_subdir>  (394) 
/opt/xchem-fragalysis-2/maxwin/BulkDock/SCRATCH/601508/GMZSVXPQZFTMBL-UHFFFAOYSA-N-P51-P38-P51-601508

>  <smina_score_min>  (394) 
-4.009

>  <energy_score>  (394) 
-31.371832

>  <Energy>  (394) 
51.538078

>  <fragmenstein_outcome>  (394) 
too moved

>  <alias>  (394) 
GMZSVXPQZFTMBL-UHFFFAOYSA-N-P51-P38-P51-601508

>  <HIPPO Pose ID>  (394) 
514137

>  <exports>  (394) 
['/opt/xchem-fragalysis-2/maxwin/openbind-hippo/a71ev2a/cycle_01/bulkdock/openbind_a71ev2a_c1_elab_chemspace.sdf', '/opt/xchem-fragalysis-2/maxwin/openbind-hippo/a71ev2a/cycle_01/syndirella/elabs/openbind_a71ev2a_c1_elab_chemspace_filtered.sdf']

>  <HIPPO Compound ID>  (394) 
290385

>  <gnina_score>  (394) 
4.996

$$$$
KZRFYIJWXVJPFT-UHFFFAOYSA-N-P51-P38-P51-601508
     RDKit          3D

 32 35  0  0  0  0  0  0  0  0999 V2000
   13.7591   16.0065    2.9233 C   0  0  0  0  0  0  0  0  0  0  0  0
   13.9039   15.4566    1.6142 O   0  0  0  0  0  0  0  0  0  0  0  0
   15.0081   14.6441    1.5627 C   0  0  0  0  0  0  0  0  0  0  0  0
   14.7998   13.2713    1.6945 C   0  0  0  0  0  0  0  0  0  0  0  0
   15.8796   12.4015    1.6276 C   0  0  0  0  0  0  0  0  0  0  0  0
   17.1639   12.9119    1.4530 C   0  0  0  0  0  0  0  0  0  0  0  0
   17.3954   14.2982    1.3110 C   0  0  0  0  0  0  0  0  0  0  0  0
   16.2871   15.1688    1.3016 C   0  0  0  0  0  0  0  0  0  0  0  0
   16.4656   16.6348    0.9901 C   0  0  0  0  0  0  0  0  0  0  0  0
   17.7124   16.8881    0.1478 C   0  0  0  0  0  0  0  0  0  0  0  0
   18.9304   16.3190    0.8630 C   0  0  0  0  0  0  0  0  0  0  0  0
   18.8214   14.7934    1.0678 C   0  0  2  0  0  0  0  0  0  0  0  0
   19.2745   14.1600   -0.1439 O   0  0  0  0  0  0  0  0  0  0  0  0
   19.7638   14.3697    2.2299 C   0  0  0  0  0  0  0  0  0  0  0  0
   21.1638   14.4398    1.8842 N   0  0  0  0  0  0  0  0  0  0  0  0
   22.1384   15.4676    2.1099 C   0  0  0  0  0  0  0  0  0  0  0  0
   22.0614   16.4980    2.7123 O   0  0  0  0  0  0  0  0  0  0  0  0
   23.4319   15.0970    1.3005 C   0  0  1  0  0  0  0  0  0  0  0  0
   24.6880   15.8906    1.6026 C   0  0  0  0  0  0  0  0  0  0  0  0
   25.3161   14.9552    2.5584 C   0  0  2  0  0  0  0  0  0  0  0  0
   26.6274   14.5730    2.1553 O   0  0  0  0  0  0  0  0  0  0  0  0
   26.6981   13.1430    2.1520 C   0  0  0  0  0  0  0  0  0  0  0  0
   25.3670   12.6140    2.6458 C   0  0  0  0  0  0  0  0  0  0  0  0
   24.3897   13.7655    2.4371 C   0  0  2  0  0  0  0  0  0  0  0  0
   23.6404   13.5956    1.1189 N   0  0  0  0  0  0  0  0  0  0  0  0
   24.1110   13.3241   -0.1799 C   0  0  0  0  0  0  0  0  0  0  0  0
   25.2272   13.2442   -0.6030 O   0  0  0  0  0  0  0  0  0  0  0  0
   22.9989   13.1298   -0.9412 O   0  0  0  0  0  0  0  0  0  0  0  0
   23.0928   12.7703   -2.3424 C   0  0  0  0  0  0  0  0  0  0  0  0
   23.7713   13.8763   -3.1572 C   0  0  0  0  0  0  0  0  0  0  0  0
   21.6332   12.6439   -2.8056 C   0  0  0  0  0  0  0  0  0  0  0  0
   23.7827   11.4141   -2.5243 C   0  0  0  0  0  0  0  0  0  0  0  0
  1  2  1  0
  2  3  1  0
  3  4  2  0
  4  5  1  0
  5  6  2  0
  6  7  1  0
  7  8  2  0
  8  9  1  0
  9 10  1  0
 10 11  1  0
 11 12  1  0
 12 13  1  6
 12 14  1  0
 14 15  1  0
 15 16  1  0
 16 17  2  0
 18 16  1  1
 18 19  1  0
 20 19  1  6
 20 21  1  0
 21 22  1  0
 22 23  1  0
 24 23  1  6
 24 25  1  0
 25 26  1  0
 26 27  2  0
 26 28  1  0
 28 29  1  0
 29 30  1  0
 29 31  1  0
 29 32  1  0
  8  3  1  0
 25 18  1  0
 12  7  1  0
 24 20  1  0
M  END
>  <distance_score>  (395) 
1.763772

>  <smiles>  (395) 
COc1cccc2c1CCCC2(O)CNC(=O)C1CC2OCCC2N1C(=O)OC(C)(C)C

>  <fragmenstein_error>  (395) 


>  <fragmenstein_runtime>  (395) 
21.316605

>  <gnina_score_min>  (395) 
4.716

>  <orig_smiles>  (395) 
COc1cccc2c1CCCC2(O)CNC(=O)C1CC2OCCC2N1C(=O)OC(C)(C)C

>  <fragmenstein_mode>  (395) 
expansion

>  <rmsd(smina/fragmenstein)>  (395) 
1.439

>  <inspiration_score>  (395) 
None

>  <name>  (395) 
KZRFYIJWXVJPFT-UHFFFAOYSA-N-P51-P38-P51-601508

>  <ref_pdb>  (395) 
A0875a

>  <ref_mols>  (395) 
A0239a,A0608a

>  <subsites>  (395) 
None

>  <tags>  (395) 
openbind_a71ev2a_c1_elabs_filtered,fragmenstein_placed,a71ev2a_c1_elab_bulkdock_input,openbind_a71ev2a_c1_elab_chemspace_filtered_scored

>  <inchikey>  (395) 
KZRFYIJWXVJPFT-UHFFFAOYSA-N

>  <scratch_subdir>  (395) 
/opt/xchem-fragalysis-2/maxwin/BulkDock/SCRATCH/601508/KZRFYIJWXVJPFT-UHFFFAOYSA-N-P51-P38-P51-601508

>  <smina_score_min>  (395) 
-4.123

>  <energy_score>  (395) 
-1.73504

>  <Energy>  (395) 
114.074632

>  <fragmenstein_outcome>  (395) 
too moved

>  <alias>  (395) 
KZRFYIJWXVJPFT-UHFFFAOYSA-N-P51-P38-P51-601508

>  <HIPPO Pose ID>  (395) 
514165

>  <exports>  (395) 
['/opt/xchem-fragalysis-2/maxwin/openbind-hippo/a71ev2a/cycle_01/bulkdock/openbind_a71ev2a_c1_elab_chemspace.sdf', '/opt/xchem-fragalysis-2/maxwin/openbind-hippo/a71ev2a/cycle_01/syndirella/elabs/openbind_a71ev2a_c1_elab_chemspace_filtered.sdf']

>  <HIPPO Compound ID>  (395) 
290400

>  <gnina_score>  (395) 
4.978

$$$$
HTZMEYITDHGYEK-UHFFFAOYSA-N-P2-P2-P124-601511
     RDKit          3D

 24 27  0  0  0  0  0  0  0  0999 V2000
   11.7519   14.4449   21.0110 C   0  0  0  0  0  0  0  0  0  0  0  0
   11.2293   15.8439   21.1433 C   0  0  2  0  0  0  0  0  0  0  0  0
   10.4418   16.1569   22.7417 S   0  0  0  0  0  0  0  0  0  0  0  0
   10.2874   14.6493   23.4574 C   0  0  0  0  0  0  0  0  0  0  0  0
   11.2832   14.0960   24.1008 N   0  0  0  0  0  0  0  0  0  0  0  0
   10.9291   12.8156   24.3497 N   0  0  0  0  0  0  0  0  0  0  0  0
    9.6857   12.6555   23.9435 C   0  0  0  0  0  0  0  0  0  0  0  0
    8.8899   11.4938   24.1803 C   0  0  0  0  0  0  0  0  0  0  0  0
    9.1894   10.2916   23.5639 C   0  0  0  0  0  0  0  0  0  0  0  0
    8.4641    9.1995   23.9582 C   0  0  0  0  0  0  0  0  0  0  0  0
    7.4581    9.2564   24.8670 N   0  0  0  0  0  0  0  0  0  0  0  0
    7.1766   10.4422   25.4249 C   0  0  0  0  0  0  0  0  0  0  0  0
    7.8708   11.5829   25.1277 C   0  0  0  0  0  0  0  0  0  0  0  0
    9.2172   13.8153   23.3900 N   0  0  0  0  0  0  0  0  0  0  0  0
    7.7976   14.0151   22.9585 C   0  0  0  0  0  0  0  0  0  0  0  0
    7.3231   14.7789   21.7620 C   0  0  0  0  0  0  0  0  0  0  0  0
    7.0443   15.3055   23.1441 C   0  0  0  0  0  0  0  0  0  0  0  0
   10.3017   16.1781   19.9846 C   0  0  0  0  0  0  0  0  0  0  0  0
   10.2332   15.4570   18.9890 O   0  0  0  0  0  0  0  0  0  0  0  0
    9.6021   17.4372   20.0946 C   0  0  0  0  0  0  0  0  0  0  0  0
    8.7730   18.0199   21.0233 C   0  0  0  0  0  0  0  0  0  0  0  0
    8.6519   19.3572   20.6533 C   0  0  0  0  0  0  0  0  0  0  0  0
    8.9603   19.4052   19.3486 C   0  0  0  0  0  0  0  0  0  0  0  0
    9.6509   18.2877   19.0475 O   0  0  0  0  0  0  0  0  0  0  0  0
  2  1  1  1
  2  3  1  0
  3  4  1  0
  4  5  2  0
  5  6  1  0
  6  7  2  0
  7  8  1  0
  8  9  2  0
  9 10  1  0
 10 11  2  0
 11 12  1  0
 12 13  2  0
  7 14  1  0
 14 15  1  0
 15 16  1  0
 16 17  1  0
  2 18  1  0
 18 19  2  0
 18 20  1  0
 20 21  2  0
 21 22  1  0
 22 23  2  0
 23 24  1  0
 14  4  1  0
 17 15  1  0
 24 20  1  0
 13  8  1  0
M  END
>  <distance_score>  (396) 
1.93271

>  <smiles>  (396) 
CC(Sc1nnc(-c2ccncc2)n1C1CC1)C(=O)c1ccco1

>  <fragmenstein_error>  (396) 


>  <fragmenstein_runtime>  (396) 
3.860883

>  <gnina_score_min>  (396) 
5.789

>  <orig_smiles>  (396) 
CC(Sc1nnc(-c2ccncc2)n1C1CC1)C(=O)c1ccco1

>  <fragmenstein_mode>  (396) 
expansion

>  <rmsd(smina/fragmenstein)>  (396) 
2.298

>  <inspiration_score>  (396) 
None

>  <name>  (396) 
HTZMEYITDHGYEK-UHFFFAOYSA-N-P2-P2-P124-601511

>  <ref_pdb>  (396) 
A0528a

>  <ref_mols>  (396) 
A4298a,A1778a

>  <subsites>  (396) 
None

>  <tags>  (396) 
openbind_a71ev2a_c1_elabs_filtered,fragmenstein_placed,a71ev2a_c1_elab_bulkdock_input,openbind_a71ev2a_c1_elab_chemspace_filtered_scored

>  <inchikey>  (396) 
HTZMEYITDHGYEK-UHFFFAOYSA-N

>  <scratch_subdir>  (396) 
/opt/xchem-fragalysis-2/maxwin/BulkDock/SCRATCH/601511/HTZMEYITDHGYEK-UHFFFAOYSA-N-P2-P2-P124-601511

>  <smina_score_min>  (396) 
-4.524

>  <energy_score>  (396) 
-8.650933

>  <Energy>  (396) 
129.179986

>  <fragmenstein_outcome>  (396) 
too moved

>  <alias>  (396) 
HTZMEYITDHGYEK-UHFFFAOYSA-N-P2-P2-P124-601511

>  <HIPPO Pose ID>  (396) 
518578

>  <exports>  (396) 
['/opt/xchem-fragalysis-2/maxwin/openbind-hippo/a71ev2a/cycle_01/bulkdock/openbind_a71ev2a_c1_elab_chemspace.sdf', '/opt/xchem-fragalysis-2/maxwin/openbind-hippo/a71ev2a/cycle_01/syndirella/elabs/openbind_a71ev2a_c1_elab_chemspace_filtered.sdf']

>  <HIPPO Compound ID>  (396) 
290815

>  <gnina_score>  (396) 
5.2

$$$$
RMGQLDUIKGNTAI-UHFFFAOYSA-N-P2-P2-P124-601511
     RDKit          3D

 25 27  0  0  0  0  0  0  0  0999 V2000
    5.3808   14.5070   25.4563 C   0  0  0  0  0  0  0  0  0  0  0  0
    6.3925   15.0710   24.7742 C   0  0  0  0  0  0  0  0  0  0  0  0
    6.8365   16.4792   25.0672 C   0  0  0  0  0  0  0  0  0  0  0  0
    7.0806   14.3626   23.6260 C   0  0  0  0  0  0  0  0  0  0  0  0
    8.5133   14.2726   23.8035 N   0  0  0  0  0  0  0  0  0  0  0  0
    9.4789   14.7839   23.0005 C   0  0  0  0  0  0  0  0  0  0  0  0
    9.2868   14.6709   21.2995 S   0  0  0  0  0  0  0  0  0  0  0  0
   10.8162   15.4947   20.7923 C   0  0  1  0  0  0  0  0  0  0  0  0
   11.9566   14.5605   20.5444 C   0  0  0  0  0  0  0  0  0  0  0  0
   10.4350   16.2822   19.5663 C   0  0  0  0  0  0  0  0  0  0  0  0
   10.6903   15.9021   18.4295 O   0  0  0  0  0  0  0  0  0  0  0  0
    9.7242   17.4909   19.9105 C   0  0  0  0  0  0  0  0  0  0  0  0
    9.2351   17.9350   21.1033 C   0  0  0  0  0  0  0  0  0  0  0  0
    8.7612   19.2314   20.8920 C   0  0  0  0  0  0  0  0  0  0  0  0
    8.7464   19.4397   19.5543 C   0  0  0  0  0  0  0  0  0  0  0  0
    9.4034   18.4138   18.9805 O   0  0  0  0  0  0  0  0  0  0  0  0
   10.6225   14.7442   23.6441 N   0  0  0  0  0  0  0  0  0  0  0  0
   10.4803   13.7327   24.5616 N   0  0  0  0  0  0  0  0  0  0  0  0
    9.2294   13.3093   24.4617 C   0  0  0  0  0  0  0  0  0  0  0  0
    8.7419   11.9617   24.5741 C   0  0  0  0  0  0  0  0  0  0  0  0
    9.2429   10.9749   23.7219 C   0  0  0  0  0  0  0  0  0  0  0  0
    8.7306    9.7038   23.8432 C   0  0  0  0  0  0  0  0  0  0  0  0
    7.7202    9.4058   24.6912 N   0  0  0  0  0  0  0  0  0  0  0  0
    7.2258   10.3882   25.4609 C   0  0  0  0  0  0  0  0  0  0  0  0
    7.7099   11.6711   25.4495 C   0  0  0  0  0  0  0  0  0  0  0  0
  1  2  2  0
  2  3  1  0
  2  4  1  0
  4  5  1  0
  5  6  1  0
  6  7  1  0
  7  8  1  0
  8  9  1  6
  8 10  1  0
 10 11  2  0
 10 12  1  0
 12 13  2  0
 13 14  1  0
 14 15  2  0
 15 16  1  0
  6 17  2  0
 17 18  1  0
 18 19  2  0
 19 20  1  0
 20 21  2  0
 21 22  1  0
 22 23  2  0
 23 24  1  0
 24 25  2  0
 19  5  1  0
 25 20  1  0
 16 12  1  0
M  END
>  <distance_score>  (397) 
1.965099

>  <smiles>  (397) 
C=C(C)Cn1c(SC(C)C(=O)c2ccco2)nnc1-c1ccncc1

>  <fragmenstein_error>  (397) 


>  <fragmenstein_runtime>  (397) 
5.234087

>  <gnina_score_min>  (397) 
5.534

>  <orig_smiles>  (397) 
C=C(C)Cn1c(SC(C)C(=O)c2ccco2)nnc1-c1ccncc1

>  <fragmenstein_mode>  (397) 
expansion

>  <rmsd(smina/fragmenstein)>  (397) 
2.846

>  <inspiration_score>  (397) 
None

>  <name>  (397) 
RMGQLDUIKGNTAI-UHFFFAOYSA-N-P2-P2-P124-601511

>  <ref_pdb>  (397) 
A0528a

>  <ref_mols>  (397) 
A4298a,A1778a

>  <subsites>  (397) 
None

>  <tags>  (397) 
openbind_a71ev2a_c1_elabs_filtered,fragmenstein_placed,a71ev2a_c1_elab_bulkdock_input,openbind_a71ev2a_c1_elab_chemspace_filtered_scored

>  <inchikey>  (397) 
RMGQLDUIKGNTAI-UHFFFAOYSA-N

>  <scratch_subdir>  (397) 
/opt/xchem-fragalysis-2/maxwin/BulkDock/SCRATCH/601511/RMGQLDUIKGNTAI-UHFFFAOYSA-N-P2-P2-P124-601511

>  <smina_score_min>  (397) 
-3.071

>  <energy_score>  (397) 
-2.235608

>  <Energy>  (397) 
95.145558

>  <fragmenstein_outcome>  (397) 
too moved

>  <alias>  (397) 
RMGQLDUIKGNTAI-UHFFFAOYSA-N-P2-P2-P124-601511

>  <HIPPO Pose ID>  (397) 
518584

>  <exports>  (397) 
['/opt/xchem-fragalysis-2/maxwin/openbind-hippo/a71ev2a/cycle_01/bulkdock/openbind_a71ev2a_c1_elab_chemspace.sdf', '/opt/xchem-fragalysis-2/maxwin/openbind-hippo/a71ev2a/cycle_01/syndirella/elabs/openbind_a71ev2a_c1_elab_chemspace_filtered.sdf']

>  <HIPPO Compound ID>  (397) 
290818

>  <gnina_score>  (397) 
5.236

$$$$
HNMYZSIGHOQIKX-UHFFFAOYSA-N-P2-P2-P124-601511
     RDKit          3D

 27 30  0  0  0  0  0  0  0  0999 V2000
   11.6515   15.8991   21.2215 C   0  0  0  0  0  0  0  0  0  0  0  0
   10.2358   15.7299   20.6918 C   0  0  1  0  0  0  0  0  0  0  0  0
    8.8963   16.0279   21.8972 S   0  0  0  0  0  0  0  0  0  0  0  0
    9.2695   14.8916   23.0812 C   0  0  0  0  0  0  0  0  0  0  0  0
   10.4399   14.6643   23.6156 N   0  0  0  0  0  0  0  0  0  0  0  0
   10.3911   13.4144   24.1471 N   0  0  0  0  0  0  0  0  0  0  0  0
    9.1576   12.9717   23.9970 C   0  0  0  0  0  0  0  0  0  0  0  0
    8.6986   11.6474   24.2843 C   0  0  0  0  0  0  0  0  0  0  0  0
    9.1746   10.5717   23.5439 C   0  0  0  0  0  0  0  0  0  0  0  0
    8.6644    9.3310   23.8355 C   0  0  0  0  0  0  0  0  0  0  0  0
    7.6927    9.1366   24.7580 N   0  0  0  0  0  0  0  0  0  0  0  0
    7.2588   10.1934   25.4582 C   0  0  0  0  0  0  0  0  0  0  0  0
    7.7572   11.4557   25.2867 C   0  0  0  0  0  0  0  0  0  0  0  0
    8.3668   13.9658   23.4737 N   0  0  0  0  0  0  0  0  0  0  0  0
    6.9396   14.1503   23.6751 C   0  0  0  0  0  0  0  0  0  0  0  0
    6.0787   14.5014   22.5235 C   0  0  0  0  0  0  0  0  0  0  0  0
    5.3436   15.6322   22.2199 C   0  0  0  0  0  0  0  0  0  0  0  0
    4.4645   15.2638   21.1757 C   0  0  0  0  0  0  0  0  0  0  0  0
    4.7518   13.9571   20.8740 C   0  0  0  0  0  0  0  0  0  0  0  0
    5.7526   13.4941   21.6688 O   0  0  0  0  0  0  0  0  0  0  0  0
    9.9789   16.6296   19.4858 C   0  0  0  0  0  0  0  0  0  0  0  0
   10.1382   16.1642   18.3568 O   0  0  0  0  0  0  0  0  0  0  0  0
    9.5182   18.0071   19.7246 C   0  0  0  0  0  0  0  0  0  0  0  0
    8.6938   18.9299   19.0773 C   0  0  0  0  0  0  0  0  0  0  0  0
    8.4576   20.0280   19.8554 C   0  0  0  0  0  0  0  0  0  0  0  0
    9.1651   19.7261   20.9547 C   0  0  0  0  0  0  0  0  0  0  0  0
    9.8379   18.5714   20.8960 O   0  0  0  0  0  0  0  0  0  0  0  0
  2  1  1  1
  2  3  1  0
  3  4  1  0
  4  5  2  0
  5  6  1  0
  6  7  2  0
  7  8  1  0
  8  9  2  0
  9 10  1  0
 10 11  2  0
 11 12  1  0
 12 13  2  0
  7 14  1  0
 14 15  1  0
 15 16  1  0
 16 17  2  0
 17 18  1  0
 18 19  2  0
 19 20  1  0
  2 21  1  0
 21 22  2  0
 21 23  1  0
 23 24  2  0
 24 25  1  0
 25 26  2  0
 26 27  1  0
 14  4  1  0
 20 16  1  0
 27 23  1  0
 13  8  1  0
M  END
>  <distance_score>  (398) 
1.909675

>  <smiles>  (398) 
CC(Sc1nnc(-c2ccncc2)n1Cc1ccco1)C(=O)c1ccco1

>  <fragmenstein_error>  (398) 


>  <fragmenstein_runtime>  (398) 
6.23473

>  <gnina_score_min>  (398) 
5.413

>  <orig_smiles>  (398) 
CC(Sc1nnc(-c2ccncc2)n1Cc1ccco1)C(=O)c1ccco1

>  <fragmenstein_mode>  (398) 
expansion

>  <rmsd(smina/fragmenstein)>  (398) 
4.29

>  <inspiration_score>  (398) 
None

>  <name>  (398) 
HNMYZSIGHOQIKX-UHFFFAOYSA-N-P2-P2-P124-601511

>  <ref_pdb>  (398) 
A0528a

>  <ref_mols>  (398) 
A4298a,A1778a

>  <subsites>  (398) 
None

>  <tags>  (398) 
openbind_a71ev2a_c1_elabs_filtered,fragmenstein_placed,a71ev2a_c1_elab_bulkdock_input,openbind_a71ev2a_c1_elab_chemspace_filtered_scored

>  <inchikey>  (398) 
HNMYZSIGHOQIKX-UHFFFAOYSA-N

>  <scratch_subdir>  (398) 
/opt/xchem-fragalysis-2/maxwin/BulkDock/SCRATCH/601511/HNMYZSIGHOQIKX-UHFFFAOYSA-N-P2-P2-P124-601511

>  <smina_score_min>  (398) 
-4.773

>  <energy_score>  (398) 
-19.683366

>  <Energy>  (398) 
80.396468

>  <fragmenstein_outcome>  (398) 
too moved

>  <alias>  (398) 
HNMYZSIGHOQIKX-UHFFFAOYSA-N-P2-P2-P124-601511

>  <HIPPO Pose ID>  (398) 
518590

>  <exports>  (398) 
['/opt/xchem-fragalysis-2/maxwin/openbind-hippo/a71ev2a/cycle_01/bulkdock/openbind_a71ev2a_c1_elab_chemspace.sdf', '/opt/xchem-fragalysis-2/maxwin/openbind-hippo/a71ev2a/cycle_01/syndirella/elabs/openbind_a71ev2a_c1_elab_chemspace_filtered.sdf']

>  <HIPPO Compound ID>  (398) 
290821

>  <gnina_score>  (398) 
4.81

$$$$
VDGRKPHOAZUDBW-UHFFFAOYSA-N-P338-P124-P338-601511
     RDKit          3D

 23 25  0  0  0  0  0  0  0  0999 V2000
    9.7623   10.2505   23.7500 C   0  0  0  0  0  0  0  0  0  0  0  0
    9.4635   11.5874   23.3620 O   0  0  0  0  0  0  0  0  0  0  0  0
   10.3212   12.5880   23.9162 C   0  0  0  0  0  0  0  0  0  0  0  0
   10.1611   14.0029   23.2706 C   0  0  1  0  0  0  0  0  0  0  0  0
   11.3457   14.8416   23.7760 C   0  0  0  0  0  0  0  0  0  0  0  0
   10.9045   16.1816   23.2987 C   0  0  0  0  0  0  0  0  0  0  0  0
    9.5754   15.8020   22.6744 C   0  0  1  0  0  0  0  0  0  0  0  0
    9.7535   15.2202   21.2979 C   0  0  0  0  0  0  0  0  0  0  0  0
   10.2417   13.8916   21.7357 C   0  0  0  0  0  0  0  0  0  0  0  0
    8.8801   14.8435   23.6146 N   0  0  0  0  0  0  0  0  0  0  0  0
    7.6051   14.0158   23.4311 C   0  0  0  0  0  0  0  0  0  0  0  0
    6.9138   13.8752   22.4797 O   0  0  0  0  0  0  0  0  0  0  0  0
    7.1489   13.3643   24.7746 C   0  0  1  0  0  0  0  0  0  0  0  0
    7.1116   11.8516   24.8419 C   0  0  0  0  0  0  0  0  0  0  0  0
    7.9848   13.8929   26.2865 S   0  0  0  0  0  0  0  0  0  0  0  0
    7.5584   15.5965   26.4128 C   0  0  0  0  0  0  0  0  0  0  0  0
    8.4192   16.3965   27.1504 C   0  0  0  0  0  0  0  0  0  0  0  0
    8.0423   17.6985   27.4326 C   0  0  0  0  0  0  0  0  0  0  0  0
    6.8129   18.1606   26.9770 C   0  0  0  0  0  0  0  0  0  0  0  0
    6.3137   19.9017   27.5038 Br  0  0  0  0  0  0  0  0  0  0  0  0
    6.0179   17.2962   26.2284 C   0  0  0  0  0  0  0  0  0  0  0  0
    4.2711   17.7716   25.6710 Br  0  0  0  0  0  0  0  0  0  0  0  0
    6.3757   16.0202   25.9436 N   0  0  0  0  0  0  0  0  0  0  0  0
  1  2  1  0
  2  3  1  0
  4  3  1  1
  4  5  1  0
  5  6  1  0
  7  6  1  1
  7  8  1  0
  8  9  1  0
  7 10  1  0
 10 11  1  0
 11 12  2  0
 11 13  1  0
 13 14  1  6
 13 15  1  0
 15 16  1  0
 16 17  2  0
 17 18  1  0
 18 19  2  0
 19 20  1  0
 19 21  1  0
 21 22  1  0
 21 23  2  0
  9  4  1  0
 23 16  1  0
 10  4  1  0
M  END
>  <distance_score>  (399) 
1.506857

>  <smiles>  (399) 
COCC12CCC(CC1)N2C(=O)C(C)Sc1ccc(Br)c(Br)n1

>  <fragmenstein_error>  (399) 


>  <fragmenstein_runtime>  (399) 
9.501894

>  <gnina_score_min>  (399) 
5.215

>  <orig_smiles>  (399) 
COCC12CCC(CC1)N2C(=O)C(C)Sc1ccc(Br)c(Br)n1

>  <fragmenstein_mode>  (399) 
expansion

>  <rmsd(smina/fragmenstein)>  (399) 
2.245

>  <inspiration_score>  (399) 
None

>  <name>  (399) 
VDGRKPHOAZUDBW-UHFFFAOYSA-N-P338-P124-P338-601511

>  <ref_pdb>  (399) 
A0528a

>  <ref_mols>  (399) 
A4237a,A1778a

>  <subsites>  (399) 
None

>  <tags>  (399) 
openbind_a71ev2a_c1_elabs_filtered,fragmenstein_placed,a71ev2a_c1_elab_bulkdock_input,openbind_a71ev2a_c1_elab_chemspace_filtered_scored

>  <inchikey>  (399) 
VDGRKPHOAZUDBW-UHFFFAOYSA-N

>  <scratch_subdir>  (399) 
/opt/xchem-fragalysis-2/maxwin/BulkDock/SCRATCH/601511/VDGRKPHOAZUDBW-UHFFFAOYSA-N-P338-P124-P338-601511

>  <smina_score_min>  (399) 
-5.214

>  <energy_score>  (399) 
-4.826884

>  <Energy>  (399) 
149.648775

>  <fragmenstein_outcome>  (399) 
too moved

>  <alias>  (399) 
VDGRKPHOAZUDBW-UHFFFAOYSA-N-P338-P124-P338-601511

>  <HIPPO Pose ID>  (399) 
519729

>  <exports>  (399) 
['/opt/xchem-fragalysis-2/maxwin/openbind-hippo/a71ev2a/cycle_01/bulkdock/openbind_a71ev2a_c1_elab_chemspace.sdf', '/opt/xchem-fragalysis-2/maxwin/openbind-hippo/a71ev2a/cycle_01/syndirella/elabs/openbind_a71ev2a_c1_elab_chemspace_filtered.sdf']

>  <HIPPO Compound ID>  (399) 
291534

>  <gnina_score>  (399) 
4.955

$$$$
DBOKYLOKRAXMAB-UHFFFAOYSA-N-P338-P124-P338-601511
     RDKit          3D

 23 24  0  0  0  0  0  0  0  0999 V2000
   10.3095    9.7304   24.2962 C   0  0  0  0  0  0  0  0  0  0  0  0
   10.9667   11.0007   24.4621 O   0  0  0  0  0  0  0  0  0  0  0  0
   10.0007   12.0391   24.5341 C   0  0  0  0  0  0  0  0  0  0  0  0
   10.4077   13.4964   24.1533 C   0  0  1  0  0  0  0  0  0  0  0  0
   10.8449   13.5073   22.6935 C   0  0  0  0  0  0  0  0  0  0  0  0
   10.6926   14.9508   22.3588 C   0  0  0  0  0  0  0  0  0  0  0  0
    9.7981   15.1770   21.1390 C   0  0  0  0  0  0  0  0  0  0  0  0
   12.0225   15.6606   22.1108 C   0  0  0  0  0  0  0  0  0  0  0  0
   10.0899   15.3990   23.6815 C   0  0  0  0  0  0  0  0  0  0  0  0
    9.1864   14.4513   24.4273 N   0  0  0  0  0  0  0  0  0  0  0  0
    7.8621   13.7951   24.0079 C   0  0  0  0  0  0  0  0  0  0  0  0
    7.2918   13.8208   22.9763 O   0  0  0  0  0  0  0  0  0  0  0  0
    7.2940   13.1229   25.2888 C   0  0  2  0  0  0  0  0  0  0  0  0
    6.9777   11.6437   25.0973 C   0  0  0  0  0  0  0  0  0  0  0  0
    5.7750   13.9705   25.7952 S   0  0  0  0  0  0  0  0  0  0  0  0
    6.3560   15.5782   26.2491 C   0  0  0  0  0  0  0  0  0  0  0  0
    7.5274   15.8074   26.9590 C   0  0  0  0  0  0  0  0  0  0  0  0
    7.8047   17.0958   27.4042 C   0  0  0  0  0  0  0  0  0  0  0  0
    6.8879   18.1142   27.1617 C   0  0  0  0  0  0  0  0  0  0  0  0
    7.2395   19.8020   27.9299 Br  0  0  0  0  0  0  0  0  0  0  0  0
    5.7392   17.8062   26.4444 C   0  0  0  0  0  0  0  0  0  0  0  0
    4.3263   19.0582   26.2231 Br  0  0  0  0  0  0  0  0  0  0  0  0
    5.4779   16.5622   25.9832 N   0  0  0  0  0  0  0  0  0  0  0  0
  1  2  1  0
  2  3  1  0
  4  3  1  6
  4  5  1  0
  5  6  1  0
  6  7  1  0
  6  8  1  0
  6  9  1  0
  9 10  1  0
 10 11  1  0
 11 12  2  0
 11 13  1  0
 13 14  1  6
 13 15  1  0
 15 16  1  0
 16 17  2  0
 17 18  1  0
 18 19  2  0
 19 20  1  0
 19 21  1  0
 21 22  1  0
 21 23  2  0
 10  4  1  0
 23 16  1  0
M  END
>  <distance_score>  (400) 
1.709921

>  <smiles>  (400) 
COCC1CC(C)(C)CN1C(=O)C(C)Sc1ccc(Br)c(Br)n1

>  <fragmenstein_error>  (400) 


>  <fragmenstein_runtime>  (400) 
9.260064

>  <gnina_score_min>  (400) 
5.17

>  <orig_smiles>  (400) 
COCC1CC(C)(C)CN1C(=O)C(C)Sc1ccc(Br)c(Br)n1

>  <fragmenstein_mode>  (400) 
expansion

>  <rmsd(smina/fragmenstein)>  (400) 
1.944

>  <inspiration_score>  (400) 
None

>  <name>  (400) 
DBOKYLOKRAXMAB-UHFFFAOYSA-N-P338-P124-P338-601511

>  <ref_pdb>  (400) 
A0528a

>  <ref_mols>  (400) 
A4237a,A1778a

>  <subsites>  (400) 
None

>  <tags>  (400) 
openbind_a71ev2a_c1_elabs_filtered,fragmenstein_placed,a71ev2a_c1_elab_bulkdock_input,openbind_a71ev2a_c1_elab_chemspace_filtered_scored

>  <inchikey>  (400) 
DBOKYLOKRAXMAB-UHFFFAOYSA-N

>  <scratch_subdir>  (400) 
/opt/xchem-fragalysis-2/maxwin/BulkDock/SCRATCH/601511/DBOKYLOKRAXMAB-UHFFFAOYSA-N-P338-P124-P338-601511

>  <smina_score_min>  (400) 
-4.615

>  <energy_score>  (400) 
-86.035016

>  <Energy>  (400) 
159.709203

>  <fragmenstein_outcome>  (400) 
too moved

>  <alias>  (400) 
DBOKYLOKRAXMAB-UHFFFAOYSA-N-P338-P124-P338-601511

>  <HIPPO Pose ID>  (400) 
519735

>  <exports>  (400) 
['/opt/xchem-fragalysis-2/maxwin/openbind-hippo/a71ev2a/cycle_01/bulkdock/openbind_a71ev2a_c1_elab_chemspace.sdf', '/opt/xchem-fragalysis-2/maxwin/openbind-hippo/a71ev2a/cycle_01/syndirella/elabs/openbind_a71ev2a_c1_elab_chemspace_filtered.sdf']

>  <HIPPO Compound ID>  (400) 
291537

>  <gnina_score>  (400) 
5.207

$$$$
SAKFRBDFRWFMPD-UHFFFAOYSA-N-P338-P124-P338-601511
     RDKit          3D

 24 26  0  0  0  0  0  0  0  0999 V2000
    6.8697   11.6183   26.1922 C   0  0  0  0  0  0  0  0  0  0  0  0
    8.0996   11.1871   25.3812 C   0  0  0  0  0  0  0  0  0  0  0  0
    9.0348   12.2823   25.2992 O   0  0  0  0  0  0  0  0  0  0  0  0
    9.7492   12.3764   24.1396 C   0  0  0  0  0  0  0  0  0  0  0  0
    9.7889   11.5228   23.2684 O   0  0  0  0  0  0  0  0  0  0  0  0
   10.5370   13.6912   24.0520 C   0  0  1  0  0  0  0  0  0  0  0  0
   11.9706   13.4474   24.5840 C   0  0  0  0  0  0  0  0  0  0  0  0
   11.7162   13.8253   23.1515 C   0  0  2  0  0  0  0  0  0  0  0  0
   11.7100   15.2299   22.7845 C   0  0  0  0  0  0  0  0  0  0  0  0
   10.9360   15.7510   23.9820 C   0  0  0  0  0  0  0  0  0  0  0  0
    9.5695   15.1134   24.1948 N   0  0  0  0  0  0  0  0  0  0  0  0
    8.3527   15.0475   23.2787 C   0  0  0  0  0  0  0  0  0  0  0  0
    8.2177   15.4052   22.1658 O   0  0  0  0  0  0  0  0  0  0  0  0
    7.2771   14.3023   24.0306 C   0  0  2  0  0  0  0  0  0  0  0  0
    6.8700   13.1882   23.1027 C   0  0  0  0  0  0  0  0  0  0  0  0
    5.7821   15.1658   24.4655 S   0  0  0  0  0  0  0  0  0  0  0  0
    6.3185   16.3432   25.6480 C   0  0  0  0  0  0  0  0  0  0  0  0
    7.4542   16.2568   26.4397 C   0  0  0  0  0  0  0  0  0  0  0  0
    7.7793   17.3312   27.2588 C   0  0  0  0  0  0  0  0  0  0  0  0
    6.9393   18.4404   27.2918 C   0  0  0  0  0  0  0  0  0  0  0  0
    7.4617   19.9010   28.3583 Br  0  0  0  0  0  0  0  0  0  0  0  0
    5.7726   18.4088   26.5422 C   0  0  0  0  0  0  0  0  0  0  0  0
    4.4303   19.7520   26.6900 Br  0  0  0  0  0  0  0  0  0  0  0  0
    5.4639   17.3768   25.7360 N   0  0  0  0  0  0  0  0  0  0  0  0
  1  2  1  0
  2  3  1  0
  3  4  1  0
  4  5  2  0
  6  4  1  6
  6  7  1  0
  8  7  1  1
  8  9  1  0
  9 10  1  0
 10 11  1  0
 11 12  1  0
 12 13  2  0
 12 14  1  0
 14 15  1  6
 14 16  1  0
 16 17  1  0
 17 18  2  0
 18 19  1  0
 19 20  2  0
 20 21  1  0
 20 22  1  0
 22 23  1  0
 22 24  2  0
  8  6  1  0
 24 17  1  0
 11  6  1  0
M  END
>  <distance_score>  (401) 
1.835822

>  <smiles>  (401) 
CCOC(=O)C12CC1CCN2C(=O)C(C)Sc1ccc(Br)c(Br)n1

>  <fragmenstein_error>  (401) 


>  <fragmenstein_runtime>  (401) 
5.397078

>  <gnina_score_min>  (401) 
5.208

>  <orig_smiles>  (401) 
CCOC(=O)C12CC1CCN2C(=O)C(C)Sc1ccc(Br)c(Br)n1

>  <fragmenstein_mode>  (401) 
expansion

>  <rmsd(smina/fragmenstein)>  (401) 
2.467

>  <inspiration_score>  (401) 
None

>  <name>  (401) 
SAKFRBDFRWFMPD-UHFFFAOYSA-N-P338-P124-P338-601511

>  <ref_pdb>  (401) 
A0528a

>  <ref_mols>  (401) 
A4237a,A1778a

>  <subsites>  (401) 
None

>  <tags>  (401) 
openbind_a71ev2a_c1_elabs_filtered,fragmenstein_placed,a71ev2a_c1_elab_bulkdock_input,openbind_a71ev2a_c1_elab_chemspace_filtered_scored

>  <inchikey>  (401) 
SAKFRBDFRWFMPD-UHFFFAOYSA-N

>  <scratch_subdir>  (401) 
/opt/xchem-fragalysis-2/maxwin/BulkDock/SCRATCH/601511/SAKFRBDFRWFMPD-UHFFFAOYSA-N-P338-P124-P338-601511

>  <smina_score_min>  (401) 
-4.608

>  <energy_score>  (401) 
-6.625058

>  <Energy>  (401) 
167.046446

>  <fragmenstein_outcome>  (401) 
too moved

>  <alias>  (401) 
SAKFRBDFRWFMPD-UHFFFAOYSA-N-P338-P124-P338-601511

>  <HIPPO Pose ID>  (401) 
519817

>  <exports>  (401) 
['/opt/xchem-fragalysis-2/maxwin/openbind-hippo/a71ev2a/cycle_01/bulkdock/openbind_a71ev2a_c1_elab_chemspace.sdf', '/opt/xchem-fragalysis-2/maxwin/openbind-hippo/a71ev2a/cycle_01/syndirella/elabs/openbind_a71ev2a_c1_elab_chemspace_filtered.sdf']

>  <HIPPO Compound ID>  (401) 
291581

>  <gnina_score>  (401) 
4.777

$$$$
CBPLCNSZQNSFLL-UHFFFAOYSA-N-P338-P124-P338-601511
     RDKit          3D

 25 27  0  0  0  0  0  0  0  0999 V2000
    9.9662   15.5094   19.2517 C   0  0  0  0  0  0  0  0  0  0  0  0
    9.3740   15.4336   20.5544 O   0  0  0  0  0  0  0  0  0  0  0  0
   10.2629   15.0775   21.5168 C   0  0  0  0  0  0  0  0  0  0  0  0
   11.4057   14.6914   21.2895 O   0  0  0  0  0  0  0  0  0  0  0  0
    9.6975   15.3236   22.9529 C   0  0  2  0  0  0  0  0  0  0  0  0
   10.8470   15.8872   23.7584 C   0  0  0  0  0  0  0  0  0  0  0  0
   11.4769   14.6215   24.2507 C   0  0  0  0  0  0  0  0  0  0  0  0
   10.3961   13.5908   23.9555 C   0  0  0  0  0  0  0  0  0  0  0  0
   10.5360   12.5121   22.8496 C   0  0  0  0  0  0  0  0  0  0  0  0
   10.0866   11.4237   23.8310 C   0  0  0  0  0  0  0  0  0  0  0  0
   10.5094   12.3749   24.9531 C   0  0  0  0  0  0  0  0  0  0  0  0
    8.9051   14.3689   23.9813 N   0  0  0  0  0  0  0  0  0  0  0  0
    7.7636   13.3870   23.7452 C   0  0  0  0  0  0  0  0  0  0  0  0
    7.2505   13.0411   22.7415 O   0  0  0  0  0  0  0  0  0  0  0  0
    7.3055   12.9730   25.1628 C   0  0  2  0  0  0  0  0  0  0  0  0
    7.0658   11.4766   25.2968 C   0  0  0  0  0  0  0  0  0  0  0  0
    5.7863   13.8637   25.5884 S   0  0  0  0  0  0  0  0  0  0  0  0
    6.3738   15.4586   26.0944 C   0  0  0  0  0  0  0  0  0  0  0  0
    7.5334   15.6737   26.8299 C   0  0  0  0  0  0  0  0  0  0  0  0
    7.8049   16.9517   27.3122 C   0  0  0  0  0  0  0  0  0  0  0  0
    6.8922   17.9763   27.0855 C   0  0  0  0  0  0  0  0  0  0  0  0
    7.2335   19.6459   27.8980 Br  0  0  0  0  0  0  0  0  0  0  0  0
    5.7540   17.6844   26.3458 C   0  0  0  0  0  0  0  0  0  0  0  0
    4.3418   18.9399   26.1447 Br  0  0  0  0  0  0  0  0  0  0  0  0
    5.5021   16.4532   25.8425 N   0  0  0  0  0  0  0  0  0  0  0  0
  1  2  1  0
  2  3  1  0
  3  4  2  0
  5  3  1  6
  5  6  1  0
  6  7  1  0
  7  8  1  0
  8  9  1  0
  9 10  1  0
 10 11  1  0
  8 12  1  0
 12 13  1  0
 13 14  2  0
 13 15  1  0
 15 16  1  6
 15 17  1  0
 17 18  1  0
 18 19  2  0
 19 20  1  0
 20 21  2  0
 21 22  1  0
 21 23  1  0
 23 24  1  0
 23 25  2  0
 12  5  1  0
 25 18  1  0
 11  8  1  0
M  END
>  <distance_score>  (402) 
1.810445

>  <smiles>  (402) 
COC(=O)C1CCC2(CCC2)N1C(=O)C(C)Sc1ccc(Br)c(Br)n1

>  <fragmenstein_error>  (402) 


>  <fragmenstein_runtime>  (402) 
6.79764

>  <gnina_score_min>  (402) 
5.501

>  <orig_smiles>  (402) 
COC(=O)C1CCC2(CCC2)N1C(=O)C(C)Sc1ccc(Br)c(Br)n1

>  <fragmenstein_mode>  (402) 
expansion

>  <rmsd(smina/fragmenstein)>  (402) 
1.758

>  <inspiration_score>  (402) 
None

>  <name>  (402) 
CBPLCNSZQNSFLL-UHFFFAOYSA-N-P338-P124-P338-601511

>  <ref_pdb>  (402) 
A0528a

>  <ref_mols>  (402) 
A4237a,A1778a

>  <subsites>  (402) 
None

>  <tags>  (402) 
openbind_a71ev2a_c1_elabs_filtered,fragmenstein_placed,a71ev2a_c1_elab_bulkdock_input,openbind_a71ev2a_c1_elab_chemspace_filtered_scored

>  <inchikey>  (402) 
CBPLCNSZQNSFLL-UHFFFAOYSA-N

>  <scratch_subdir>  (402) 
/opt/xchem-fragalysis-2/maxwin/BulkDock/SCRATCH/601511/CBPLCNSZQNSFLL-UHFFFAOYSA-N-P338-P124-P338-601511

>  <smina_score_min>  (402) 
-3.626

>  <energy_score>  (402) 
-3.68695

>  <Energy>  (402) 
162.367561

>  <fragmenstein_outcome>  (402) 
too moved

>  <alias>  (402) 
CBPLCNSZQNSFLL-UHFFFAOYSA-N-P338-P124-P338-601511

>  <HIPPO Pose ID>  (402) 
519835

>  <exports>  (402) 
['/opt/xchem-fragalysis-2/maxwin/openbind-hippo/a71ev2a/cycle_01/bulkdock/openbind_a71ev2a_c1_elab_chemspace.sdf', '/opt/xchem-fragalysis-2/maxwin/openbind-hippo/a71ev2a/cycle_01/syndirella/elabs/openbind_a71ev2a_c1_elab_chemspace_filtered.sdf']

>  <HIPPO Compound ID>  (402) 
291594

>  <gnina_score>  (402) 
5.334

$$$$
LPNKNLFUSXKKMV-UHFFFAOYSA-N-P77-P77-P183-601513
     RDKit          3D

 26 28  0  0  0  0  0  0  0  0999 V2000
    9.3038   14.0507   20.9355 O   0  0  0  0  0  0  0  0  0  0  0  0
   10.4404   14.3060   20.9356 C   0  0  0  0  0  0  0  0  0  0  0  0
   11.5662   13.8411   21.8748 N   0  0  0  0  0  0  0  0  0  0  0  0
   11.5169   13.0576   23.0417 C   0  0  0  0  0  0  0  0  0  0  0  0
   10.3460   12.0394   22.9033 C   0  0  0  0  0  0  0  0  0  0  0  0
   10.0232   11.3474   24.1173 N   0  0  0  0  0  0  0  0  0  0  0  0
    8.8041   10.5268   24.1340 C   0  0  0  0  0  0  0  0  0  0  0  0
    7.6294   11.1554   24.9335 C   0  0  0  0  0  0  0  0  0  0  0  0
    7.5417   12.6572   24.6529 C   0  0  0  0  0  0  0  0  0  0  0  0
    6.4366   13.2489   25.4116 N   0  0  0  0  0  0  0  0  0  0  0  0
    5.9292   14.7737   24.8925 S   0  0  0  0  0  0  0  0  0  0  0  0
    4.6213   14.9673   25.4799 O   0  0  0  0  0  0  0  0  0  0  0  0
    7.0196   15.6786   25.1819 O   0  0  0  0  0  0  0  0  0  0  0  0
    5.7109   14.6174   23.1129 C   0  0  0  0  0  0  0  0  0  0  0  0
    6.8540   15.0864   22.2547 C   0  0  0  0  0  0  0  0  0  0  0  0
    5.6302   15.9293   22.4319 C   0  0  0  0  0  0  0  0  0  0  0  0
    8.8325   13.3717   24.9987 C   0  0  0  0  0  0  0  0  0  0  0  0
    9.9174   12.3428   25.1318 C   0  0  0  0  0  0  0  0  0  0  0  0
   11.0554   15.1942   19.8803 C   0  0  1  0  0  0  0  0  0  0  0  0
   11.1164   14.5898   18.6598 F   0  0  0  0  0  0  0  0  0  0  0  0
   10.2478   16.3873   19.9141 N   0  0  0  0  0  0  0  0  0  0  0  0
    9.7275   17.0826   18.8804 C   0  0  0  0  0  0  0  0  0  0  0  0
    9.1066   18.1555   19.4655 C   0  0  0  0  0  0  0  0  0  0  0  0
    8.0302   19.4680   18.7013 Br  0  0  0  0  0  0  0  0  0  0  0  0
    9.2292   17.9886   20.8375 C   0  0  0  0  0  0  0  0  0  0  0  0
   10.0087   16.9502   21.1240 N   0  0  0  0  0  0  0  0  0  0  0  0
  1  2  2  0
  2  3  1  0
  3  4  1  0
  4  5  1  0
  5  6  1  0
  6  7  1  0
  7  8  1  0
  8  9  1  0
  9 10  1  0
 10 11  1  0
 11 12  2  0
 11 13  2  0
 11 14  1  0
 14 15  1  0
 15 16  1  0
  9 17  1  0
 17 18  1  0
  2 19  1  0
 19 20  1  6
 19 21  1  0
 21 22  1  0
 22 23  2  0
 23 24  1  0
 23 25  1  0
 25 26  2  0
 18  6  1  0
 26 21  1  0
 16 14  1  0
M  END
>  <distance_score>  (403) 
1.640438

>  <smiles>  (403) 
O=C(NCCN1CCC(NS(=O)(=O)C2CC2)CC1)C(F)n1cc(Br)cn1

>  <fragmenstein_error>  (403) 


>  <fragmenstein_runtime>  (403) 
23.794696

>  <gnina_score_min>  (403) 
4.94

>  <orig_smiles>  (403) 
O=C(NCCN1CCC(NS(=O)(=O)C2CC2)CC1)C(F)n1cc(Br)cn1

>  <fragmenstein_mode>  (403) 
expansion

>  <rmsd(smina/fragmenstein)>  (403) 
3.656

>  <inspiration_score>  (403) 
None

>  <name>  (403) 
LPNKNLFUSXKKMV-UHFFFAOYSA-N-P77-P77-P183-601513

>  <ref_pdb>  (403) 
A1068a

>  <ref_mols>  (403) 
A0719a,A3436a

>  <subsites>  (403) 
None

>  <tags>  (403) 
openbind_a71ev2a_c1_elabs_filtered,fragmenstein_placed,a71ev2a_c1_elab_bulkdock_input,openbind_a71ev2a_c1_elab_chemspace_filtered_scored

>  <inchikey>  (403) 
LPNKNLFUSXKKMV-UHFFFAOYSA-N

>  <scratch_subdir>  (403) 
/opt/xchem-fragalysis-2/maxwin/BulkDock/SCRATCH/601513/LPNKNLFUSXKKMV-UHFFFAOYSA-N-P77-P77-P183-601513

>  <smina_score_min>  (403) 
10.468

>  <energy_score>  (403) 
-12.573728

>  <Energy>  (403) 
95.487946

>  <fragmenstein_outcome>  (403) 
too moved

>  <alias>  (403) 
LPNKNLFUSXKKMV-UHFFFAOYSA-N-P77-P77-P183-601513

>  <HIPPO Pose ID>  (403) 
523088

>  <exports>  (403) 
['/opt/xchem-fragalysis-2/maxwin/openbind-hippo/a71ev2a/cycle_01/bulkdock/openbind_a71ev2a_c1_elab_chemspace.sdf', '/opt/xchem-fragalysis-2/maxwin/openbind-hippo/a71ev2a/cycle_01/syndirella/elabs/openbind_a71ev2a_c1_elab_chemspace_filtered.sdf']

>  <HIPPO Compound ID>  (403) 
289510

>  <gnina_score>  (403) 
2.835

$$$$
SUKIVTSFFLWGSW-UHFFFAOYSA-N-P248-P135-P248-601519
     RDKit          3D

 21 22  0  0  0  0  0  0  0  0999 V2000
    9.0478   16.3248   21.0498 C   0  0  0  0  0  0  0  0  0  0  0  0
   10.2224   15.6556   20.5868 N   0  0  0  0  0  0  0  0  0  0  0  0
   10.4233   15.4669   19.2236 C   0  0  0  0  0  0  0  0  0  0  0  0
    9.6007   15.6460   18.3453 O   0  0  0  0  0  0  0  0  0  0  0  0
   11.8389   15.0882   18.9793 C   0  0  2  0  0  0  0  0  0  0  0  0
   12.0115   13.8562   18.4543 F   0  0  0  0  0  0  0  0  0  0  0  0
   12.4281   15.0710   20.3605 C   0  0  0  0  0  0  0  0  0  0  0  0
   11.4814   15.8094   21.2587 C   0  0  2  0  0  0  0  0  0  0  0  0
   11.6500   15.3054   22.6716 C   0  0  0  0  0  0  0  0  0  0  0  0
   11.7440   16.0266   23.6578 O   0  0  0  0  0  0  0  0  0  0  0  0
   11.7486   13.9646   22.7760 O   0  0  0  0  0  0  0  0  0  0  0  0
   10.5516   13.2445   22.4626 C   0  0  0  0  0  0  0  0  0  0  0  0
    9.6780   13.1704   23.6984 C   0  0  0  0  0  0  0  0  0  0  0  0
    8.7881   14.4170   23.8353 C   0  0  0  0  0  0  0  0  0  0  0  0
   10.5380   13.1871   24.9569 C   0  0  0  0  0  0  0  0  0  0  0  0
    8.8583   11.9606   23.6699 N   0  0  0  0  0  0  0  0  0  0  0  0
    7.6160   11.9110   24.2047 C   0  0  0  0  0  0  0  0  0  0  0  0
    7.5600   10.6902   24.7915 C   0  0  0  0  0  0  0  0  0  0  0  0
    6.2344   10.4347   26.2611 I   0  0  0  0  0  0  0  0  0  0  0  0
    8.5688    9.9344   24.1887 C   0  0  0  0  0  0  0  0  0  0  0  0
    9.3862   10.7312   23.4814 N   0  0  0  0  0  0  0  0  0  0  0  0
  1  2  1  0
  2  3  1  0
  3  4  2  0
  3  5  1  0
  5  6  1  1
  5  7  1  0
  7  8  1  0
  8  9  1  1
  9 10  2  0
  9 11  1  0
 11 12  1  0
 12 13  1  0
 13 14  1  0
 13 15  1  0
 13 16  1  0
 16 17  1  0
 17 18  2  0
 18 19  1  0
 18 20  1  0
 20 21  2  0
  8  2  1  0
 21 16  1  0
M  END
>  <distance_score>  (404) 
1.633969

>  <smiles>  (404) 
CN1C(=O)C(F)CC1C(=O)OCC(C)(C)n1cc(I)cn1

>  <fragmenstein_error>  (404) 


>  <fragmenstein_runtime>  (404) 
14.873335

>  <gnina_score_min>  (404) 
4.89

>  <orig_smiles>  (404) 
CN1C(=O)C(F)CC1C(=O)OCC(C)(C)n1cc(I)cn1

>  <fragmenstein_mode>  (404) 
expansion

>  <rmsd(smina/fragmenstein)>  (404) 
3.842

>  <inspiration_score>  (404) 
None

>  <name>  (404) 
SUKIVTSFFLWGSW-UHFFFAOYSA-N-P248-P135-P248-601519

>  <ref_pdb>  (404) 
A0239a

>  <ref_mols>  (404) 
A3956a,A2629a

>  <subsites>  (404) 
None

>  <tags>  (404) 
openbind_a71ev2a_c1_elabs_filtered,fragmenstein_placed,a71ev2a_c1_elab_bulkdock_input,openbind_a71ev2a_c1_elab_chemspace_filtered_scored

>  <inchikey>  (404) 
SUKIVTSFFLWGSW-UHFFFAOYSA-N

>  <scratch_subdir>  (404) 
/opt/xchem-fragalysis-2/maxwin/BulkDock/SCRATCH/601519/SUKIVTSFFLWGSW-UHFFFAOYSA-N-P248-P135-P248-601519

>  <smina_score_min>  (404) 
-1.048

>  <energy_score>  (404) 
-6.302357

>  <Energy>  (404) 
99.654667

>  <fragmenstein_outcome>  (404) 
too moved

>  <alias>  (404) 
SUKIVTSFFLWGSW-UHFFFAOYSA-N-P248-P135-P248-601519

>  <HIPPO Pose ID>  (404) 
534234

>  <exports>  (404) 
['/opt/xchem-fragalysis-2/maxwin/openbind-hippo/a71ev2a/cycle_01/bulkdock/openbind_a71ev2a_c1_elab_chemspace.sdf', '/opt/xchem-fragalysis-2/maxwin/openbind-hippo/a71ev2a/cycle_01/syndirella/elabs/openbind_a71ev2a_c1_elab_chemspace_filtered.sdf']

>  <HIPPO Compound ID>  (404) 
291927

>  <gnina_score>  (404) 
2.673

$$$$
WZUAYRVKHOPKOE-UHFFFAOYSA-N-P135-P135-P248-601519
     RDKit          3D

 21 23  0  0  0  0  0  0  0  0999 V2000
   11.9266   15.8327   17.6271 C   0  0  0  0  0  0  0  0  0  0  0  0
   12.6085   14.9564   18.6482 C   0  0  0  0  0  0  0  0  0  0  0  0
   11.8214   13.7909   19.1028 C   0  0  0  0  0  0  0  0  0  0  0  0
   13.2222   15.6676   19.7126 N   0  0  0  0  0  0  0  0  0  0  0  0
   14.1412   16.6220   19.2830 C   0  0  0  0  0  0  0  0  0  0  0  0
   14.6206   16.7038   18.1616 O   0  0  0  0  0  0  0  0  0  0  0  0
   14.2884   17.6581   20.3359 C   0  0  0  0  0  0  0  0  0  0  0  0
   13.5339   17.0462   21.4832 C   0  0  0  0  0  0  0  0  0  0  0  0
   12.5111   16.1258   20.8723 C   0  0  2  0  0  0  0  0  0  0  0  0
   11.8172   15.2613   21.9736 C   0  0  0  0  0  0  0  0  0  0  0  0
   11.1121   15.7902   22.8262 O   0  0  0  0  0  0  0  0  0  0  0  0
   12.0086   13.9170   21.9692 O   0  0  0  0  0  0  0  0  0  0  0  0
   11.6829   13.1809   23.1922 C   0  0  0  0  0  0  0  0  0  0  0  0
   10.2202   12.7874   23.4806 C   0  0  0  0  0  0  0  0  0  0  0  0
    9.9762   11.3334   23.7811 N   0  0  0  0  0  0  0  0  0  0  0  0
   10.1988   10.3382   22.8837 C   0  0  0  0  0  0  0  0  0  0  0  0
    9.4727    9.2551   23.2991 C   0  0  0  0  0  0  0  0  0  0  0  0
    8.7878    9.7278   24.4287 C   0  0  0  0  0  0  0  0  0  0  0  0
    9.1397   10.9642   24.7746 N   0  0  0  0  0  0  0  0  0  0  0  0
    9.4501   13.8206   24.3131 C   0  0  0  0  0  0  0  0  0  0  0  0
    9.0132   13.5295   22.9248 C   0  0  0  0  0  0  0  0  0  0  0  0
  1  2  1  0
  2  3  1  0
  2  4  1  0
  4  5  1  0
  5  6  2  0
  5  7  1  0
  7  8  1  0
  8  9  1  0
  9 10  1  1
 10 11  2  0
 10 12  1  0
 12 13  1  0
 13 14  1  0
 14 15  1  0
 15 16  1  0
 16 17  2  0
 17 18  1  0
 18 19  2  0
 14 20  1  0
 20 21  1  0
  9  4  1  0
 21 14  1  0
 19 15  1  0
M  END
>  <distance_score>  (405) 
1.751753

>  <smiles>  (405) 
CC(C)N1C(=O)CCC1C(=O)OCC1(n2cccn2)CC1

>  <fragmenstein_error>  (405) 


>  <fragmenstein_runtime>  (405) 
9.405869

>  <gnina_score_min>  (405) 
4.964

>  <orig_smiles>  (405) 
CC(C)N1C(=O)CCC1C(=O)OCC1(n2cccn2)CC1

>  <fragmenstein_mode>  (405) 
expansion

>  <rmsd(smina/fragmenstein)>  (405) 
4.578

>  <inspiration_score>  (405) 
None

>  <name>  (405) 
WZUAYRVKHOPKOE-UHFFFAOYSA-N-P135-P135-P248-601519

>  <ref_pdb>  (405) 
A0239a

>  <ref_mols>  (405) 
A3956a,A2629a

>  <subsites>  (405) 
None

>  <tags>  (405) 
openbind_a71ev2a_c1_elabs_filtered,fragmenstein_placed,a71ev2a_c1_elab_bulkdock_input,openbind_a71ev2a_c1_elab_chemspace_filtered_scored

>  <inchikey>  (405) 
WZUAYRVKHOPKOE-UHFFFAOYSA-N

>  <scratch_subdir>  (405) 
/opt/xchem-fragalysis-2/maxwin/BulkDock/SCRATCH/601519/WZUAYRVKHOPKOE-UHFFFAOYSA-N-P135-P135-P248-601519

>  <smina_score_min>  (405) 
6.6

>  <energy_score>  (405) 
-10.135284

>  <Energy>  (405) 
64.72055

>  <fragmenstein_outcome>  (405) 
too moved

>  <alias>  (405) 
WZUAYRVKHOPKOE-UHFFFAOYSA-N-P135-P135-P248-601519

>  <HIPPO Pose ID>  (405) 
534243

>  <exports>  (405) 
['/opt/xchem-fragalysis-2/maxwin/openbind-hippo/a71ev2a/cycle_01/bulkdock/openbind_a71ev2a_c1_elab_chemspace.sdf', '/opt/xchem-fragalysis-2/maxwin/openbind-hippo/a71ev2a/cycle_01/syndirella/elabs/openbind_a71ev2a_c1_elab_chemspace_filtered.sdf']

>  <HIPPO Compound ID>  (405) 
291932

>  <gnina_score>  (405) 
1.943

$$$$
IWRSJYUNVXHDNX-UHFFFAOYSA-N-P248-P135-P248-601519
     RDKit          3D

 22 25  0  0  0  0  0  0  0  0999 V2000
   10.7817   12.4623   24.3178 O   0  0  0  0  0  0  0  0  0  0  0  0
    9.9088   12.4521   23.4576 C   0  0  0  0  0  0  0  0  0  0  0  0
   10.1122   12.7662   22.1459 O   0  0  0  0  0  0  0  0  0  0  0  0
   11.4026   13.2943   21.7401 C   0  0  0  0  0  0  0  0  0  0  0  0
   11.2479   14.6105   20.9952 C   0  0  0  0  0  0  0  0  0  0  0  0
   10.7836   15.6107   21.9556 N   0  0  0  0  0  0  0  0  0  0  0  0
   11.6354   15.8487   23.0012 C   0  0  0  0  0  0  0  0  0  0  0  0
   10.8880   15.5381   24.0976 C   0  0  0  0  0  0  0  0  0  0  0  0
   11.4355   15.3779   25.8614 Br  0  0  0  0  0  0  0  0  0  0  0  0
    9.5682   15.4370   23.6305 C   0  0  0  0  0  0  0  0  0  0  0  0
    9.4894   15.5560   22.3062 N   0  0  0  0  0  0  0  0  0  0  0  0
   10.9754   14.8753   19.5147 C   0  0  0  0  0  0  0  0  0  0  0  0
   12.3570   14.9507   20.0422 C   0  0  0  0  0  0  0  0  0  0  0  0
    8.4258   12.1028   23.7291 C   0  0  2  0  0  0  0  0  0  0  0  0
    7.7863   12.9788   24.8060 C   0  0  0  0  0  0  0  0  0  0  0  0
    6.8130   12.0995   25.5702 C   0  0  0  0  0  0  0  0  0  0  0  0
    7.2762   10.7114   25.2634 C   0  0  0  0  0  0  0  0  0  0  0  0
    6.9121    9.7240   25.8794 O   0  0  0  0  0  0  0  0  0  0  0  0
    8.1921   10.7617   24.2195 N   0  0  0  0  0  0  0  0  0  0  0  0
    9.1164    9.7153   23.9738 C   0  0  0  0  0  0  0  0  0  0  0  0
    8.7390    8.4547   23.2956 C   0  0  0  0  0  0  0  0  0  0  0  0
    9.6939    9.3648   22.6504 C   0  0  0  0  0  0  0  0  0  0  0  0
  1  2  2  0
  2  3  1  0
  3  4  1  0
  4  5  1  0
  5  6  1  0
  6  7  1  0
  7  8  2  0
  8  9  1  0
  8 10  1  0
 10 11  2  0
  5 12  1  0
 12 13  1  0
 14  2  1  1
 14 15  1  0
 15 16  1  0
 16 17  1  0
 17 18  2  0
 17 19  1  0
 19 20  1  0
 20 21  1  0
 21 22  1  0
 13  5  1  0
 19 14  1  0
 22 20  1  0
 11  6  1  0
M  END
>  <distance_score>  (406) 
1.788157

>  <smiles>  (406) 
O=C(OCC1(n2cc(Br)cn2)CC1)C1CCC(=O)N1C1CC1

>  <fragmenstein_error>  (406) 


>  <fragmenstein_runtime>  (406) 
6.042378

>  <gnina_score_min>  (406) 
5.023

>  <orig_smiles>  (406) 
O=C(OCC1(n2cc(Br)cn2)CC1)C1CCC(=O)N1C1CC1

>  <fragmenstein_mode>  (406) 
expansion

>  <rmsd(smina/fragmenstein)>  (406) 
3.436

>  <inspiration_score>  (406) 
None

>  <name>  (406) 
IWRSJYUNVXHDNX-UHFFFAOYSA-N-P248-P135-P248-601519

>  <ref_pdb>  (406) 
A0239a

>  <ref_mols>  (406) 
A3956a,A2629a

>  <subsites>  (406) 
None

>  <tags>  (406) 
openbind_a71ev2a_c1_elabs_filtered,fragmenstein_placed,a71ev2a_c1_elab_bulkdock_input,openbind_a71ev2a_c1_elab_chemspace_filtered_scored

>  <inchikey>  (406) 
IWRSJYUNVXHDNX-UHFFFAOYSA-N

>  <scratch_subdir>  (406) 
/opt/xchem-fragalysis-2/maxwin/BulkDock/SCRATCH/601519/IWRSJYUNVXHDNX-UHFFFAOYSA-N-P248-P135-P248-601519

>  <smina_score_min>  (406) 
8.169

>  <energy_score>  (406) 
-2.580235

>  <Energy>  (406) 
79.22025

>  <fragmenstein_outcome>  (406) 
too moved

>  <alias>  (406) 
IWRSJYUNVXHDNX-UHFFFAOYSA-N-P248-P135-P248-601519

>  <HIPPO Pose ID>  (406) 
534254

>  <exports>  (406) 
['/opt/xchem-fragalysis-2/maxwin/openbind-hippo/a71ev2a/cycle_01/bulkdock/openbind_a71ev2a_c1_elab_chemspace.sdf', '/opt/xchem-fragalysis-2/maxwin/openbind-hippo/a71ev2a/cycle_01/syndirella/elabs/openbind_a71ev2a_c1_elab_chemspace_filtered.sdf']

>  <HIPPO Compound ID>  (406) 
291937

>  <gnina_score>  (406) 
2.564

$$$$
NXPYRYGQBYSGQH-UHFFFAOYSA-N-P248-P135-P248-601519
     RDKit          3D

 22 25  0  0  0  0  0  0  0  0999 V2000
    9.7765   13.4596   25.2623 O   0  0  0  0  0  0  0  0  0  0  0  0
    9.3096   13.1274   24.1819 C   0  0  0  0  0  0  0  0  0  0  0  0
    9.9696   13.1990   22.9862 O   0  0  0  0  0  0  0  0  0  0  0  0
   11.1298   14.0532   22.9021 C   0  0  0  0  0  0  0  0  0  0  0  0
   11.1625   14.7879   21.5630 C   0  0  0  0  0  0  0  0  0  0  0  0
    9.9304   15.5418   21.2895 N   0  0  0  0  0  0  0  0  0  0  0  0
    8.6645   15.0427   21.3452 C   0  0  0  0  0  0  0  0  0  0  0  0
    7.8627   16.1418   21.5067 C   0  0  0  0  0  0  0  0  0  0  0  0
    8.7006   17.2157   21.1518 C   0  0  0  0  0  0  0  0  0  0  0  0
    9.9481   16.8260   20.9264 N   0  0  0  0  0  0  0  0  0  0  0  0
   11.6708   14.1743   20.2547 C   0  0  0  0  0  0  0  0  0  0  0  0
   12.4520   15.3584   20.0061 N   0  0  0  0  0  0  0  0  0  0  0  0
   12.3981   15.7029   21.4336 C   0  0  0  0  0  0  0  0  0  0  0  0
    7.8790   12.6096   23.9431 C   0  0  2  0  0  0  0  0  0  0  0  0
    6.8681   13.6215   24.4652 C   0  0  0  0  0  0  0  0  0  0  0  0
    6.3054   13.0156   25.7398 C   0  0  0  0  0  0  0  0  0  0  0  0
    6.6629   11.5606   25.6610 C   0  0  0  0  0  0  0  0  0  0  0  0
    6.3405   10.7303   26.4996 O   0  0  0  0  0  0  0  0  0  0  0  0
    7.5076   11.3567   24.5636 N   0  0  0  0  0  0  0  0  0  0  0  0
    8.4097   10.2622   24.5819 C   0  0  0  0  0  0  0  0  0  0  0  0
    8.3942    9.0306   23.7501 C   0  0  0  0  0  0  0  0  0  0  0  0
    9.4724   10.0272   23.5508 C   0  0  0  0  0  0  0  0  0  0  0  0
  1  2  2  0
  2  3  1  0
  3  4  1  0
  4  5  1  0
  5  6  1  0
  6  7  1  0
  7  8  2  0
  8  9  1  0
  9 10  2  0
  5 11  1  0
 11 12  1  0
 12 13  1  0
 14  2  1  1
 14 15  1  0
 15 16  1  0
 16 17  1  0
 17 18  2  0
 17 19  1  0
 19 20  1  0
 20 21  1  0
 21 22  1  0
 13  5  1  0
 19 14  1  0
 22 20  1  0
 10  6  1  0
M  END
>  <distance_score>  (407) 
1.978244

>  <smiles>  (407) 
O=C(OCC1(n2cccn2)CNC1)C1CCC(=O)N1C1CC1

>  <fragmenstein_error>  (407) 


>  <fragmenstein_runtime>  (407) 
5.953623

>  <gnina_score_min>  (407) 
4.907

>  <orig_smiles>  (407) 
O=C(OCC1(n2cccn2)CNC1)C1CCC(=O)N1C1CC1

>  <fragmenstein_mode>  (407) 
expansion

>  <rmsd(smina/fragmenstein)>  (407) 
3.938

>  <inspiration_score>  (407) 
None

>  <name>  (407) 
NXPYRYGQBYSGQH-UHFFFAOYSA-N-P248-P135-P248-601519

>  <ref_pdb>  (407) 
A0239a

>  <ref_mols>  (407) 
A3956a,A2629a

>  <subsites>  (407) 
None

>  <tags>  (407) 
openbind_a71ev2a_c1_elabs_filtered,fragmenstein_placed,a71ev2a_c1_elab_bulkdock_input,openbind_a71ev2a_c1_elab_chemspace_filtered_scored

>  <inchikey>  (407) 
NXPYRYGQBYSGQH-UHFFFAOYSA-N

>  <scratch_subdir>  (407) 
/opt/xchem-fragalysis-2/maxwin/BulkDock/SCRATCH/601519/NXPYRYGQBYSGQH-UHFFFAOYSA-N-P248-P135-P248-601519

>  <smina_score_min>  (407) 
2.775

>  <energy_score>  (407) 
-24.387824

>  <Energy>  (407) 
51.478797

>  <fragmenstein_outcome>  (407) 
too moved

>  <alias>  (407) 
NXPYRYGQBYSGQH-UHFFFAOYSA-N-P248-P135-P248-601519

>  <HIPPO Pose ID>  (407) 
534256

>  <exports>  (407) 
['/opt/xchem-fragalysis-2/maxwin/openbind-hippo/a71ev2a/cycle_01/bulkdock/openbind_a71ev2a_c1_elab_chemspace.sdf', '/opt/xchem-fragalysis-2/maxwin/openbind-hippo/a71ev2a/cycle_01/syndirella/elabs/openbind_a71ev2a_c1_elab_chemspace_filtered.sdf']

>  <HIPPO Compound ID>  (407) 
291938

>  <gnina_score>  (407) 
3.083

$$$$
JOHUJKPJURWJPF-UHFFFAOYSA-N-P248-P135-P248-601519
     RDKit          3D

 22 24  0  0  0  0  0  0  0  0999 V2000
   11.8995   14.2183   20.1791 C   0  0  0  0  0  0  0  0  0  0  0  0
   10.7371   15.0965   20.6727 C   0  0  0  0  0  0  0  0  0  0  0  0
   10.5560   16.0994   19.5231 C   0  0  0  0  0  0  0  0  0  0  0  0
    9.3629   14.3406   20.7848 C   0  0  0  0  0  0  0  0  0  0  0  0
    8.5747   13.9992   21.9616 O   0  0  0  0  0  0  0  0  0  0  0  0
    8.9475   13.0490   22.8671 C   0  0  0  0  0  0  0  0  0  0  0  0
   10.0635   12.5646   22.9431 O   0  0  0  0  0  0  0  0  0  0  0  0
    7.7257   12.6966   23.7524 C   0  0  2  0  0  0  0  0  0  0  0  0
    7.5286   13.6392   24.9255 C   0  0  0  0  0  0  0  0  0  0  0  0
    6.3733   12.9969   25.6794 C   0  0  0  0  0  0  0  0  0  0  0  0
    6.6624   11.5327   25.4926 C   0  0  0  0  0  0  0  0  0  0  0  0
    6.3295   10.6615   26.2836 O   0  0  0  0  0  0  0  0  0  0  0  0
    7.4855   11.3798   24.3468 N   0  0  0  0  0  0  0  0  0  0  0  0
    8.4743   10.3607   24.4407 C   0  0  0  0  0  0  0  0  0  0  0  0
    8.3339    9.0037   23.8321 C   0  0  0  0  0  0  0  0  0  0  0  0
    9.4462    9.8839   23.4143 C   0  0  0  0  0  0  0  0  0  0  0  0
   11.0789   15.6879   21.9502 N   0  0  0  0  0  0  0  0  0  0  0  0
   12.2575   15.4804   22.6227 C   0  0  0  0  0  0  0  0  0  0  0  0
   11.8485   14.9687   23.8210 C   0  0  0  0  0  0  0  0  0  0  0  0
   12.8318   13.8186   25.1306 I   0  0  0  0  0  0  0  0  0  0  0  0
   10.5274   15.3421   23.9397 C   0  0  0  0  0  0  0  0  0  0  0  0
   10.0752   15.8810   22.8122 N   0  0  0  0  0  0  0  0  0  0  0  0
  1  2  1  0
  2  3  1  0
  2  4  1  0
  4  5  1  0
  5  6  1  0
  6  7  2  0
  8  6  1  1
  8  9  1  0
  9 10  1  0
 10 11  1  0
 11 12  2  0
 11 13  1  0
 13 14  1  0
 14 15  1  0
 15 16  1  0
  2 17  1  0
 17 18  1  0
 18 19  2  0
 19 20  1  0
 19 21  1  0
 21 22  2  0
 13  8  1  0
 16 14  1  0
 22 17  1  0
M  END
>  <distance_score>  (408) 
1.910432

>  <smiles>  (408) 
CC(C)(COC(=O)C1CCC(=O)N1C1CC1)n1cc(I)cn1

>  <fragmenstein_error>  (408) 


>  <fragmenstein_runtime>  (408) 
6.091432

>  <gnina_score_min>  (408) 
4.909

>  <orig_smiles>  (408) 
CC(C)(COC(=O)C1CCC(=O)N1C1CC1)n1cc(I)cn1

>  <fragmenstein_mode>  (408) 
expansion

>  <rmsd(smina/fragmenstein)>  (408) 
4.126

>  <inspiration_score>  (408) 
None

>  <name>  (408) 
JOHUJKPJURWJPF-UHFFFAOYSA-N-P248-P135-P248-601519

>  <ref_pdb>  (408) 
A0239a

>  <ref_mols>  (408) 
A3956a,A2629a

>  <subsites>  (408) 
None

>  <tags>  (408) 
openbind_a71ev2a_c1_elabs_filtered,fragmenstein_placed,a71ev2a_c1_elab_bulkdock_input,openbind_a71ev2a_c1_elab_chemspace_filtered_scored

>  <inchikey>  (408) 
JOHUJKPJURWJPF-UHFFFAOYSA-N

>  <scratch_subdir>  (408) 
/opt/xchem-fragalysis-2/maxwin/BulkDock/SCRATCH/601519/JOHUJKPJURWJPF-UHFFFAOYSA-N-P248-P135-P248-601519

>  <smina_score_min>  (408) 
6.657

>  <energy_score>  (408) 
-1.275621

>  <Energy>  (408) 
104.522256

>  <fragmenstein_outcome>  (408) 
too moved

>  <alias>  (408) 
JOHUJKPJURWJPF-UHFFFAOYSA-N-P248-P135-P248-601519

>  <HIPPO Pose ID>  (408) 
534258

>  <exports>  (408) 
['/opt/xchem-fragalysis-2/maxwin/openbind-hippo/a71ev2a/cycle_01/bulkdock/openbind_a71ev2a_c1_elab_chemspace.sdf', '/opt/xchem-fragalysis-2/maxwin/openbind-hippo/a71ev2a/cycle_01/syndirella/elabs/openbind_a71ev2a_c1_elab_chemspace_filtered.sdf']

>  <HIPPO Compound ID>  (408) 
291939

>  <gnina_score>  (408) 
3.021

$$$$
YWVHLSQJRJVXJR-UHFFFAOYSA-N-P135-P135-P248-601519
     RDKit          3D

 22 23  0  0  0  0  0  0  0  0999 V2000
   12.3129   16.6592   17.0119 C   0  0  0  0  0  0  0  0  0  0  0  0
   12.6873   15.8539   18.2632 C   0  0  0  0  0  0  0  0  0  0  0  0
   11.9438   14.5369   18.3148 C   0  0  0  0  0  0  0  0  0  0  0  0
   12.5200   16.5099   19.5413 N   0  0  0  0  0  0  0  0  0  0  0  0
   12.6898   17.8914   19.7242 C   0  0  0  0  0  0  0  0  0  0  0  0
   12.5704   18.7900   18.9066 O   0  0  0  0  0  0  0  0  0  0  0  0
   13.1192   18.1070   21.1340 C   0  0  0  0  0  0  0  0  0  0  0  0
   13.8899   16.8234   21.3437 C   0  0  0  0  0  0  0  0  0  0  0  0
   13.0245   15.7744   20.7009 C   0  0  1  0  0  0  0  0  0  0  0  0
   12.0758   15.1215   21.7483 C   0  0  0  0  0  0  0  0  0  0  0  0
   11.3846   15.7322   22.5454 O   0  0  0  0  0  0  0  0  0  0  0  0
   12.1321   13.7597   21.7008 O   0  0  0  0  0  0  0  0  0  0  0  0
   11.5044   12.8569   22.6700 C   0  0  0  0  0  0  0  0  0  0  0  0
   10.0667   13.0955   23.2133 C   0  0  0  0  0  0  0  0  0  0  0  0
   10.1709   13.9306   24.5013 C   0  0  0  0  0  0  0  0  0  0  0  0
    9.1439   13.7709   22.1992 C   0  0  0  0  0  0  0  0  0  0  0  0
    9.3464   11.8881   23.6541 N   0  0  0  0  0  0  0  0  0  0  0  0
    8.1343   11.9842   24.2800 C   0  0  0  0  0  0  0  0  0  0  0  0
    7.9879   10.8268   24.9638 C   0  0  0  0  0  0  0  0  0  0  0  0
    6.5515   10.7604   26.3815 I   0  0  0  0  0  0  0  0  0  0  0  0
    8.9538    9.9685   24.4121 C   0  0  0  0  0  0  0  0  0  0  0  0
    9.8256   10.6375   23.6377 N   0  0  0  0  0  0  0  0  0  0  0  0
  1  2  1  0
  2  3  1  0
  2  4  1  0
  4  5  1  0
  5  6  2  0
  5  7  1  0
  7  8  1  0
  8  9  1  0
  9 10  1  1
 10 11  2  0
 10 12  1  0
 12 13  1  0
 13 14  1  0
 14 15  1  0
 14 16  1  0
 14 17  1  0
 17 18  1  0
 18 19  2  0
 19 20  1  0
 19 21  1  0
 21 22  2  0
  9  4  1  0
 22 17  1  0
M  END
>  <distance_score>  (409) 
1.806703

>  <smiles>  (409) 
CC(C)N1C(=O)CCC1C(=O)OCC(C)(C)n1cc(I)cn1

>  <fragmenstein_error>  (409) 


>  <fragmenstein_runtime>  (409) 
8.439441

>  <gnina_score_min>  (409) 
4.947

>  <orig_smiles>  (409) 
CC(C)N1C(=O)CCC1C(=O)OCC(C)(C)n1cc(I)cn1

>  <fragmenstein_mode>  (409) 
expansion

>  <rmsd(smina/fragmenstein)>  (409) 
5.855

>  <inspiration_score>  (409) 
None

>  <name>  (409) 
YWVHLSQJRJVXJR-UHFFFAOYSA-N-P135-P135-P248-601519

>  <ref_pdb>  (409) 
A0239a

>  <ref_mols>  (409) 
A3956a,A2629a

>  <subsites>  (409) 
None

>  <tags>  (409) 
openbind_a71ev2a_c1_elabs_filtered,fragmenstein_placed,a71ev2a_c1_elab_bulkdock_input,openbind_a71ev2a_c1_elab_chemspace_filtered_scored

>  <inchikey>  (409) 
YWVHLSQJRJVXJR-UHFFFAOYSA-N

>  <scratch_subdir>  (409) 
/opt/xchem-fragalysis-2/maxwin/BulkDock/SCRATCH/601519/YWVHLSQJRJVXJR-UHFFFAOYSA-N-P135-P135-P248-601519

>  <smina_score_min>  (409) 
4.958

>  <energy_score>  (409) 
-9.048179

>  <Energy>  (409) 
80.401521

>  <fragmenstein_outcome>  (409) 
too moved

>  <alias>  (409) 
YWVHLSQJRJVXJR-UHFFFAOYSA-N-P135-P135-P248-601519

>  <HIPPO Pose ID>  (409) 
534259

>  <exports>  (409) 
['/opt/xchem-fragalysis-2/maxwin/openbind-hippo/a71ev2a/cycle_01/bulkdock/openbind_a71ev2a_c1_elab_chemspace.sdf', '/opt/xchem-fragalysis-2/maxwin/openbind-hippo/a71ev2a/cycle_01/syndirella/elabs/openbind_a71ev2a_c1_elab_chemspace_filtered.sdf']

>  <HIPPO Compound ID>  (409) 
291940

>  <gnina_score>  (409) 
2.278

$$$$
WWUIJVKTDLRLCN-UHFFFAOYSA-N-P135-P135-P248-601519
     RDKit          3D

 23 25  0  0  0  0  0  0  0  0999 V2000
   14.4525   20.5228   21.5649 C   0  0  0  0  0  0  0  0  0  0  0  0
   14.5714   19.1039   21.4473 O   0  0  0  0  0  0  0  0  0  0  0  0
   13.3783   18.4297   21.3676 C   0  0  0  0  0  0  0  0  0  0  0  0
   12.2877   18.9648   21.4767 O   0  0  0  0  0  0  0  0  0  0  0  0
   13.6580   16.9817   21.0345 C   0  0  2  0  0  0  0  0  0  0  0  0
   14.0953   17.1239   19.5800 C   0  0  0  0  0  0  0  0  0  0  0  0
   13.5173   15.9651   18.8678 C   0  0  0  0  0  0  0  0  0  0  0  0
   13.5473   15.8497   17.6535 O   0  0  0  0  0  0  0  0  0  0  0  0
   12.7664   15.2156   19.7607 N   0  0  0  0  0  0  0  0  0  0  0  0
   11.7731   14.4024   19.1252 C   0  0  0  0  0  0  0  0  0  0  0  0
   12.4420   16.0778   20.8987 C   0  0  1  0  0  0  0  0  0  0  0  0
   11.7612   15.4025   22.1295 C   0  0  0  0  0  0  0  0  0  0  0  0
   10.8558   15.9467   22.7529 O   0  0  0  0  0  0  0  0  0  0  0  0
   12.1383   14.1442   22.4774 O   0  0  0  0  0  0  0  0  0  0  0  0
   11.0930   13.1323   22.3473 C   0  0  0  0  0  0  0  0  0  0  0  0
   10.1464   12.7860   23.5129 C   0  0  0  0  0  0  0  0  0  0  0  0
    9.9124   11.3055   23.7767 N   0  0  0  0  0  0  0  0  0  0  0  0
   10.1418   10.2908   22.8988 C   0  0  0  0  0  0  0  0  0  0  0  0
    9.4157    9.2133   23.3291 C   0  0  0  0  0  0  0  0  0  0  0  0
    8.7321    9.6969   24.4506 C   0  0  0  0  0  0  0  0  0  0  0  0
    9.0861   10.9340   24.7827 N   0  0  0  0  0  0  0  0  0  0  0  0
    9.8388   13.7810   24.6140 C   0  0  0  0  0  0  0  0  0  0  0  0
    8.8255   13.5949   23.5459 C   0  0  0  0  0  0  0  0  0  0  0  0
  1  2  1  0
  2  3  1  0
  3  4  2  0
  5  3  1  6
  5  6  1  0
  6  7  1  0
  7  8  2  0
  7  9  1  0
  9 10  1  0
  9 11  1  0
 11 12  1  1
 12 13  2  0
 12 14  1  0
 14 15  1  0
 15 16  1  0
 16 17  1  0
 17 18  1  0
 18 19  2  0
 19 20  1  0
 20 21  2  0
 16 22  1  0
 22 23  1  0
 11  5  1  0
 23 16  1  0
 21 17  1  0
M  END
>  <distance_score>  (410) 
1.721516

>  <smiles>  (410) 
COC(=O)C1CC(=O)N(C)C1C(=O)OCC1(n2cccn2)CC1

>  <fragmenstein_error>  (410) 


>  <fragmenstein_runtime>  (410) 
20.825646

>  <gnina_score_min>  (410) 
4.508

>  <orig_smiles>  (410) 
COC(=O)C1CC(=O)N(C)C1C(=O)OCC1(n2cccn2)CC1

>  <fragmenstein_mode>  (410) 
expansion

>  <rmsd(smina/fragmenstein)>  (410) 
4.813

>  <inspiration_score>  (410) 
None

>  <name>  (410) 
WWUIJVKTDLRLCN-UHFFFAOYSA-N-P135-P135-P248-601519

>  <ref_pdb>  (410) 
A0239a

>  <ref_mols>  (410) 
A3956a,A2629a

>  <subsites>  (410) 
None

>  <tags>  (410) 
openbind_a71ev2a_c1_elabs_filtered,fragmenstein_placed,a71ev2a_c1_elab_bulkdock_input,openbind_a71ev2a_c1_elab_chemspace_filtered_scored

>  <inchikey>  (410) 
WWUIJVKTDLRLCN-UHFFFAOYSA-N

>  <scratch_subdir>  (410) 
/opt/xchem-fragalysis-2/maxwin/BulkDock/SCRATCH/601519/WWUIJVKTDLRLCN-UHFFFAOYSA-N-P135-P135-P248-601519

>  <smina_score_min>  (410) 
14.737

>  <energy_score>  (410) 
-0.987954

>  <Energy>  (410) 
38.968301

>  <fragmenstein_outcome>  (410) 
too moved

>  <alias>  (410) 
WWUIJVKTDLRLCN-UHFFFAOYSA-N-P135-P135-P248-601519

>  <HIPPO Pose ID>  (410) 
534265

>  <exports>  (410) 
['/opt/xchem-fragalysis-2/maxwin/openbind-hippo/a71ev2a/cycle_01/bulkdock/openbind_a71ev2a_c1_elab_chemspace.sdf', '/opt/xchem-fragalysis-2/maxwin/openbind-hippo/a71ev2a/cycle_01/syndirella/elabs/openbind_a71ev2a_c1_elab_chemspace_filtered.sdf']

>  <HIPPO Compound ID>  (410) 
291943

>  <gnina_score>  (410) 
1.633

$$$$
