XX01ZVNS2B-x3485_B_203_1_XX01ZVNS2B-x4590+B+203+1__LIG
     RDKit          3D

 23 26  0  0  0  0  0  0  0  0999 V2000
   -6.5800    5.2370  -13.1980 O   0  0  0  0  0  0  0  0  0  0  0  0
   -7.4780    4.5830  -13.7230 C   0  0  0  0  0  0  0  0  0  0  0  0
   -8.3710    3.8590  -13.0100 N   0  0  0  0  0  0  0  0  0  0  0  0
   -8.4960    3.8750  -11.5940 C   0  0  0  0  0  0  0  0  0  0  0  0
   -8.2410    5.0590  -10.9030 C   0  0  0  0  0  0  0  0  0  0  0  0
   -8.3690    5.1120   -9.5260 C   0  0  0  0  0  0  0  0  0  0  0  0
   -8.6300    3.9380   -8.8350 C   0  0  0  0  0  0  0  0  0  0  0  0
   -8.8630    2.7500   -9.5150 C   0  0  0  0  0  0  0  0  0  0  0  0
   -8.7600    2.6890  -10.8970 C   0  0  0  0  0  0  0  0  0  0  0  0
   -9.1630    1.6630   -8.5230 C   0  0  0  0  0  0  0  0  0  0  0  0
   -8.6590    2.2500   -7.2700 N   0  0  0  0  0  0  0  0  0  0  0  0
   -8.7960    3.7120   -7.3590 C   0  0  0  0  0  0  0  0  0  0  0  0
   -7.5520    4.5200  -15.2180 C   0  0  0  0  0  0  0  0  0  0  0  0
   -8.7220    4.2290  -15.9250 C   0  0  0  0  0  0  0  0  0  0  0  0
   -8.7240    4.2220  -17.3030 C   0  0  0  0  0  0  0  0  0  0  0  0
  -10.3540    3.8510  -18.2170 Br  0  0  0  0  0  0  0  0  0  0  0  0
   -7.5950    4.4660  -18.0490 C   0  0  0  0  0  0  0  0  0  0  0  0
   -6.4360    4.7740  -17.3730 C   0  0  0  0  0  0  0  0  0  0  0  0
   -5.1550    5.0660  -17.8120 N   0  0  0  0  0  0  0  0  0  0  0  0
   -4.3390    5.2430  -16.7300 C   0  0  0  0  0  0  0  0  0  0  0  0
   -3.1310    5.5030  -16.7580 O   0  0  0  0  0  0  0  0  0  0  0  0
   -5.0960    5.0610  -15.6090 N   0  0  0  0  0  0  0  0  0  0  0  0
   -6.3970    4.7940  -15.9730 C   0  0  0  0  0  0  0  0  0  0  0  0
  1  2  2  0
  2  3  1  0
  3  4  1  0
  4  5  2  0
  5  6  1  0
  6  7  2  0
  7  8  1  0
  8  9  2  0
  8 10  1  0
 10 11  1  0
 11 12  1  0
  2 13  1  0
 13 14  2  0
 14 15  1  0
 15 16  1  0
 15 17  2  0
 17 18  1  0
 18 19  1  0
 19 20  1  0
 20 21  2  0
 20 22  1  0
 22 23  1  0
  4  9  1  0
 13 23  1  0
  7 12  1  0
 18 23  2  0
M  END
$$$$
