A71EV2A-x4528_A_201_1_A71EV2A-x0911+A+147+1__LIG
     RDKit          3D

 23 25  0  0  0  0  0  0  0  0999 V2000
    9.7120    9.5120   23.3890 Cl  0  0  0  0  0  0  0  0  0  0  0  0
    8.4370   10.3110   24.2700 C   0  0  0  0  0  0  0  0  0  0  0  0
    7.3770    9.5590   24.7370 C   0  0  0  0  0  0  0  0  0  0  0  0
    6.3780   10.1680   25.4790 C   0  0  0  0  0  0  0  0  0  0  0  0
    8.5280   11.6740   24.5010 C   0  0  0  0  0  0  0  0  0  0  0  0
    7.5030   12.2750   25.2300 C   0  0  0  0  0  0  0  0  0  0  0  0
    6.4350   11.5310   25.7130 C   0  0  0  0  0  0  0  0  0  0  0  0
    5.3890   12.1120   26.3840 O   0  0  0  0  0  0  0  0  0  0  0  0
    5.1390   13.4900   26.0030 C   0  0  0  0  0  0  0  0  0  0  0  0
    6.3850   14.3620   26.0880 C   0  0  0  0  0  0  0  0  0  0  0  0
    7.5420   13.7030   25.4680 N   0  0  0  0  0  0  0  0  0  0  0  0
    8.6080   14.5750   25.0150 C   0  0  0  0  0  0  0  0  0  0  0  0
    8.5660   14.7580   23.4970 C   0  0  0  0  0  0  0  0  0  0  0  0
    7.6790   14.2410   22.8300 O   0  0  0  0  0  0  0  0  0  0  0  0
    9.5590   15.4750   22.9370 N   0  0  0  0  0  0  0  0  0  0  0  0
   10.7830   15.9030   23.6300 C   0  0  0  0  0  0  0  0  0  0  0  0
   12.0300   15.4860   22.8650 C   0  0  0  0  0  0  0  0  0  0  0  0
   11.9350   15.8780   21.3860 C   0  0  0  0  0  0  0  0  0  0  0  0
    9.4550   15.8910   21.5350 C   0  0  0  0  0  0  0  0  0  0  0  0
   10.6450   15.3510   20.7360 C   0  0  1  0  0  0  0  0  0  0  0  0
   10.5680   15.7410   19.2700 C   0  0  0  0  0  0  0  0  0  0  0  0
   10.3260   16.9040   18.9290 O   0  0  0  0  0  0  0  0  0  0  0  0
   10.7570   14.7630   18.4030 N   0  0  0  0  0  0  0  0  0  0  0  0
 23 21  1  0
 22 21  2  0
 20 21  1  6
 20 18  1  0
 18 17  1  0
 17 16  1  0
 16 15  1  0
 15 13  1  0
 14 13  2  0
 13 12  1  0
 12 11  1  0
 11 10  1  0
 10  9  1  0
  9  8  1  0
  8  7  1  0
  7  4  2  0
  4  3  1  0
  3  2  2  0
  2  1  1  0
  5  2  1  0
  6  5  2  0
  7  6  1  0
 11  6  1  0
 19 15  1  0
 20 19  1  0
M  END
$$$$
