A71EV2A-x5339_C_201_2_A71EV2A-x0911+A+147+1__LIG
     RDKit          3D

 22 23  0  0  0  0  0  0  0  0999 V2000
   10.4230   17.0610   18.9980 O   0  0  0  0  0  0  0  0  0  0  0  0
   10.5910   15.9660   19.5390 C   0  0  0  0  0  0  0  0  0  0  0  0
   10.9070   14.8760   18.8470 N   0  0  0  0  0  0  0  0  0  0  0  0
   10.4300   15.8020   21.0440 C   0  0  1  0  0  0  0  0  0  0  0  0
    9.9820   14.4010   21.4880 C   0  0  0  0  0  0  0  0  0  0  0  0
   11.7360   16.1400   21.7710 C   0  0  0  0  0  0  0  0  0  0  0  0
   11.5360   16.0680   23.2830 C   0  0  0  0  0  0  0  0  0  0  0  0
   11.0390   14.6990   23.7440 C   0  0  2  0  0  0  0  0  0  0  0  0
   12.1420   13.6510   23.7460 C   0  0  0  0  0  0  0  0  0  0  0  0
    9.8680   14.2620   22.9510 N   0  0  0  0  0  0  0  0  0  0  0  0
    8.7600   13.6490   23.4760 C   0  0  0  0  0  0  0  0  0  0  0  0
    7.8180   13.3050   22.7610 O   0  0  0  0  0  0  0  0  0  0  0  0
    8.7440   13.3280   24.9630 C   0  0  0  0  0  0  0  0  0  0  0  0
    7.8860   12.1240   25.2930 C   0  0  0  0  0  0  0  0  0  0  0  0
    8.1380   10.8290   24.8110 C   0  0  0  0  0  0  0  0  0  0  0  0
    9.5150   10.5970   23.7190 S   0  0  0  0  0  0  0  0  0  0  0  0
    9.4500    8.8500   23.3190 C   0  0  0  0  0  0  0  0  0  0  0  0
    6.8150   12.3140   26.1720 C   0  0  0  0  0  0  0  0  0  0  0  0
    6.0300   11.2440   26.5530 C   0  0  0  0  0  0  0  0  0  0  0  0
    4.5280   11.5540   27.6850 Br  0  0  0  0  0  0  0  0  0  0  0  0
    6.2850    9.9680   26.1050 C   0  0  0  0  0  0  0  0  0  0  0  0
    7.3430    9.7610   25.2310 C   0  0  0  0  0  0  0  0  0  0  0  0
 17 16  1  0
 16 15  1  0
 15 22  2  0
 22 21  1  0
 21 19  2  0
 20 19  1  0
 19 18  1  0
 18 14  2  0
 15 14  1  0
 14 13  1  0
 13 11  1  0
 12 11  2  0
 11 10  1  0
 10  5  1  0
  5  4  1  0
  4  2  1  6
  3  2  1  0
  2  1  2  0
  6  4  1  0
  7  6  1  0
  8  7  1  0
 10  8  1  0
  8  9  1  6
M  END
$$$$
