A71EV2A-x4586_A_201_1_A71EV2A-x0911+A+147+1__LIG
     RDKit          3D

 18 19  0  0  0  0  0  0  0  0999 V2000
   10.3350   16.7430   19.1740 O   0  0  0  0  0  0  0  0  0  0  0  0
   10.5080   15.5550   19.4530 C   0  0  0  0  0  0  0  0  0  0  0  0
   10.8390   14.6490   18.5470 N   0  0  0  0  0  0  0  0  0  0  0  0
   10.3700   15.0520   20.8810 C   0  0  1  0  0  0  0  0  0  0  0  0
   11.5190   15.5470   21.7650 C   0  0  0  0  0  0  0  0  0  0  0  0
   11.4620   14.9040   23.1560 C   0  0  0  0  0  0  0  0  0  0  0  0
   10.0980   15.1150   23.7970 C   0  0  0  0  0  0  0  0  0  0  0  0
    9.0620   15.3790   21.6130 C   0  0  0  0  0  0  0  0  0  0  0  0
    9.0070   14.6800   22.9040 N   0  0  0  0  0  0  0  0  0  0  0  0
    7.9960   13.7910   23.1390 C   0  0  0  0  0  0  0  0  0  0  0  0
    7.2520   13.4300   22.2420 O   0  0  0  0  0  0  0  0  0  0  0  0
    7.7800   13.2160   24.5290 C   0  0  2  0  0  0  0  0  0  0  0  0
    8.1300   14.1890   25.6650 C   0  0  0  0  0  0  0  0  0  0  0  0
    8.4280   11.8490   24.5980 C   0  0  0  0  0  0  0  0  0  0  0  0
    9.8450   11.4160   23.7500 S   0  0  0  0  0  0  0  0  0  0  0  0
    9.7010    9.8000   24.1900 C   0  0  0  0  0  0  0  0  0  0  0  0
    8.6280    9.5800   24.9660 C   0  0  0  0  0  0  0  0  0  0  0  0
    7.8920   10.7590   25.2130 C   0  0  0  0  0  0  0  0  0  0  0  0
 12 13  1  1
 12 10  1  0
 11 10  2  0
 10  9  1  0
  9  7  1  0
  7  6  1  0
  6  5  1  0
  5  4  1  0
  4  2  1  6
  3  2  1  0
  2  1  2  0
  8  4  1  0
  9  8  1  0
 14 12  1  0
 14 18  2  0
 18 17  1  0
 17 16  2  0
 16 15  1  0
 15 14  1  0
M  END
$$$$
