A71EV2A-x4343_A_201_1_A71EV2A-x0911+A+147+1__LIG
     RDKit          3D

 20 21  0  0  0  0  0  0  0  0999 V2000
    6.3820   12.8250   26.3430 Br  0  0  0  0  0  0  0  0  0  0  0  0
    7.3580   11.4410   25.4870 C   0  0  0  0  0  0  0  0  0  0  0  0
    6.9750   10.1350   25.5640 C   0  0  0  0  0  0  0  0  0  0  0  0
    5.9720    9.7410   26.2990 O   0  0  0  0  0  0  0  0  0  0  0  0
    7.6260    9.1180   24.8720 N   0  0  0  0  0  0  0  0  0  0  0  0
    8.6730    9.4850   24.1200 C   0  0  0  0  0  0  0  0  0  0  0  0
    9.1160   10.7790   24.0140 C   0  0  0  0  0  0  0  0  0  0  0  0
    8.4570   11.7880   24.7130 C   0  0  0  0  0  0  0  0  0  0  0  0
    8.9270   13.2140   24.6150 C   0  0  0  0  0  0  0  0  0  0  0  0
    8.6280   13.7690   23.2410 C   0  0  0  0  0  0  0  0  0  0  0  0
    7.7530   13.3050   22.5250 O   0  0  0  0  0  0  0  0  0  0  0  0
    9.4080   14.8020   22.8680 N   0  0  0  0  0  0  0  0  0  0  0  0
   10.4550   15.4120   23.7060 C   0  0  0  0  0  0  0  0  0  0  0  0
   11.8240   15.2270   23.0730 C   0  0  0  0  0  0  0  0  0  0  0  0
   11.8150   15.7360   21.6330 C   0  0  0  0  0  0  0  0  0  0  0  0
    9.3390   15.3160   21.5010 C   0  0  0  0  0  0  0  0  0  0  0  0
   10.6880   15.0600   20.8360 C   0  0  1  0  0  0  0  0  0  0  0  0
   10.6850   15.4680   19.3750 C   0  0  0  0  0  0  0  0  0  0  0  0
   10.9470   14.6440   18.4940 O   0  0  0  0  0  0  0  0  0  0  0  0
   10.2580   16.6860   19.1050 N   0  0  0  0  0  0  0  0  0  0  0  0
 20 18  1  0
 19 18  2  0
 17 18  1  6
 17 15  1  0
 15 14  1  0
 14 13  1  0
 13 12  1  0
 12 10  1  0
 11 10  2  0
 10  9  1  0
  9  8  1  0
  8  7  2  0
  7  6  1  0
  6  5  2  0
  5  3  1  0
  4  3  1  0
  3  2  2  0
  8  2  1  0
  2  1  1  0
 16 12  1  0
 17 16  1  0
M  END
$$$$
