XX01ZVNS2B-x4161_B_203_1_XX01ZVNS2B-x4590+B+203+1__LIG
     RDKit          3D

 29 33  0  0  0  0  0  0  0  0999 V2000
   -6.5470    5.3750  -12.8230 O   0  0  0  0  0  0  0  0  0  0  0  0
   -7.4200    4.6910  -13.3530 C   0  0  0  0  0  0  0  0  0  0  0  0
   -8.3200    3.9640  -12.6410 N   0  0  0  0  0  0  0  0  0  0  0  0
   -8.4170    3.8980  -11.2210 C   0  0  0  0  0  0  0  0  0  0  0  0
   -8.6560    2.6980  -10.5520 C   0  0  0  0  0  0  0  0  0  0  0  0
   -8.7720    2.6800   -9.1590 C   0  0  0  0  0  0  0  0  0  0  0  0
   -9.0990    1.5370   -8.2440 C   0  0  0  0  0  0  0  0  0  0  0  0
   -8.8160    2.1260   -6.9200 N   0  0  0  0  0  0  0  0  0  0  0  0
   -8.7480    3.5880   -6.9610 C   0  0  0  0  0  0  0  0  0  0  0  0
   -8.6240    3.8550   -8.4320 C   0  0  0  0  0  0  0  0  0  0  0  0
   -8.3900    5.0510   -9.1010 C   0  0  0  0  0  0  0  0  0  0  0  0
   -8.2930    5.0750  -10.4850 C   0  0  0  0  0  0  0  0  0  0  0  0
   -7.5040    4.5850  -14.8430 C   0  0  0  0  0  0  0  0  0  0  0  0
   -8.6570    4.1280  -15.4900 C   0  0  0  0  0  0  0  0  0  0  0  0
   -8.7100    4.0290  -16.8700 C   0  0  0  0  0  0  0  0  0  0  0  0
   -6.3910    4.9680  -15.5920 C   0  0  0  0  0  0  0  0  0  0  0  0
   -6.4330    4.9060  -16.9860 C   0  0  0  0  0  0  0  0  0  0  0  0
   -7.5990    4.4250  -17.6060 C   0  0  0  0  0  0  0  0  0  0  0  0
   -7.4030    4.4920  -18.9650 N   0  0  0  0  0  0  0  0  0  0  0  0
   -6.1660    5.0120  -19.2120 C   0  0  0  0  0  0  0  0  0  0  0  0
   -5.5250    5.2900  -18.0400 C   0  0  0  0  0  0  0  0  0  0  0  0
   -4.1800    5.9490  -17.8950 C   0  0  0  0  0  0  0  0  0  0  0  0
   -4.2350    7.3940  -17.3960 C   0  0  0  0  0  0  0  0  0  0  0  0
   -2.8450    8.0040  -17.6030 C   0  0  0  0  0  0  0  0  0  0  0  0
   -3.1480    5.1560  -17.0870 C   0  0  0  0  0  0  0  0  0  0  0  0
   -1.7770    5.8310  -17.2700 C   0  0  0  0  0  0  0  0  0  0  0  0
   -1.8060    7.2580  -16.8520 N   0  0  0  0  0  0  0  0  0  0  0  0
   -0.4770    7.8830  -17.0700 C   0  0  0  0  0  0  0  0  0  0  0  0
   -0.3050    9.2350  -16.4070 C   0  0  0  0  0  0  0  0  0  0  0  0
 29 28  1  0
 28 27  1  0
 27 24  1  0
 24 23  1  0
 23 22  1  0
 22 21  1  0
 21 20  2  0
 20 19  1  0
 19 18  1  0
 18 15  1  0
 15 14  2  0
 14 13  1  0
 13  2  1  0
  2  1  2  0
  3  2  1  0
  4  3  1  0
  4 12  2  0
 12 11  1  0
 11 10  2  0
 10  6  1  0
  6  5  2  0
  5  4  1  0
  7  6  1  0
  8  7  1  0
  9  8  1  0
 10  9  1  0
 16 13  2  0
 17 16  1  0
 21 17  1  0
 18 17  2  0
 25 22  1  0
 26 25  1  0
 27 26  1  0
M  END
$$$$
