A71EV2A-x5608_A_201_5_A71EV2A-x0911+A+147+1__LIG
     RDKit          3D

 16 17  0  0  0  0  0  0  0  0999 V2000
   10.9810   14.4960   25.0980 O   0  0  0  0  0  0  0  0  0  0  0  0
   10.9330   14.6830   23.8870 C   0  0  0  0  0  0  0  0  0  0  0  0
   12.1520   15.2150   23.1780 C   0  0  0  0  0  0  0  0  0  0  0  0
   11.9190   15.7570   21.7640 C   0  0  0  0  0  0  0  0  0  0  0  0
    9.8100   14.4560   23.1620 N   0  0  0  0  0  0  0  0  0  0  0  0
    9.6290   14.7550   21.7330 C   0  0  0  0  0  0  0  0  0  0  0  0
   10.9760   14.8300   20.9930 C   0  0  1  0  0  0  0  0  0  0  0  0
   10.7570   15.3300   19.5730 C   0  0  0  0  0  0  0  0  0  0  0  0
   10.3030   16.4610   19.3530 O   0  0  0  0  0  0  0  0  0  0  0  0
   11.0240   14.4600   18.6090 N   0  0  0  0  0  0  0  0  0  0  0  0
    8.6390   13.8800   23.8120 C   0  0  0  0  0  0  0  0  0  0  0  0
    8.6730   12.3740   23.9210 C   0  0  0  0  0  0  0  0  0  0  0  0
    9.6070   11.6340   23.2490 C   0  0  0  0  0  0  0  0  0  0  0  0
    9.3960    9.9590   23.4690 S   0  0  0  0  0  0  0  0  0  0  0  0
    8.0170   10.1990   24.5320 C   0  0  0  0  0  0  0  0  0  0  0  0
    7.7630   11.5440   24.6700 C   0  0  0  0  0  0  0  0  0  0  0  0
 10  8  1  0
  9  8  2  0
  7  8  1  6
  7  4  1  0
  4  3  1  0
  3  2  1  0
  2  1  2  0
  5  2  1  0
 11  5  1  0
 12 11  1  0
 12 16  1  0
 16 15  2  0
 15 14  1  0
 14 13  1  0
 13 12  2  0
  6  5  1  0
  7  6  1  0
M  END
$$$$
