XX01ZVNS2B-x5017_B_203_7_XX01ZVNS2B-x4590+B+203+1__LIG
     RDKit          3D

 23 26  0  0  0  0  0  0  0  0999 V2000
  -10.2890    3.8240  -18.0540 F   0  0  0  0  0  0  0  0  0  0  0  0
   -9.1220    4.2910  -17.5350 C   0  0  0  0  0  0  0  0  0  0  0  0
   -9.0320    4.4410  -16.1650 C   0  0  0  0  0  0  0  0  0  0  0  0
   -8.1180    4.6320  -18.4120 C   0  0  0  0  0  0  0  0  0  0  0  0
   -6.9680    5.1680  -17.8540 C   0  0  0  0  0  0  0  0  0  0  0  0
   -5.7920    5.5560  -18.4320 N   0  0  0  0  0  0  0  0  0  0  0  0
   -5.4100    5.5410  -19.8450 C   0  0  0  0  0  0  0  0  0  0  0  0
   -3.9250    5.2300  -20.1350 C   0  0  0  0  0  0  0  0  0  0  0  0
   -3.9200    6.3680  -21.0840 N   0  0  0  0  0  0  0  0  0  0  0  0
   -5.1610    6.9190  -20.4910 C   0  0  0  0  0  0  0  0  0  0  0  0
   -4.9010    6.0050  -17.4970 N   0  0  0  0  0  0  0  0  0  0  0  0
   -5.5070    5.9010  -16.3310 C   0  0  0  0  0  0  0  0  0  0  0  0
   -6.8180    5.3740  -16.4740 C   0  0  0  0  0  0  0  0  0  0  0  0
   -7.8720    5.0010  -15.6240 C   0  0  0  0  0  0  0  0  0  0  0  0
   -7.7690    5.2090  -14.1420 C   0  0  0  0  0  0  0  0  0  0  0  0
   -7.0980    6.1300  -13.6840 O   0  0  0  0  0  0  0  0  0  0  0  0
   -8.4360    4.3200  -13.3680 N   0  0  0  0  0  0  0  0  0  0  0  0
   -8.4770    4.2990  -11.9820 C   0  0  0  0  0  0  0  0  0  0  0  0
   -8.5230    3.0860  -11.4050 N   0  0  0  0  0  0  0  0  0  0  0  0
   -8.5110    3.0850  -10.0640 C   0  0  0  0  0  0  0  0  0  0  0  0
   -8.4590    4.2340   -9.3050 C   0  0  0  0  0  0  0  0  0  0  0  0
   -8.4160    5.4180  -10.0050 C   0  0  0  0  0  0  0  0  0  0  0  0
   -8.4280    5.4840  -11.3430 N   0  0  0  0  0  0  0  0  0  0  0  0
 16 15  2  0
 17 15  1  0
 18 17  1  0
 18 23  2  0
 23 22  1  0
 22 21  2  0
 21 20  1  0
 20 19  2  0
 19 18  1  0
 15 14  1  0
 14  3  1  0
  3  2  2  0
  2  1  1  0
  4  2  1  0
  5  4  2  0
  5 13  1  0
 14 13  2  0
 13 12  1  0
 12 11  2  0
 11  6  1  0
  6  5  1  0
  7  6  1  0
  7 10  1  0
 10  9  1  0
  9  8  1  0
  8  7  1  0
M  END
$$$$
