A71EV2A-x5171_C_201_2_A71EV2A-x0911+A+147+1__LIG
     RDKit          3D

 23 24  0  0  0  0  0  0  0  0999 V2000
   10.5400   16.6960   19.2090 O   0  0  0  0  0  0  0  0  0  0  0  0
   10.8780   15.5250   19.4750 C   0  0  0  0  0  0  0  0  0  0  0  0
   11.1260   14.6130   18.5420 N   0  0  0  0  0  0  0  0  0  0  0  0
   10.9190   15.0290   20.9090 C   0  0  1  0  0  0  0  0  0  0  0  0
   11.9340   15.7950   21.7890 C   0  0  0  0  0  0  0  0  0  0  0  0
   11.8730   15.2620   23.2310 C   0  0  1  0  0  0  0  0  0  0  0  0
   12.7890   16.0210   24.1760 C   0  0  0  0  0  0  0  0  0  0  0  0
   12.7680   17.2540   24.2280 O   0  0  0  0  0  0  0  0  0  0  0  0
   13.5270   15.2840   25.0040 N   0  0  0  0  0  0  0  0  0  0  0  0
   10.4460   15.3990   23.7710 C   0  0  0  0  0  0  0  0  0  0  0  0
    9.5040   15.1570   21.4950 C   0  0  0  0  0  0  0  0  0  0  0  0
    9.4920   14.7070   22.8920 N   0  0  0  0  0  0  0  0  0  0  0  0
    8.6350   13.7300   23.2820 C   0  0  0  0  0  0  0  0  0  0  0  0
    7.7400   13.3170   22.5500 O   0  0  0  0  0  0  0  0  0  0  0  0
    8.7650   13.2560   24.7200 C   0  0  0  0  0  0  0  0  0  0  0  0
    7.8770   12.0800   25.0700 C   0  0  0  0  0  0  0  0  0  0  0  0
    8.1340   10.7790   24.6190 C   0  0  0  0  0  0  0  0  0  0  0  0
    9.5070   10.5610   23.5240 S   0  0  0  0  0  0  0  0  0  0  0  0
    9.5660    8.7850   23.2830 C   0  0  0  0  0  0  0  0  0  0  0  0
    6.8150   12.2750   25.9600 C   0  0  0  0  0  0  0  0  0  0  0  0
    6.0230   11.2180   26.3680 C   0  0  0  0  0  0  0  0  0  0  0  0
    6.2910    9.9400   25.9240 C   0  0  0  0  0  0  0  0  0  0  0  0
    7.3510    9.7090   25.0560 C   0  0  0  0  0  0  0  0  0  0  0  0
 19 18  1  0
 18 17  1  0
 17 23  2  0
 23 22  1  0
 22 21  2  0
 21 20  1  0
 20 16  2  0
 17 16  1  0
 16 15  1  0
 15 13  1  0
 14 13  2  0
 13 12  1  0
 12 10  1  0
 10  6  1  0
  6  7  1  1
  9  7  1  0
  8  7  2  0
  6  5  1  0
  5  4  1  0
  4  2  1  6
  3  2  1  0
  2  1  2  0
 11  4  1  0
 12 11  1  0
M  END
$$$$
