A71EV2A-x3685_A_201_1_A71EV2A-x0911+A+147+1__LIG
     RDKit          3D

 20 21  0  0  0  0  0  0  0  0999 V2000
   10.3190   16.2790   19.2040 O   0  0  0  0  0  0  0  0  0  0  0  0
   10.9790   15.2260   19.1990 C   0  0  0  0  0  0  0  0  0  0  0  0
   11.2940   14.5940   18.0630 N   0  0  0  0  0  0  0  0  0  0  0  0
   11.5060   14.6980   20.3400 N   0  0  0  0  0  0  0  0  0  0  0  0
   11.1460   15.1100   21.7060 C   0  0  2  0  0  0  0  0  0  0  0  0
   12.1470   14.6100   22.7250 C   0  0  0  0  0  0  0  0  0  0  0  0
   11.4170   14.7010   24.0550 C   0  0  0  0  0  0  0  0  0  0  0  0
    9.8500   14.4230   22.2270 C   0  0  0  0  0  0  0  0  0  0  0  0
   10.0350   14.3980   23.6830 N   0  0  0  0  0  0  0  0  0  0  0  0
    9.0990   14.1740   24.6310 C   0  0  0  0  0  0  0  0  0  0  0  0
    9.3450   14.2890   25.8280 O   0  0  0  0  0  0  0  0  0  0  0  0
    7.7380   13.7050   24.1480 C   0  0  0  0  0  0  0  0  0  0  0  0
    7.2090   12.5150   24.9280 C   0  0  0  0  0  0  0  0  0  0  0  0
    7.6370   11.2210   24.6280 C   0  0  0  0  0  0  0  0  0  0  0  0
    8.6150   11.1460   23.6820 O   0  0  0  0  0  0  0  0  0  0  0  0
    9.1450    9.8610   23.3710 C   0  0  0  0  0  0  0  0  0  0  0  0
    6.2250   12.6660   25.9020 C   0  0  0  0  0  0  0  0  0  0  0  0
    5.6680   11.5640   26.5330 C   0  0  0  0  0  0  0  0  0  0  0  0
    6.0750   10.2890   26.1960 C   0  0  0  0  0  0  0  0  0  0  0  0
    7.0550   10.1020   25.2280 C   0  0  0  0  0  0  0  0  0  0  0  0
 16 15  1  0
 15 14  1  0
 14 20  2  0
 20 19  1  0
 19 18  2  0
 18 17  1  0
 17 13  2  0
 14 13  1  0
 13 12  1  0
 12 10  1  0
 11 10  2  0
 10  9  1  0
  9  7  1  0
  7  6  1  0
  6  5  1  0
  5  4  1  6
  4  2  1  0
  3  2  1  0
  2  1  2  0
  8  5  1  0
  9  8  1  0
M  END
$$$$
