A71EV2A-x4541_A_201_1_A71EV2A-x0911+A+147+1__LIG
     RDKit          3D

 20 21  0  0  0  0  0  0  0  0999 V2000
    9.2750   10.2130   23.3860 Cl  0  0  0  0  0  0  0  0  0  0  0  0
    8.0480   10.7240   24.4610 C   0  0  0  0  0  0  0  0  0  0  0  0
    7.0090    9.5740   25.1170 S   0  0  0  0  0  0  0  0  0  0  0  0
    6.1860   10.6910   26.0590 N   0  0  0  0  0  0  0  0  0  0  0  0
    6.6940   11.9270   25.8650 C   0  0  0  0  0  0  0  0  0  0  0  0
    7.7630   11.9650   24.9560 C   0  0  0  0  0  0  0  0  0  0  0  0
    8.5860   13.2000   24.6870 C   0  0  0  0  0  0  0  0  0  0  0  0
    8.2360   14.2050   25.5500 F   0  0  0  0  0  0  0  0  0  0  0  0
    9.9030   12.9370   24.9420 F   0  0  0  0  0  0  0  0  0  0  0  0
    8.4750   13.7680   23.2530 C   0  0  0  0  0  0  0  0  0  0  0  0
    7.6360   13.2820   22.5090 O   0  0  0  0  0  0  0  0  0  0  0  0
    9.2910   14.7730   22.8790 N   0  0  0  0  0  0  0  0  0  0  0  0
   10.2610   15.4520   23.7540 C   0  0  0  0  0  0  0  0  0  0  0  0
   11.6720   15.3220   23.2040 C   0  0  0  0  0  0  0  0  0  0  0  0
   11.7300   15.8140   21.7560 C   0  0  0  0  0  0  0  0  0  0  0  0
    9.2920   15.2520   21.4940 C   0  0  0  0  0  0  0  0  0  0  0  0
   10.6940   15.0740   20.8920 C   0  0  1  0  0  0  0  0  0  0  0  0
   10.7050   15.5690   19.4570 C   0  0  0  0  0  0  0  0  0  0  0  0
   10.3690   16.7230   19.1840 O   0  0  0  0  0  0  0  0  0  0  0  0
   11.0240   14.6710   18.5340 N   0  0  0  0  0  0  0  0  0  0  0  0
 20 18  1  0
 19 18  2  0
 17 18  1  6
 17 15  1  0
 15 14  1  0
 14 13  1  0
 13 12  1  0
 12 10  1  0
 11 10  2  0
 10  7  1  0
  8  7  1  0
  9  7  1  0
  7  6  1  0
  6  5  1  0
  5  4  2  0
  4  3  1  0
  3  2  1  0
  6  2  2  0
  2  1  1  0
 16 12  1  0
 17 16  1  0
M  END
$$$$
