XX01ZVNS2B-x3546_B_203_1_XX01ZVNS2B-x4590+B+203+1__LIG
     RDKit          3D

 24 27  0  0  0  0  0  0  0  0999 V2000
   -6.9810    5.8580  -13.1790 O   0  0  0  0  0  0  0  0  0  0  0  0
   -7.6220    4.9480  -13.6940 C   0  0  0  0  0  0  0  0  0  0  0  0
   -8.3270    4.0520  -12.9620 N   0  0  0  0  0  0  0  0  0  0  0  0
   -8.4510    4.0460  -11.5390 C   0  0  0  0  0  0  0  0  0  0  0  0
   -8.2450    5.2170  -10.8080 C   0  0  0  0  0  0  0  0  0  0  0  0
   -8.3590    5.2180   -9.4270 C   0  0  0  0  0  0  0  0  0  0  0  0
   -8.6220    4.0220   -8.7720 C   0  0  0  0  0  0  0  0  0  0  0  0
   -8.8200    2.8510   -9.4900 C   0  0  0  0  0  0  0  0  0  0  0  0
   -8.6980    2.8370  -10.8740 C   0  0  0  0  0  0  0  0  0  0  0  0
   -9.1350    1.7280   -8.5420 C   0  0  0  0  0  0  0  0  0  0  0  0
   -8.6890    2.2820   -7.2570 N   0  0  0  0  0  0  0  0  0  0  0  0
   -8.8010    3.7490   -7.3040 C   0  0  0  0  0  0  0  0  0  0  0  0
   -7.5890    4.7560  -15.1860 C   0  0  0  0  0  0  0  0  0  0  0  0
   -8.7600    4.4000  -15.8630 C   0  0  0  0  0  0  0  0  0  0  0  0
   -8.7630    4.2820  -17.2360 C   0  0  0  0  0  0  0  0  0  0  0  0
  -10.2400    3.8800  -18.0690 Cl  0  0  0  0  0  0  0  0  0  0  0  0
   -7.6160    4.5130  -17.9740 C   0  0  0  0  0  0  0  0  0  0  0  0
   -6.4490    4.8680  -17.3230 C   0  0  0  0  0  0  0  0  0  0  0  0
   -6.4240    4.9590  -15.9330 C   0  0  0  0  0  0  0  0  0  0  0  0
   -5.1940    5.3310  -15.3130 N   0  0  0  0  0  0  0  0  0  0  0  0
   -4.5880    4.7150  -14.2440 C   0  0  0  0  0  0  0  0  0  0  0  0
   -3.4310    5.3680  -14.0320 C   0  0  0  0  0  0  0  0  0  0  0  0
   -3.2770    6.3760  -14.9460 N   0  0  0  0  0  0  0  0  0  0  0  0
   -4.3510    6.3200  -15.6980 C   0  0  0  0  0  0  0  0  0  0  0  0
  1  2  2  0
  2  3  1  0
  3  4  1  0
  4  5  2  0
  5  6  1  0
  6  7  2  0
  7  8  1  0
  8  9  2  0
  8 10  1  0
 10 11  1  0
 11 12  1  0
  2 13  1  0
 13 14  2  0
 14 15  1  0
 15 16  1  0
 15 17  2  0
 17 18  1  0
 18 19  2  0
 19 20  1  0
 20 21  1  0
 21 22  2  0
 22 23  1  0
 23 24  2  0
  4  9  1  0
 13 19  1  0
 20 24  1  0
  7 12  1  0
M  END
$$$$
