A71EV2A-x4980_A_201_1_A71EV2A-x0911+A+147+1__LIG
     RDKit          3D

 21 23  0  0  0  0  0  0  0  0999 V2000
   11.6150   14.7190   25.0610 O   0  0  0  0  0  0  0  0  0  0  0  0
   11.4410   14.8340   23.8480 C   0  0  0  0  0  0  0  0  0  0  0  0
   12.6210   14.9490   22.9150 C   0  0  0  0  0  0  0  0  0  0  0  0
   12.2870   15.5920   21.5680 C   0  0  0  0  0  0  0  0  0  0  0  0
   11.0690   14.8900   20.9510 C   0  0  2  0  0  0  0  0  0  0  0  0
   10.8330   15.3740   19.5300 C   0  0  0  0  0  0  0  0  0  0  0  0
   10.3190   16.4720   19.3090 O   0  0  0  0  0  0  0  0  0  0  0  0
   11.2470   14.5720   18.5540 N   0  0  0  0  0  0  0  0  0  0  0  0
    9.8660   15.1170   21.8860 C   0  0  0  0  0  0  0  0  0  0  0  0
   10.2030   14.9070   23.3040 N   0  0  0  0  0  0  0  0  0  0  0  0
    9.0290   14.9680   24.1820 C   0  0  0  0  0  0  0  0  0  0  0  0
    8.4090   13.6320   24.5070 C   0  0  0  0  0  0  0  0  0  0  0  0
    7.3370   13.5760   25.3970 C   0  0  0  0  0  0  0  0  0  0  0  0
    6.7540   12.3690   25.7520 C   0  0  0  0  0  0  0  0  0  0  0  0
    8.9110   12.4430   23.9720 C   0  0  0  0  0  0  0  0  0  0  0  0
    8.3330   11.2290   24.3300 C   0  0  0  0  0  0  0  0  0  0  0  0
    8.6090    9.9390   23.9810 N   0  0  0  0  0  0  0  0  0  0  0  0
    9.6850    9.4370   23.1380 C   0  0  0  0  0  0  0  0  0  0  0  0
    7.2490   11.1760   25.2220 C   0  0  0  0  0  0  0  0  0  0  0  0
    6.9460    9.7930   25.3300 C   0  0  0  0  0  0  0  0  0  0  0  0
    7.7600    9.0620   24.5950 N   0  0  0  0  0  0  0  0  0  0  0  0
 18 17  1  0
 17 21  1  0
 21 20  2  0
 20 19  1  0
 19 14  1  0
 14 13  2  0
 13 12  1  0
 12 11  1  0
 11 10  1  0
 10  9  1  0
  9  5  1  0
  5  6  1  6
  8  6  1  0
  7  6  2  0
  5  4  1  0
  4  3  1  0
  3  2  1  0
 10  2  1  0
  2  1  2  0
 15 12  2  0
 16 15  1  0
 19 16  2  0
 17 16  1  0
M  END
$$$$
