A71EV2A-x2304_E_246_1_A71EV2A-x0911+A+147+1__LIG
     RDKit          3D

 18 20  0  0  0  0  0  0  0  0999 V2000
   10.7260   14.6060   23.7040 O   0  0  0  0  0  0  0  0  0  0  0  0
   10.7390   13.5900   22.9910 C   0  0  0  0  0  0  0  0  0  0  0  0
   11.3590   13.5330   21.7810 N   0  0  0  0  0  0  0  0  0  0  0  0
   11.9640   14.6240   21.1270 C   0  0  0  0  0  0  0  0  0  0  0  0
   12.3910   15.8430   21.6160 C   0  0  0  0  0  0  0  0  0  0  0  0
   12.8810   16.5180   20.5690 N   0  0  0  0  0  0  0  0  0  0  0  0
   12.7940   15.8050   19.4310 N   0  0  0  0  0  0  0  0  0  0  0  0
   12.2220   14.6470   19.7550 C   0  0  0  0  0  0  0  0  0  0  0  0
   10.0800   12.3090   23.4390 C   0  0  0  0  0  0  0  0  0  0  0  0
   10.3770   11.1480   22.8490 N   0  0  0  0  0  0  0  0  0  0  0  0
    9.0450   12.1360   24.4120 C   0  0  0  0  0  0  0  0  0  0  0  0
    8.7330   10.7670   24.3600 C   0  0  0  0  0  0  0  0  0  0  0  0
    9.5440   10.2150   23.4140 N   0  0  0  0  0  0  0  0  0  0  0  0
    9.6750    8.8120   23.0560 C   0  0  0  0  0  0  0  0  0  0  0  0
    7.7550   10.2050   25.1750 C   0  0  0  0  0  0  0  0  0  0  0  0
    7.0760   11.0490   26.0510 C   0  0  0  0  0  0  0  0  0  0  0  0
    7.3700   12.4030   26.1070 C   0  0  0  0  0  0  0  0  0  0  0  0
    8.3460   12.9610   25.2960 C   0  0  0  0  0  0  0  0  0  0  0  0
 14 13  1  0
 13 10  1  0
 10  9  2  0
  9  2  1  0
  2  1  2  0
  3  2  1  0
  4  3  1  0
  4  8  1  0
  8  7  2  0
  7  6  1  0
  6  5  1  0
  5  4  2  0
 11  9  1  0
 11 18  2  0
 18 17  1  0
 17 16  2  0
 16 15  1  0
 15 12  2  0
 12 11  1  0
 13 12  1  0
M  END
$$$$
