XX01ZVNS2B-x0601_B_301_1_XX01ZVNS2B-x4590+B+203+1__LIG
     RDKit          3D

  9  9  0  0  0  0  0  0  0  0999 V2000
  -10.3010    4.2140  -18.2240 C   0  0  0  0  0  0  0  0  0  0  0  0
   -9.0500    4.3690  -18.5740 C   0  0  0  0  0  0  0  0  0  0  0  0
   -8.0460    4.5550  -17.5940 C   0  0  0  0  0  0  0  0  0  0  0  0
   -8.2510    4.3510  -16.2160 C   0  0  0  0  0  0  0  0  0  0  0  0
   -7.0270    4.5640  -15.6480 C   0  0  0  0  0  0  0  0  0  0  0  0
   -6.1770    4.8810  -16.6420 N   0  0  0  0  0  0  0  0  0  0  0  0
   -4.7560    5.1630  -16.4390 C   0  0  0  0  0  0  0  0  0  0  0  0
   -6.7730    4.8950  -17.8820 N   0  0  0  0  0  0  0  0  0  0  0  0
   -6.1070    5.2060  -19.1470 C   0  0  0  0  0  0  0  0  0  0  0  0
  9  8  1  0
  8  3  1  0
  3  2  1  0
  2  1  2  0
  4  3  2  0
  5  4  1  0
  6  5  2  0
  8  6  1  0
  7  6  1  0
M  CHG  1   6   1
M  END
$$$$
