XX01ZVNS2B-x0229_B_303_1_XX01ZVNS2B-x4590+B+203+1__LIG
     RDKit          3D

 15 17  0  0  0  0  0  0  0  0999 V2000
   -5.3330    5.7620  -26.6190 O   0  0  0  0  0  0  0  0  0  0  0  0
   -6.0790    6.7190  -26.4230 C   0  0  0  0  0  0  0  0  0  0  0  0
   -5.6070    7.8870  -25.5760 C   0  0  2  0  0  0  0  0  0  0  0  0
   -4.0700    7.8930  -25.4470 C   0  0  0  0  0  0  0  0  0  0  0  0
   -3.7980    8.3050  -24.0010 C   0  0  0  0  0  0  0  0  0  0  0  0
   -5.1770    8.5290  -23.4110 C   0  0  0  0  0  0  0  0  0  0  0  0
   -6.0480    7.7100  -24.1850 N   0  0  0  0  0  0  0  0  0  0  0  0
   -6.1480    9.2320  -26.0740 C   0  0  0  0  0  0  0  0  0  0  0  0
   -7.6020    9.1500  -26.4760 C   0  0  0  0  0  0  0  0  0  0  0  0
   -8.4440   10.2600  -26.4160 C   0  0  0  0  0  0  0  0  0  0  0  0
   -9.7700   10.1720  -26.8120 C   0  0  0  0  0  0  0  0  0  0  0  0
  -10.2760    8.9740  -27.2770 C   0  0  0  0  0  0  0  0  0  0  0  0
   -9.4580    7.8590  -27.3620 C   0  0  0  0  0  0  0  0  0  0  0  0
   -8.1230    7.9410  -26.9580 C   0  0  0  0  0  0  0  0  0  0  0  0
   -7.3040    6.8060  -26.9750 N   0  0  0  0  0  0  0  0  0  0  0  0
  2  1  2  0
  2 15  1  0
 15 14  1  0
 14  9  2  0
 10  9  1  0
 11 10  2  0
 12 11  1  0
 13 12  2  0
 14 13  1  0
  9  8  1  0
  3  8  1  6
  3  2  1  0
  3  7  1  0
  7  6  1  0
  6  5  1  0
  5  4  1  0
  4  3  1  0
M  END
$$$$
