A71EV2A-x3450_A_201_1_A71EV2A-x0911+A+147+1__LIG
     RDKit          3D

 19 20  0  0  0  0  0  0  0  0999 V2000
   10.4120   16.8060   19.2160 O   0  0  0  0  0  0  0  0  0  0  0  0
   10.6880   15.6230   19.4480 C   0  0  0  0  0  0  0  0  0  0  0  0
   10.9350   14.7410   18.4980 N   0  0  0  0  0  0  0  0  0  0  0  0
   10.7190   15.0860   20.8690 C   0  0  1  0  0  0  0  0  0  0  0  0
   11.7820   15.7910   21.7250 C   0  0  0  0  0  0  0  0  0  0  0  0
   11.7780   15.2700   23.1680 C   0  0  0  0  0  0  0  0  0  0  0  0
   10.3840   15.3320   23.7810 C   0  0  0  0  0  0  0  0  0  0  0  0
    9.3670   15.3300   21.5320 C   0  0  0  0  0  0  0  0  0  0  0  0
    9.3770   14.7500   22.8780 N   0  0  0  0  0  0  0  0  0  0  0  0
    8.5010   13.7700   23.1920 C   0  0  0  0  0  0  0  0  0  0  0  0
    7.6010   13.4340   22.4350 O   0  0  0  0  0  0  0  0  0  0  0  0
    8.6900   13.1000   24.5360 C   0  0  0  0  0  0  0  0  0  0  0  0
    8.7580   11.6170   24.2830 C   0  0  0  0  0  0  0  0  0  0  0  0
    7.9360   10.7090   24.8420 C   0  0  0  0  0  0  0  0  0  0  0  0
    6.9210   10.9660   25.8170 C   0  0  0  0  0  0  0  0  0  0  0  0
    6.1200   11.2160   26.5960 N   0  0  0  0  0  0  0  0  0  0  0  0
    9.6770   10.9930   23.3880 C   0  0  0  0  0  0  0  0  0  0  0  0
    9.4990    9.6610   23.3070 C   0  0  0  0  0  0  0  0  0  0  0  0
    8.2340    9.1340   24.2920 S   0  0  0  0  0  0  0  0  0  0  0  0
 16 15  3  0
 15 14  1  0
 14 19  1  0
 19 18  1  0
 18 17  2  0
 17 13  1  0
 14 13  2  0
 13 12  1  0
 12 10  1  0
 11 10  2  0
 10  9  1  0
  9  7  1  0
  7  6  1  0
  6  5  1  0
  5  4  1  0
  4  2  1  6
  3  2  1  0
  2  1  2  0
  8  4  1  0
  9  8  1  0
M  END
$$$$
