XX01ZVNS2B-x5197_B_203_7_XX01ZVNS2B-x4590+B+203+1__LIG
     RDKit          3D

 22 25  0  0  0  0  0  0  0  0999 V2000
  -10.5400    3.9230  -18.2850 Cl  0  0  0  0  0  0  0  0  0  0  0  0
   -9.0360    4.3540  -17.5090 C   0  0  0  0  0  0  0  0  0  0  0  0
   -8.9930    4.4520  -16.1250 C   0  0  0  0  0  0  0  0  0  0  0  0
   -7.9360    4.6270  -18.3020 C   0  0  0  0  0  0  0  0  0  0  0  0
   -6.7720    5.0240  -17.6640 C   0  0  0  0  0  0  0  0  0  0  0  0
   -5.5340    5.3140  -18.1650 N   0  0  0  0  0  0  0  0  0  0  0  0
   -5.0820    5.3060  -19.5580 C   0  0  0  0  0  0  0  0  0  0  0  0
   -3.5860    5.0010  -19.8060 C   0  0  0  0  0  0  0  0  0  0  0  0
   -3.6030    6.0580  -20.8450 N   0  0  0  0  0  0  0  0  0  0  0  0
   -4.8140    6.6660  -20.2330 C   0  0  0  0  0  0  0  0  0  0  0  0
   -4.6570    5.6410  -17.1670 N   0  0  0  0  0  0  0  0  0  0  0  0
   -5.3370    5.5630  -16.0390 C   0  0  0  0  0  0  0  0  0  0  0  0
   -6.6800    5.1680  -16.2690 C   0  0  0  0  0  0  0  0  0  0  0  0
   -7.8160    4.8720  -15.4910 C   0  0  0  0  0  0  0  0  0  0  0  0
   -7.7690    5.0920  -14.0050 C   0  0  0  0  0  0  0  0  0  0  0  0
   -7.0400    5.9570  -13.5240 O   0  0  0  0  0  0  0  0  0  0  0  0
   -8.5510    4.2800  -13.2090 N   0  0  0  0  0  0  0  0  0  0  0  0
   -8.6280    4.3750  -11.8130 C   0  0  0  0  0  0  0  0  0  0  0  0
   -8.8080    3.2680  -11.0940 N   0  0  0  0  0  0  0  0  0  0  0  0
   -8.7430    3.7040   -9.8080 N   0  0  0  0  0  0  0  0  0  0  0  0
   -8.5410    5.0240   -9.7170 C   0  0  0  0  0  0  0  0  0  0  0  0
   -8.4520    5.5200  -10.9910 C   0  0  0  0  0  0  0  0  0  0  0  0
 16 15  2  0
 17 15  1  0
 18 17  1  0
 18 22  1  0
 22 21  2  0
 21 20  1  0
 20 19  1  0
 19 18  2  0
 15 14  1  0
 14  3  1  0
  3  2  2  0
  2  1  1  0
  4  2  1  0
  5  4  2  0
  5 13  1  0
 14 13  2  0
 13 12  1  0
 12 11  2  0
 11  6  1  0
  6  5  1  0
  7  6  1  0
  7 10  1  0
 10  9  1  0
  9  8  1  0
  8  7  1  0
M  END
$$$$
