XX01ZVNS2B-x3758_B_203_1_XX01ZVNS2B-x4590+B+203+1__LIG
     RDKit          3D

 22 24  0  0  0  0  0  0  0  0999 V2000
   -4.0450    5.3030  -19.1240 O   0  0  0  0  0  0  0  0  0  0  0  0
   -5.1210    5.0800  -18.5750 C   0  0  0  0  0  0  0  0  0  0  0  0
   -6.2540    4.6660  -19.2010 N   0  0  0  0  0  0  0  0  0  0  0  0
   -7.3070    4.4980  -18.3050 C   0  0  0  0  0  0  0  0  0  0  0  0
   -8.6120    4.0920  -18.5520 C   0  0  0  0  0  0  0  0  0  0  0  0
   -9.4780    3.9510  -17.4790 C   0  0  0  0  0  0  0  0  0  0  0  0
   -9.0520    4.2100  -16.1810 C   0  0  0  0  0  0  0  0  0  0  0  0
   -5.4370    5.2180  -17.1010 C   0  0  0  0  0  0  0  0  0  0  0  0
   -6.8650    4.7730  -17.0150 C   0  0  0  0  0  0  0  0  0  0  0  0
   -7.7460    4.6270  -15.9320 C   0  0  0  0  0  0  0  0  0  0  0  0
   -7.3390    4.9500  -14.5220 C   0  0  0  0  0  0  0  0  0  0  0  0
   -6.4050    5.7140  -14.2950 O   0  0  0  0  0  0  0  0  0  0  0  0
   -8.1500    4.4640  -13.5480 N   0  0  0  0  0  0  0  0  0  0  0  0
   -8.1720    4.8590  -12.1870 C   0  0  0  0  0  0  0  0  0  0  0  0
   -7.9750    6.2080  -11.9240 C   0  0  0  0  0  0  0  0  0  0  0  0
   -8.0150    6.6650  -10.6210 C   0  0  0  0  0  0  0  0  0  0  0  0
   -8.2570    5.7880   -9.5790 C   0  0  0  0  0  0  0  0  0  0  0  0
   -8.4050    3.9790  -11.1330 C   0  0  0  0  0  0  0  0  0  0  0  0
   -8.4520    4.4350   -9.8180 C   0  0  0  0  0  0  0  0  0  0  0  0
   -8.6810    3.4880   -8.6620 C   0  0  0  0  0  0  0  0  0  0  0  0
   -9.0810    2.0610   -9.0490 C   0  0  0  0  0  0  0  0  0  0  0  0
   -8.9910    1.2580   -7.8240 N   0  0  0  0  0  0  0  0  0  0  0  0
 22 21  1  0
 21 20  1  0
 20 19  1  0
 19 17  2  0
 17 16  1  0
 16 15  2  0
 15 14  1  0
 14 13  1  0
 13 11  1  0
 12 11  2  0
 11 10  1  0
 10  7  2  0
  7  6  1  0
  6  5  2  0
  5  4  1  0
  4  9  2  0
 10  9  1  0
  9  8  1  0
  8  2  1  0
  2  1  2  0
  3  2  1  0
  4  3  1  0
 18 14  2  0
 19 18  1  0
M  END
$$$$
