A71EV2A-x1068_A_302_1_A71EV2A-x1068+A+302+1__LIG
     RDKit          3D

  7  7  0  0  0  0  0  0  0  0999 V2000
   -3.8260    7.8620   26.3010 N   0  0  0  0  0  0  0  0  0  0  0  0
   -3.0360    6.8880   26.7470 C   0  0  0  0  0  0  0  0  0  0  0  0
   -3.1880    5.6590   26.2050 N   0  0  0  0  0  0  0  0  0  0  0  0
   -2.4300    4.6780   26.7250 C   0  0  0  0  0  0  0  0  0  0  0  0
   -1.5350    4.8770   27.7520 C   0  0  0  0  0  0  0  0  0  0  0  0
   -1.4400    6.1690   28.2140 C   0  0  0  0  0  0  0  0  0  0  0  0
   -2.1710    7.1900   27.7380 N   0  0  0  0  0  0  0  0  0  0  0  0
  2  1  1  0
  2  7  2  0
  7  6  1  0
  6  5  2  0
  5  4  1  0
  4  3  2  0
  3  2  1  0
M  END
$$$$
