A71EV2A-x5213_C_201_3_A71EV2A-x0911+A+147+1__LIG
     RDKit          3D

 19 20  0  0  0  0  0  0  0  0999 V2000
    9.6990    8.4510   23.1370 Cl  0  0  0  0  0  0  0  0  0  0  0  0
    8.8880    9.6200   24.1300 C   0  0  0  0  0  0  0  0  0  0  0  0
    7.8650    9.1540   24.8280 N   0  0  0  0  0  0  0  0  0  0  0  0
    7.3020   10.0700   25.6320 C   0  0  0  0  0  0  0  0  0  0  0  0
    7.7240   11.3820   25.7030 C   0  0  0  0  0  0  0  0  0  0  0  0
    9.4030   10.8330   24.0920 N   0  0  0  0  0  0  0  0  0  0  0  0
    8.7960   11.7240   24.8920 C   0  0  0  0  0  0  0  0  0  0  0  0
    9.3130   13.1410   24.7850 C   0  0  0  0  0  0  0  0  0  0  0  0
    8.9740   13.7490   23.4350 C   0  0  0  0  0  0  0  0  0  0  0  0
    8.0730   13.2860   22.7430 O   0  0  0  0  0  0  0  0  0  0  0  0
    9.7130   14.8100   23.0360 N   0  0  0  0  0  0  0  0  0  0  0  0
   10.7990   15.4580   23.7870 C   0  0  0  0  0  0  0  0  0  0  0  0
   12.1270   15.2310   23.0620 C   0  0  0  0  0  0  0  0  0  0  0  0
   12.0370   15.6960   21.5990 C   0  0  0  0  0  0  0  0  0  0  0  0
    9.5650   15.3220   21.6720 C   0  0  0  0  0  0  0  0  0  0  0  0
   10.8460   15.0360   20.8750 C   0  0  1  0  0  0  0  0  0  0  0  0
   10.7250   15.5310   19.4450 C   0  0  0  0  0  0  0  0  0  0  0  0
   10.3400   16.6840   19.2010 O   0  0  0  0  0  0  0  0  0  0  0  0
   11.0000   14.6430   18.4900 N   0  0  0  0  0  0  0  0  0  0  0  0
 19 17  1  0
 18 17  2  0
 16 17  1  6
 16 14  1  0
 14 13  1  0
 13 12  1  0
 12 11  1  0
 11  9  1  0
 10  9  2  0
  9  8  1  0
  8  7  1  0
  7  5  1  0
  5  4  2  0
  4  3  1  0
  3  2  2  0
  2  1  1  0
  6  2  1  0
  7  6  2  0
 15 11  1  0
 16 15  1  0
M  END
$$$$
