XX01ZVNS2B-x5148_B_203_6_XX01ZVNS2B-x4590+B+203+1__LIG
     RDKit          3D

 21 23  0  0  0  0  0  0  0  0999 V2000
   -7.7250    6.4980  -12.4230 O   0  0  0  0  0  0  0  0  0  0  0  0
   -7.8230    5.3510  -12.8550 C   0  0  0  0  0  0  0  0  0  0  0  0
   -7.4740    5.0190  -14.2860 C   0  0  0  0  0  0  0  0  0  0  0  0
   -8.6950    4.9010  -15.1650 C   0  0  0  0  0  0  0  0  0  0  0  0
   -8.2910    4.6670  -16.5980 C   0  0  0  0  0  0  0  0  0  0  0  0
   -9.4250    4.0670  -17.7250 S   0  0  0  0  0  0  0  0  0  0  0  0
   -8.2710    4.1040  -18.9880 C   0  0  0  0  0  0  0  0  0  0  0  0
   -7.0830    4.8880  -17.1840 C   0  0  0  0  0  0  0  0  0  0  0  0
   -7.0600    4.5730  -18.5730 C   0  0  0  0  0  0  0  0  0  0  0  0
   -5.9130    4.7790  -19.5250 C   0  0  0  0  0  0  0  0  0  0  0  0
   -6.0600    6.0960  -20.1750 N   0  0  0  0  0  0  0  0  0  0  0  0
   -8.2260    4.2880  -12.1130 N   0  0  0  0  0  0  0  0  0  0  0  0
   -8.4100    4.2000  -10.7120 C   0  0  0  0  0  0  0  0  0  0  0  0
   -8.7130    2.9670  -10.1380 C   0  0  0  0  0  0  0  0  0  0  0  0
   -8.8690    2.8540   -8.7590 C   0  0  0  0  0  0  0  0  0  0  0  0
   -9.1950    1.6520   -7.9200 C   0  0  0  0  0  0  0  0  0  0  0  0
   -8.8410    2.1350   -6.5830 N   0  0  0  0  0  0  0  0  0  0  0  0
   -8.8160    3.5910   -6.5030 C   0  0  0  0  0  0  0  0  0  0  0  0
   -8.7120    3.9740   -7.9510 C   0  0  0  0  0  0  0  0  0  0  0  0
   -8.4250    5.2070   -8.5250 C   0  0  0  0  0  0  0  0  0  0  0  0
   -8.2740    5.3210   -9.8960 C   0  0  0  0  0  0  0  0  0  0  0  0
 11 10  1  0
 10  9  1  0
  9  7  2  0
  7  6  1  0
  6  5  1  0
  5  4  1  0
  4  3  1  0
  3  2  1  0
  2  1  2  0
 12  2  1  0
 13 12  1  0
 13 21  2  0
 21 20  1  0
 20 19  2  0
 19 15  1  0
 15 14  2  0
 14 13  1  0
 16 15  1  0
 17 16  1  0
 18 17  1  0
 19 18  1  0
  8  5  2  0
  9  8  1  0
M  END
$$$$
