A71EV2A-x4540_A_201_1_A71EV2A-x0911+A+147+1__LIG
     RDKit          3D

 21 22  0  0  0  0  0  0  0  0999 V2000
    6.7300   13.0970   26.0590 O   0  0  0  0  0  0  0  0  0  0  0  0
    7.3130   12.1360   25.5730 C   0  0  0  0  0  0  0  0  0  0  0  0
    6.8450   10.7670   25.6400 C   0  0  0  0  0  0  0  0  0  0  0  0
    5.4600   10.4510   26.6220 Cl  0  0  0  0  0  0  0  0  0  0  0  0
    7.4730    9.7420   25.0310 C   0  0  0  0  0  0  0  0  0  0  0  0
    8.6540   10.0390   24.3410 C   0  0  0  0  0  0  0  0  0  0  0  0
    9.5580    8.6650   23.4340 Br  0  0  0  0  0  0  0  0  0  0  0  0
    9.1570   11.2820   24.2790 C   0  0  0  0  0  0  0  0  0  0  0  0
    8.5000   12.3120   24.8700 N   0  0  0  0  0  0  0  0  0  0  0  0
    9.0060   13.6710   24.7510 C   0  0  0  0  0  0  0  0  0  0  0  0
    8.8340   14.0210   23.2740 C   0  0  0  0  0  0  0  0  0  0  0  0
    8.0280   13.4200   22.5730 O   0  0  0  0  0  0  0  0  0  0  0  0
    9.6090   15.0110   22.7900 N   0  0  0  0  0  0  0  0  0  0  0  0
   10.6410   15.7270   23.5540 C   0  0  0  0  0  0  0  0  0  0  0  0
   11.9990   15.5680   22.8910 C   0  0  0  0  0  0  0  0  0  0  0  0
   11.9310   15.9340   21.4050 C   0  0  0  0  0  0  0  0  0  0  0  0
    9.5070   15.4310   21.3910 C   0  0  0  0  0  0  0  0  0  0  0  0
   10.8290   15.1530   20.6730 C   0  0  1  0  0  0  0  0  0  0  0  0
   10.7000   15.6130   19.2330 C   0  0  0  0  0  0  0  0  0  0  0  0
   10.2510   16.7270   18.9590 O   0  0  0  0  0  0  0  0  0  0  0  0
   11.0880   14.7450   18.3130 N   0  0  0  0  0  0  0  0  0  0  0  0
 21 19  1  0
 20 19  2  0
 18 19  1  6
 18 16  1  0
 16 15  1  0
 15 14  1  0
 14 13  1  0
 13 11  1  0
 12 11  2  0
 11 10  1  0
 10  9  1  0
  9  8  1  0
  8  6  2  0
  7  6  1  0
  6  5  1  0
  5  3  2  0
  4  3  1  0
  3  2  1  0
  9  2  1  0
  2  1  2  0
 17 13  1  0
 18 17  1  0
M  END
$$$$
