A71EV2A-x4304_A_201_1_A71EV2A-x0911+A+147+1__LIG
     RDKit          3D

 25 26  0  0  0  0  0  0  0  0999 V2000
   10.3540   16.9380   19.3340 O   0  0  0  0  0  0  0  0  0  0  0  0
   10.6070   15.7390   19.4480 C   0  0  0  0  0  0  0  0  0  0  0  0
   10.8480   14.9580   18.4090 N   0  0  0  0  0  0  0  0  0  0  0  0
   10.6570   15.0750   20.8120 C   0  0  1  0  0  0  0  0  0  0  0  0
   11.7240   15.7280   21.7040 C   0  0  0  0  0  0  0  0  0  0  0  0
   11.7430   15.1220   23.1110 C   0  0  0  0  0  0  0  0  0  0  0  0
   10.3610   15.1740   23.7400 C   0  0  0  0  0  0  0  0  0  0  0  0
    9.2990   15.1750   21.5180 C   0  0  0  0  0  0  0  0  0  0  0  0
    9.3600   14.5640   22.8500 N   0  0  0  0  0  0  0  0  0  0  0  0
    8.3850   13.7000   23.2550 C   0  0  0  0  0  0  0  0  0  0  0  0
    7.3930   13.4860   22.5700 O   0  0  0  0  0  0  0  0  0  0  0  0
    8.5630   13.1330   24.4760 N   0  0  0  0  0  0  0  0  0  0  0  0
    7.7410   12.1600   25.0780 C   0  0  0  0  0  0  0  0  0  0  0  0
    7.9660   10.8280   24.7130 C   0  0  0  0  0  0  0  0  0  0  0  0
    8.9080   10.6560   23.7340 O   0  0  0  0  0  0  0  0  0  0  0  0
    9.5130    9.3770   23.6070 C   0  0  0  0  0  0  0  0  0  0  0  0
    6.7630   12.4540   26.0190 C   0  0  0  0  0  0  0  0  0  0  0  0
    6.0140   11.4290   26.5840 C   0  0  0  0  0  0  0  0  0  0  0  0
    6.2670   10.1110   26.2380 C   0  0  0  0  0  0  0  0  0  0  0  0
    7.2320    9.8090   25.2960 C   0  0  0  0  0  0  0  0  0  0  0  0
    4.9140   11.7560   27.4290 N   0  0  0  0  0  0  0  0  0  0  0  0
    4.9090   11.5430   29.0430 S   0  0  0  0  0  0  0  0  0  0  0  0
    5.7050   12.5950   29.5960 O   0  0  0  0  0  0  0  0  0  0  0  0
    5.2860   10.1830   29.2840 O   0  0  0  0  0  0  0  0  0  0  0  0
    3.2490   11.7620   29.5680 C   0  0  0  0  0  0  0  0  0  0  0  0
 16 15  1  0
 15 14  1  0
 14 20  2  0
 20 19  1  0
 19 18  2  0
 21 18  1  0
 22 21  1  0
 25 22  1  0
 23 22  2  0
 24 22  2  0
 18 17  1  0
 17 13  2  0
 14 13  1  0
 13 12  1  0
 12 10  1  0
 11 10  2  0
 10  9  1  0
  9  7  1  0
  7  6  1  0
  6  5  1  0
  5  4  1  0
  4  2  1  6
  3  2  1  0
  2  1  2  0
  8  4  1  0
  9  8  1  0
M  END
$$$$
