XX01ZVNS2B-x5200_B_203_6_XX01ZVNS2B-x4590+B+203+1_ALIG
     RDKit          3D

 24 27  0  0  0  0  0  0  0  0999 V2000
  -10.0010    3.8550  -17.7190 F   0  0  0  0  0  0  0  0  0  0  0  0
   -8.8530    4.1620  -17.0490 C   0  0  0  0  0  0  0  0  0  0  0  0
   -8.8820    4.1840  -15.6740 C   0  0  0  0  0  0  0  0  0  0  0  0
   -7.7350    4.4690  -17.7870 C   0  0  0  0  0  0  0  0  0  0  0  0
   -6.5750    4.8360  -17.1100 C   0  0  0  0  0  0  0  0  0  0  0  0
   -5.3560    5.1720  -17.8620 C   0  0  0  0  0  0  0  0  0  0  0  0
   -3.8010    5.1540  -17.1310 S   0  0  0  0  0  0  0  0  0  0  0  0
   -3.0990    5.5600  -18.6510 C   0  0  0  0  0  0  0  0  0  0  0  0
   -3.9380    5.7140  -19.6300 N   0  0  0  0  0  0  0  0  0  0  0  0
   -5.2190    5.5010  -19.1810 C   0  0  0  0  0  0  0  0  0  0  0  0
   -6.5770    4.8960  -15.7180 C   0  0  0  0  0  0  0  0  0  0  0  0
   -7.7280    4.5730  -14.9980 C   0  0  0  0  0  0  0  0  0  0  0  0
   -7.6740    4.7570  -13.5120 C   0  0  0  0  0  0  0  0  0  0  0  0
   -6.8540    5.5180  -13.0020 O   0  0  0  0  0  0  0  0  0  0  0  0
   -8.5210    3.9940  -12.7770 N   0  0  0  0  0  0  0  0  0  0  0  0
   -8.5920    3.9880  -11.3560 C   0  0  0  0  0  0  0  0  0  0  0  0
   -8.7730    2.7860  -10.6800 C   0  0  0  0  0  0  0  0  0  0  0  0
   -8.8130    2.7590   -9.2870 C   0  0  0  0  0  0  0  0  0  0  0  0
   -9.0960    1.6150   -8.3560 C   0  0  0  0  0  0  0  0  0  0  0  0
   -8.8000    2.1870   -7.0220 N   0  0  0  0  0  0  0  0  0  0  0  0
   -8.7880    3.6630   -7.0970 C   0  0  0  0  0  0  0  0  0  0  0  0
   -8.6500    3.9340   -8.5680 C   0  0  0  0  0  0  0  0  0  0  0  0
   -8.4650    5.1400   -9.2420 C   0  0  0  0  0  0  0  0  0  0  0  0
   -8.4500    5.1690  -10.6280 C   0  0  0  0  0  0  0  0  0  0  0  0
 14 13  2  0
 15 13  1  0
 16 15  1  0
 16 24  2  0
 24 23  1  0
 23 22  2  0
 22 18  1  0
 18 17  2  0
 17 16  1  0
 19 18  1  0
 20 19  1  0
 21 20  1  0
 22 21  1  0
 13 12  1  0
 12  3  1  0
  3  2  2  0
  2  1  1  0
  4  2  1  0
  5  4  2  0
  6  5  1  0
  6 10  2  0
 10  9  1  0
  9  8  2  0
  8  7  1  0
  7  6  1  0
 11  5  1  0
 12 11  2  0
M  END
$$$$
XX01ZVNS2B-x5200_B_203_6_XX01ZVNS2B-x4590+B+203+1_BLIG
     RDKit          3D

 24 27  0  0  0  0  0  0  0  0999 V2000
  -10.0720    3.9980  -17.5610 F   0  0  0  0  0  0  0  0  0  0  0  0
   -8.8730    4.2410  -16.9680 C   0  0  0  0  0  0  0  0  0  0  0  0
   -8.8220    4.3040  -15.5980 C   0  0  0  0  0  0  0  0  0  0  0  0
   -7.7830    4.4530  -17.7760 C   0  0  0  0  0  0  0  0  0  0  0  0
   -6.5640    4.7620  -17.1770 C   0  0  0  0  0  0  0  0  0  0  0  0
   -5.3480    4.8930  -17.9980 C   0  0  0  0  0  0  0  0  0  0  0  0
   -5.3420    4.5330  -19.6780 S   0  0  0  0  0  0  0  0  0  0  0  0
   -3.6390    4.7870  -19.7150 C   0  0  0  0  0  0  0  0  0  0  0  0
   -3.1020    5.1320  -18.5870 N   0  0  0  0  0  0  0  0  0  0  0  0
   -4.0730    5.2000  -17.6130 C   0  0  0  0  0  0  0  0  0  0  0  0
   -6.4880    4.8750  -15.7900 C   0  0  0  0  0  0  0  0  0  0  0  0
   -7.6100    4.6310  -14.9970 C   0  0  0  0  0  0  0  0  0  0  0  0
   -7.4670    4.7190  -13.5080 C   0  0  0  0  0  0  0  0  0  0  0  0
   -6.4950    5.2750  -13.0010 O   0  0  0  0  0  0  0  0  0  0  0  0
   -8.4450    4.1260  -12.7780 N   0  0  0  0  0  0  0  0  0  0  0  0
   -8.5310    4.0780  -11.3600 C   0  0  0  0  0  0  0  0  0  0  0  0
   -8.7670    2.8710  -10.7070 C   0  0  0  0  0  0  0  0  0  0  0  0
   -8.8410    2.8250   -9.3160 C   0  0  0  0  0  0  0  0  0  0  0  0
   -9.1660    1.6780   -8.4040 C   0  0  0  0  0  0  0  0  0  0  0  0
   -8.8770    2.2350   -7.0790 N   0  0  0  0  0  0  0  0  0  0  0  0
   -8.7840    3.6960   -7.1100 C   0  0  0  0  0  0  0  0  0  0  0  0
   -8.6550    3.9860   -8.5760 C   0  0  0  0  0  0  0  0  0  0  0  0
   -8.4190    5.1920   -9.2290 C   0  0  0  0  0  0  0  0  0  0  0  0
   -8.3700    5.2420  -10.6120 C   0  0  0  0  0  0  0  0  0  0  0  0
 14 13  2  0
 15 13  1  0
 16 15  1  0
 16 24  2  0
 24 23  1  0
 23 22  2  0
 22 18  1  0
 18 17  2  0
 17 16  1  0
 19 18  1  0
 20 19  1  0
 21 20  1  0
 22 21  1  0
 13 12  1  0
 12  3  1  0
  3  2  2  0
  2  1  1  0
  4  2  1  0
  5  4  2  0
  6  5  1  0
  6 10  2  0
 10  9  1  0
  9  8  2  0
  8  7  1  0
  7  6  1  0
 11  5  1  0
 12 11  2  0
M  END
$$$$
