A71EV2A-x3992_C_201_1_A71EV2A-x0911+A+147+1__LIG
     RDKit          3D

 20 21  0  0  0  0  0  0  0  0999 V2000
   10.4630   16.6400   19.2680 O   0  0  0  0  0  0  0  0  0  0  0  0
   10.9370   15.5060   19.4150 C   0  0  0  0  0  0  0  0  0  0  0  0
   11.1890   14.6830   18.4020 N   0  0  0  0  0  0  0  0  0  0  0  0
   11.1800   14.9340   20.8030 C   0  0  1  0  0  0  0  0  0  0  0  0
   11.9460   15.8720   21.7670 C   0  0  0  0  0  0  0  0  0  0  0  0
   11.6880   15.2470   23.1330 C   0  0  0  0  0  0  0  0  0  0  0  0
    9.8740   14.7130   21.5850 C   0  0  0  0  0  0  0  0  0  0  0  0
   10.3890   14.5640   22.9520 N   0  0  0  0  0  0  0  0  0  0  0  0
    9.8350   13.7860   23.9300 C   0  0  0  0  0  0  0  0  0  0  0  0
   10.4220   13.6010   24.9950 O   0  0  0  0  0  0  0  0  0  0  0  0
    8.6270   13.2270   23.6280 N   0  0  0  0  0  0  0  0  0  0  0  0
    7.9750   12.3160   24.5080 C   0  0  0  0  0  0  0  0  0  0  0  0
    8.1880   10.9380   24.3690 C   0  0  0  0  0  0  0  0  0  0  0  0
    9.1440   10.5890   23.4490 O   0  0  0  0  0  0  0  0  0  0  0  0
    9.4620    9.1990   23.2960 C   0  0  0  0  0  0  0  0  0  0  0  0
    7.0810   12.7650   25.4780 C   0  0  0  0  0  0  0  0  0  0  0  0
    6.7980   14.4700   25.6590 Cl  0  0  0  0  0  0  0  0  0  0  0  0
    6.3950   11.8840   26.2920 C   0  0  0  0  0  0  0  0  0  0  0  0
    6.5820   10.5220   26.1210 C   0  0  0  0  0  0  0  0  0  0  0  0
    7.4720   10.0460   25.1640 C   0  0  0  0  0  0  0  0  0  0  0  0
 15 14  1  0
 14 13  1  0
 13 20  2  0
 20 19  1  0
 19 18  2  0
 18 16  1  0
 17 16  1  0
 16 12  2  0
 13 12  1  0
 12 11  1  0
 11  9  1  0
 10  9  2  0
  9  8  1  0
  8  6  1  0
  6  5  1  0
  5  4  1  0
  4  2  1  6
  3  2  1  0
  2  1  2  0
  7  4  1  0
  8  7  1  0
M  END
$$$$
