XX01ZVNS2B-x5171_B_203_6_XX01ZVNS2B-x4590+B+203+1__LIG
     RDKit          3D

 24 27  0  0  0  0  0  0  0  0999 V2000
   -9.9970    3.8140  -17.6720 F   0  0  0  0  0  0  0  0  0  0  0  0
   -8.8120    4.0690  -17.0450 C   0  0  0  0  0  0  0  0  0  0  0  0
   -8.8060    4.1320  -15.6680 C   0  0  0  0  0  0  0  0  0  0  0  0
   -7.7080    4.3340  -17.8190 C   0  0  0  0  0  0  0  0  0  0  0  0
   -6.5270    4.7090  -17.1790 C   0  0  0  0  0  0  0  0  0  0  0  0
   -5.3020    4.9600  -17.9620 C   0  0  0  0  0  0  0  0  0  0  0  0
   -5.3350    5.0190  -19.3010 N   0  0  0  0  0  0  0  0  0  0  0  0
   -4.0510    5.2460  -19.6790 N   0  0  0  0  0  0  0  0  0  0  0  0
   -3.2300    5.3330  -18.6260 C   0  0  0  0  0  0  0  0  0  0  0  0
   -3.9900    5.1640  -17.4980 C   0  0  0  0  0  0  0  0  0  0  0  0
   -6.4920    4.8080  -15.7880 C   0  0  0  0  0  0  0  0  0  0  0  0
   -7.6280    4.5150  -15.0310 C   0  0  0  0  0  0  0  0  0  0  0  0
   -7.5340    4.6720  -13.5430 C   0  0  0  0  0  0  0  0  0  0  0  0
   -6.7110    5.4330  -13.0450 O   0  0  0  0  0  0  0  0  0  0  0  0
   -8.3770    3.9170  -12.7980 N   0  0  0  0  0  0  0  0  0  0  0  0
   -8.4720    3.9180  -11.3740 C   0  0  0  0  0  0  0  0  0  0  0  0
   -8.7300    2.7280  -10.6960 C   0  0  0  0  0  0  0  0  0  0  0  0
   -8.8200    2.7110   -9.3040 C   0  0  0  0  0  0  0  0  0  0  0  0
   -9.1040    1.5750   -8.3640 C   0  0  0  0  0  0  0  0  0  0  0  0
   -8.7980    2.1460   -7.0300 N   0  0  0  0  0  0  0  0  0  0  0  0
   -8.7740    3.6170   -7.1130 C   0  0  0  0  0  0  0  0  0  0  0  0
   -8.6400    3.8860   -8.5850 C   0  0  0  0  0  0  0  0  0  0  0  0
   -8.3890    5.0790   -9.2580 C   0  0  0  0  0  0  0  0  0  0  0  0
   -8.3110    5.1000  -10.6450 C   0  0  0  0  0  0  0  0  0  0  0  0
 14 13  2  0
 15 13  1  0
 16 15  1  0
 16 24  2  0
 24 23  1  0
 23 22  2  0
 22 18  1  0
 18 17  2  0
 17 16  1  0
 19 18  1  0
 20 19  1  0
 21 20  1  0
 22 21  1  0
 13 12  1  0
 12  3  1  0
  3  2  2  0
  2  1  1  0
  4  2  1  0
  5  4  2  0
  6  5  1  0
  6 10  1  0
 10  9  2  0
  9  8  1  0
  8  7  1  0
  7  6  2  0
 11  5  1  0
 12 11  2  0
M  END
$$$$
