XX01ZVNS2B-x1688_B_301_1_XX01ZVNS2B-x4590+B+203+1__LIG
     RDKit          3D

 17 19  0  0  0  0  0  0  0  0999 V2000
   -6.7780    7.6370  -10.7160 C   0  0  0  0  0  0  0  0  0  0  0  0
   -7.1900    6.5780  -11.6740 C   0  0  0  0  0  0  0  0  0  0  0  0
   -7.2140    6.7000  -12.9990 N   0  0  0  0  0  0  0  0  0  0  0  0
   -7.6510    5.4790  -13.5000 C   0  0  0  0  0  0  0  0  0  0  0  0
   -7.8980    4.6500  -12.4400 C   0  0  0  0  0  0  0  0  0  0  0  0
   -7.6020    5.3490  -11.3090 N   0  0  0  0  0  0  0  0  0  0  0  0
   -7.8330    5.1960  -14.9390 C   0  0  0  0  0  0  0  0  0  0  0  0
   -9.0540    4.7070  -15.3520 C   0  0  0  0  0  0  0  0  0  0  0  0
   -9.2930    4.4020  -16.7010 C   0  0  0  0  0  0  0  0  0  0  0  0
   -8.3320    4.5720  -17.6630 C   0  0  0  0  0  0  0  0  0  0  0  0
   -7.0500    5.0720  -17.2750 C   0  0  0  0  0  0  0  0  0  0  0  0
   -6.0860    5.2360  -18.2390 N   0  0  0  0  0  0  0  0  0  0  0  0
   -4.9010    5.6960  -17.8660 C   0  0  0  0  0  0  0  0  0  0  0  0
   -4.5580    6.0270  -16.5420 C   0  0  0  0  0  0  0  0  0  0  0  0
   -5.5020    5.8700  -15.5680 C   0  0  0  0  0  0  0  0  0  0  0  0
   -6.7900    5.3810  -15.9080 C   0  0  0  0  0  0  0  0  0  0  0  0
   -8.6250    4.2310  -19.0950 C   0  0  0  0  0  0  0  0  0  0  0  0
  1  2  1  0
  2  3  2  0
  3  4  1  0
  4  5  2  0
  5  6  1  0
  4  7  1  0
  7  8  2  0
  8  9  1  0
  9 10  2  0
 10 11  1  0
 11 12  2  0
 12 13  1  0
 13 14  2  0
 14 15  1  0
 15 16  2  0
 10 17  1  0
  2  6  1  0
  7 16  1  0
 11 16  1  0
M  END
$$$$
