XX01ZVNS2B-x3476_B_203_1_XX01ZVNS2B-x4590+B+203+1__LIG
     RDKit          3D

 21 24  0  0  0  0  0  0  0  0999 V2000
   -6.5980    5.2280  -13.2810 O   0  0  0  0  0  0  0  0  0  0  0  0
   -7.5730    4.6190  -13.7080 C   0  0  0  0  0  0  0  0  0  0  0  0
   -8.4670    3.9920  -12.9100 N   0  0  0  0  0  0  0  0  0  0  0  0
   -8.5620    4.0230  -11.4920 C   0  0  0  0  0  0  0  0  0  0  0  0
   -8.3210    5.1950  -10.7750 C   0  0  0  0  0  0  0  0  0  0  0  0
   -8.4210    5.2020   -9.3910 C   0  0  0  0  0  0  0  0  0  0  0  0
   -8.6930    4.0110   -8.7300 C   0  0  0  0  0  0  0  0  0  0  0  0
   -8.9160    2.8400   -9.4400 C   0  0  0  0  0  0  0  0  0  0  0  0
   -8.8030    2.8170  -10.8230 C   0  0  0  0  0  0  0  0  0  0  0  0
   -9.2040    1.7200   -8.4810 C   0  0  0  0  0  0  0  0  0  0  0  0
   -8.7030    2.2820   -7.2180 N   0  0  0  0  0  0  0  0  0  0  0  0
   -8.8640    3.7450   -7.2620 C   0  0  0  0  0  0  0  0  0  0  0  0
   -7.7880    4.5030  -15.1860 C   0  0  0  0  0  0  0  0  0  0  0  0
   -9.0160    4.1220  -15.7030 C   0  0  0  0  0  0  0  0  0  0  0  0
   -9.2440    4.0220  -17.0730 C   0  0  0  0  0  0  0  0  0  0  0  0
   -8.2410    4.2630  -17.9890 C   0  0  0  0  0  0  0  0  0  0  0  0
   -7.0020    4.6410  -17.4820 C   0  0  0  0  0  0  0  0  0  0  0  0
   -5.8160    4.9570  -18.0950 N   0  0  0  0  0  0  0  0  0  0  0  0
   -4.9430    5.2550  -17.1230 C   0  0  0  0  0  0  0  0  0  0  0  0
   -5.4330    5.1250  -15.9120 N   0  0  0  0  0  0  0  0  0  0  0  0
   -6.7650    4.7680  -16.1100 C   0  0  0  0  0  0  0  0  0  0  0  0
  1  2  2  0
  2  3  1  0
  3  4  1  0
  4  5  2  0
  5  6  1  0
  6  7  2  0
  7  8  1  0
  8  9  2  0
  8 10  1  0
 10 11  1  0
 11 12  1  0
  2 13  1  0
 13 14  2  0
 14 15  1  0
 15 16  2  0
 16 17  1  0
 17 18  1  0
 18 19  1  0
 19 20  2  0
 20 21  1  0
  4  9  1  0
 13 21  1  0
  7 12  1  0
 17 21  2  0
M  END
$$$$
