A71EV2A-x4926_A_201_3_A71EV2A-x0911+A+147+1__LIG
     RDKit          3D

 22 24  0  0  0  0  0  0  0  0999 V2000
    9.7090   11.7430   22.6280 F   0  0  0  0  0  0  0  0  0  0  0  0
    8.8410   11.5470   23.6540 C   0  0  0  0  0  0  0  0  0  0  0  0
    8.6020   10.2410   24.0400 C   0  0  0  0  0  0  0  0  0  0  0  0
    7.6150    9.9740   24.9770 C   0  0  0  0  0  0  0  0  0  0  0  0
    6.9350   11.0540   25.5180 C   0  0  0  0  0  0  0  0  0  0  0  0
    7.2020   12.3710   25.1400 C   0  0  0  0  0  0  0  0  0  0  0  0
    6.3640   13.2440   25.8230 N   0  0  0  0  0  0  0  0  0  0  0  0
    5.9080   11.1440   26.4490 N   0  0  0  0  0  0  0  0  0  0  0  0
    5.6110   12.4650   26.5980 C   0  0  0  0  0  0  0  0  0  0  0  0
    4.5580   12.9520   27.5290 C   0  0  0  0  0  0  0  0  0  0  0  0
    8.1840   12.6570   24.1780 C   0  0  0  0  0  0  0  0  0  0  0  0
    8.4270   14.0810   23.7180 C   0  0  0  0  0  0  0  0  0  0  0  0
    9.6900   14.3700   23.0380 N   0  0  0  0  0  0  0  0  0  0  0  0
   10.8440   14.4250   23.7480 C   0  0  0  0  0  0  0  0  0  0  0  0
   10.8900   14.1860   24.9450 O   0  0  0  0  0  0  0  0  0  0  0  0
   12.0900   14.8640   23.0210 C   0  0  0  0  0  0  0  0  0  0  0  0
   11.8430   15.4950   21.6540 C   0  0  0  0  0  0  0  0  0  0  0  0
   10.8260   14.6630   20.8550 C   0  0  1  0  0  0  0  0  0  0  0  0
    9.4980   14.7050   21.6210 C   0  0  0  0  0  0  0  0  0  0  0  0
   10.6880   15.1680   19.4300 C   0  0  0  0  0  0  0  0  0  0  0  0
   10.1270   16.2440   19.1830 O   0  0  0  0  0  0  0  0  0  0  0  0
   11.2440   14.4150   18.4930 N   0  0  0  0  0  0  0  0  0  0  0  0
 10  9  1  0
  9  7  2  0
  7  6  1  0
  6 11  1  0
 12 11  1  0
 13 12  1  0
 13 19  1  0
 19 18  1  0
 18 20  1  6
 22 20  1  0
 21 20  2  0
 18 17  1  0
 17 16  1  0
 16 14  1  0
 14 13  1  0
 15 14  2  0
 11  2  2  0
  2  1  1  0
  3  2  1  0
  4  3  2  0
  5  4  1  0
  6  5  2  0
  8  5  1  0
  9  8  1  0
M  END
$$$$
