A71EV2A-x5512_C_201_5_A71EV2A-x0911+A+147+1__LIG
     RDKit          3D

 29 31  0  0  0  0  0  0  0  0999 V2000
   10.5240   16.7610   19.2170 O   0  0  0  0  0  0  0  0  0  0  0  0
   10.8650   15.5940   19.4570 C   0  0  0  0  0  0  0  0  0  0  0  0
   11.2080   14.7300   18.5140 N   0  0  0  0  0  0  0  0  0  0  0  0
   10.8560   15.0510   20.8770 C   0  0  1  0  0  0  0  0  0  0  0  0
   11.9540   15.7070   21.7360 C   0  0  0  0  0  0  0  0  0  0  0  0
   11.9100   15.2050   23.1930 C   0  0  0  0  0  0  0  0  0  0  0  0
   10.5120   15.3580   23.7830 C   0  0  0  0  0  0  0  0  0  0  0  0
    9.4910   15.2780   21.5360 C   0  0  0  0  0  0  0  0  0  0  0  0
    9.4950   14.7540   22.9040 N   0  0  0  0  0  0  0  0  0  0  0  0
    8.5850   13.8230   23.2870 C   0  0  0  0  0  0  0  0  0  0  0  0
    7.7760   13.3540   22.5110 O   0  0  0  0  0  0  0  0  0  0  0  0
    8.5970   13.3970   24.7420 C   0  0  0  0  0  0  0  0  0  0  0  0
    7.6110   12.2770   25.0100 C   0  0  0  0  0  0  0  0  0  0  0  0
    7.8550   10.9380   24.6660 C   0  0  0  0  0  0  0  0  0  0  0  0
    9.3570   10.5890   23.7860 S   0  0  0  0  0  0  0  0  0  0  0  0
    9.2460    8.8270   23.4390 C   0  0  0  0  0  0  0  0  0  0  0  0
    6.4170   12.5880   25.6720 C   0  0  0  0  0  0  0  0  0  0  0  0
    5.4730   11.6100   25.9850 C   0  0  0  0  0  0  0  0  0  0  0  0
    5.7550   10.2820   25.6710 C   0  0  0  0  0  0  0  0  0  0  0  0
    6.9330    9.9460   25.0180 C   0  0  0  0  0  0  0  0  0  0  0  0
    4.1550   12.0700   26.5470 C   0  0  0  0  0  0  0  0  0  0  0  0
    3.7820   13.2340   26.3980 O   0  0  0  0  0  0  0  0  0  0  0  0
    3.4060   11.1260   27.1840 N   0  0  0  0  0  0  0  0  0  0  0  0
    2.0930   11.2620   27.7370 C   0  0  0  0  0  0  0  0  0  0  0  0
    1.6610   10.2570   28.5890 C   0  0  0  0  0  0  0  0  0  0  0  0
    0.4220   10.3840   29.1890 C   0  0  0  0  0  0  0  0  0  0  0  0
   -0.3970   11.4170   28.9910 N   0  0  0  0  0  0  0  0  0  0  0  0
    0.0120   12.3530   28.1330 C   0  0  0  0  0  0  0  0  0  0  0  0
    1.2320   12.3230   27.4850 C   0  0  0  0  0  0  0  0  0  0  0  0
 16 15  1  0
 15 14  1  0
 14 20  2  0
 20 19  1  0
 19 18  2  0
 21 18  1  0
 22 21  2  0
 23 21  1  0
 24 23  1  0
 24 29  2  0
 29 28  1  0
 28 27  2  0
 27 26  1  0
 26 25  2  0
 25 24  1  0
 18 17  1  0
 17 13  2  0
 14 13  1  0
 13 12  1  0
 12 10  1  0
 11 10  2  0
 10  9  1  0
  9  7  1  0
  7  6  1  0
  6  5  1  0
  5  4  1  0
  4  2  1  6
  3  2  1  0
  2  1  2  0
  8  4  1  0
  9  8  1  0
M  END
$$$$
