A71EV2A-x5171_A_201_2_A71EV2A-x0911+A+147+1__LIG
     RDKit          3D

 23 24  0  0  0  0  0  0  0  0999 V2000
   10.4680   16.6280   19.1650 O   0  0  0  0  0  0  0  0  0  0  0  0
   10.8170   15.4780   19.4600 C   0  0  0  0  0  0  0  0  0  0  0  0
   11.1290   14.5700   18.5410 N   0  0  0  0  0  0  0  0  0  0  0  0
   10.7890   14.9910   20.8980 C   0  0  1  0  0  0  0  0  0  0  0  0
   11.7600   15.7640   21.8170 C   0  0  0  0  0  0  0  0  0  0  0  0
   11.6600   15.2030   23.2470 C   0  0  1  0  0  0  0  0  0  0  0  0
   12.4990   16.0160   24.2190 C   0  0  0  0  0  0  0  0  0  0  0  0
   12.5190   17.2540   24.1640 O   0  0  0  0  0  0  0  0  0  0  0  0
   13.1780   15.3230   25.1200 N   0  0  0  0  0  0  0  0  0  0  0  0
   10.2120   15.3070   23.7410 C   0  0  0  0  0  0  0  0  0  0  0  0
    9.3470   15.1070   21.4170 C   0  0  0  0  0  0  0  0  0  0  0  0
    9.2830   14.6600   22.8110 N   0  0  0  0  0  0  0  0  0  0  0  0
    8.3890   13.7180   23.2030 C   0  0  0  0  0  0  0  0  0  0  0  0
    7.5440   13.2890   22.4400 O   0  0  0  0  0  0  0  0  0  0  0  0
    8.4710   13.2670   24.6570 C   0  0  0  0  0  0  0  0  0  0  0  0
    7.5710   12.0930   24.9810 C   0  0  0  0  0  0  0  0  0  0  0  0
    7.8400   10.7760   24.5730 C   0  0  0  0  0  0  0  0  0  0  0  0
    9.2500   10.5320   23.5270 S   0  0  0  0  0  0  0  0  0  0  0  0
    9.3190    8.7610   23.2980 C   0  0  0  0  0  0  0  0  0  0  0  0
    6.4780   12.3160   25.8140 C   0  0  0  0  0  0  0  0  0  0  0  0
    5.6840   11.2690   26.2450 C   0  0  0  0  0  0  0  0  0  0  0  0
    5.9560    9.9850   25.8400 C   0  0  0  0  0  0  0  0  0  0  0  0
    7.0370    9.7230   25.0060 C   0  0  0  0  0  0  0  0  0  0  0  0
 19 18  1  0
 18 17  1  0
 17 23  2  0
 23 22  1  0
 22 21  2  0
 21 20  1  0
 20 16  2  0
 17 16  1  0
 16 15  1  0
 15 13  1  0
 14 13  2  0
 13 12  1  0
 12 10  1  0
 10  6  1  0
  6  7  1  1
  9  7  1  0
  8  7  2  0
  6  5  1  0
  5  4  1  0
  4  2  1  6
  3  2  1  0
  2  1  2  0
 11  4  1  0
 12 11  1  0
M  END
$$$$
