A71EV2A-x4373_A_201_1_A71EV2A-x0911+A+147+1__LIG
     RDKit          3D

 21 23  0  0  0  0  0  0  0  0999 V2000
    7.6890   13.4080   22.4600 O   0  0  0  0  0  0  0  0  0  0  0  0
    8.4800   13.9760   23.2000 C   0  0  0  0  0  0  0  0  0  0  0  0
    9.2190   15.0280   22.7890 N   0  0  0  0  0  0  0  0  0  0  0  0
   10.2440   15.6980   23.6070 C   0  0  0  0  0  0  0  0  0  0  0  0
   11.6170   15.4900   22.9950 C   0  0  0  0  0  0  0  0  0  0  0  0
   11.6310   15.9240   21.5220 C   0  0  0  0  0  0  0  0  0  0  0  0
    9.1440   15.5650   21.4270 C   0  0  0  0  0  0  0  0  0  0  0  0
   10.4750   15.3030   20.7170 C   0  0  1  0  0  0  0  0  0  0  0  0
   10.5080   15.7670   19.2700 C   0  0  0  0  0  0  0  0  0  0  0  0
   10.1840   16.9140   18.9590 O   0  0  0  0  0  0  0  0  0  0  0  0
   10.9780   14.8960   18.3970 N   0  0  0  0  0  0  0  0  0  0  0  0
    8.6820   13.5380   24.6400 C   0  0  0  0  0  0  0  0  0  0  0  0
    7.9860   12.2380   24.9470 C   0  0  0  0  0  0  0  0  0  0  0  0
    8.3500   11.0600   24.2950 C   0  0  0  0  0  0  0  0  0  0  0  0
    9.4510   10.8410   23.4930 O   0  0  0  0  0  0  0  0  0  0  0  0
    9.4750    9.4240   23.2840 C   0  0  0  0  0  0  0  0  0  0  0  0
    8.2540    8.8810   23.7950 O   0  0  0  0  0  0  0  0  0  0  0  0
    7.7350    9.8760   24.5910 C   0  0  0  0  0  0  0  0  0  0  0  0
    6.7190    9.8030   25.5340 C   0  0  0  0  0  0  0  0  0  0  0  0
    6.3430   10.9670   26.1900 C   0  0  0  0  0  0  0  0  0  0  0  0
    6.9780   12.1670   25.9100 C   0  0  0  0  0  0  0  0  0  0  0  0
 11  9  1  0
 10  9  2  0
  8  9  1  6
  8  6  1  0
  6  5  1  0
  5  4  1  0
  4  3  1  0
  3  2  1  0
  2  1  2  0
 12  2  1  0
 13 12  1  0
 13 21  2  0
 21 20  1  0
 20 19  2  0
 19 18  1  0
 18 14  2  0
 14 13  1  0
 15 14  1  0
 16 15  1  0
 17 16  1  0
 18 17  1  0
  7  3  1  0
  8  7  1  0
M  END
$$$$
