A71EV2A-x5268_A_201_3_A71EV2A-x0911+A+147+1__LIG
     RDKit          3D

 21 22  0  0  0  0  0  0  0  0999 V2000
   10.2660   16.8500   19.0450 O   0  0  0  0  0  0  0  0  0  0  0  0
   10.5930   15.6990   19.3640 C   0  0  0  0  0  0  0  0  0  0  0  0
   11.0190   14.8050   18.4880 N   0  0  0  0  0  0  0  0  0  0  0  0
   10.5310   15.2350   20.8100 C   0  0  1  0  0  0  0  0  0  0  0  0
   11.5540   15.9800   21.6800 C   0  0  0  0  0  0  0  0  0  0  0  0
   11.5330   15.4720   23.1280 C   0  0  1  0  0  0  0  0  0  0  0  0
   12.5080   16.2500   24.0040 C   0  0  0  0  0  0  0  0  0  0  0  0
   10.1170   15.5590   23.6870 C   0  0  0  0  0  0  0  0  0  0  0  0
    9.1330   15.3540   21.4330 C   0  0  0  0  0  0  0  0  0  0  0  0
    9.1560   14.8720   22.8190 N   0  0  0  0  0  0  0  0  0  0  0  0
    8.3350   13.8810   23.2490 C   0  0  0  0  0  0  0  0  0  0  0  0
    7.5180   13.3490   22.5120 O   0  0  0  0  0  0  0  0  0  0  0  0
    8.4280   13.5060   24.7180 C   0  0  0  0  0  0  0  0  0  0  0  0
    7.6100   12.2870   25.0760 C   0  0  0  0  0  0  0  0  0  0  0  0
    7.9290   10.9960   24.6290 C   0  0  0  0  0  0  0  0  0  0  0  0
    9.3600   10.7960   23.6050 S   0  0  0  0  0  0  0  0  0  0  0  0
    9.4650    9.0150   23.4010 C   0  0  0  0  0  0  0  0  0  0  0  0
    6.5160   12.4420   25.9300 C   0  0  0  0  0  0  0  0  0  0  0  0
    5.7480   11.3570   26.3160 C   0  0  0  0  0  0  0  0  0  0  0  0
    6.0580   10.0980   25.8580 C   0  0  0  0  0  0  0  0  0  0  0  0
    7.1460    9.9090   25.0180 C   0  0  0  0  0  0  0  0  0  0  0  0
 17 16  1  0
 16 15  1  0
 15 21  2  0
 21 20  1  0
 20 19  2  0
 19 18  1  0
 18 14  2  0
 15 14  1  0
 14 13  1  0
 13 11  1  0
 12 11  2  0
 11 10  1  0
 10  8  1  0
  8  6  1  0
  6  7  1  1
  6  5  1  0
  5  4  1  0
  4  2  1  6
  3  2  1  0
  2  1  2  0
  9  4  1  0
 10  9  1  0
M  END
$$$$
