XX01ZVNS2B-x2135_B_301_1_XX01ZVNS2B-x4590+B+203+1__LIG
     RDKit          3D

 22 24  0  0  0  0  0  0  0  0999 V2000
   -4.7960    4.9980  -18.0410 C   0  0  0  0  0  0  0  0  0  0  0  0
   -6.2530    4.7320  -17.9760 C   0  0  0  0  0  0  0  0  0  0  0  0
   -6.9210    4.4600  -16.8700 N   0  0  0  0  0  0  0  0  0  0  0  0
   -8.2460    4.3050  -17.2340 C   0  0  0  0  0  0  0  0  0  0  0  0
   -9.2900    3.9440  -16.2290 C   0  0  0  0  0  0  0  0  0  0  0  0
   -8.8460    4.0610  -14.8490 N   0  0  0  0  0  0  0  0  0  0  0  0
   -8.4910    5.2340  -14.3220 C   0  0  0  0  0  0  0  0  0  0  0  0
   -8.3670    6.2450  -15.0110 O   0  0  0  0  0  0  0  0  0  0  0  0
   -8.2520    5.2750  -12.8750 C   0  0  0  0  0  0  0  0  0  0  0  0
   -8.1620    4.1430  -12.0990 N   0  0  0  0  0  0  0  0  0  0  0  0
   -8.0090    4.5560  -10.8010 C   0  0  0  0  0  0  0  0  0  0  0  0
   -7.7000    3.7420   -9.5830 C   0  0  1  0  0  0  0  0  0  0  0  0
   -8.6270    4.0980   -8.3980 C   0  0  0  0  0  0  0  0  0  0  0  0
   -9.4420    2.9560   -7.7900 C   0  0  0  0  0  0  0  0  0  0  0  0
   -8.7200    1.6330   -7.8990 C   0  0  0  0  0  0  0  0  0  0  0  0
   -8.5080    1.3520   -9.3220 N   0  0  0  0  0  0  0  0  0  0  0  0
   -7.5210    2.2630   -9.9220 C   0  0  0  0  0  0  0  0  0  0  0  0
   -7.9530    5.8980  -10.7700 N   0  0  0  0  0  0  0  0  0  0  0  0
   -8.1480    6.3480  -12.0070 C   0  0  0  0  0  0  0  0  0  0  0  0
   -8.2260    7.8180  -12.2500 C   0  0  0  0  0  0  0  0  0  0  0  0
   -8.3490    4.4800  -18.5790 C   0  0  0  0  0  0  0  0  0  0  0  0
   -7.0870    4.7670  -19.0290 N   0  0  0  0  0  0  0  0  0  0  0  0
  1  2  1  0
  2  3  2  0
  3  4  1  0
  4  5  1  0
  5  6  1  0
  6  7  1  0
  7  8  2  0
  7  9  1  0
  9 10  1  0
 10 11  1  0
 12 11  1  6
 12 13  1  0
 13 14  1  0
 14 15  1  0
 15 16  1  0
 16 17  1  0
 11 18  2  0
 18 19  1  0
 19 20  1  0
  4 21  2  0
 21 22  1  0
  2 22  1  0
  9 19  2  0
 12 17  1  0
M  END
$$$$
