XX01ZVNS2B-x0800_B_301_1_XX01ZVNS2B-x4590+B+203+1__LIG
     RDKit          3D

 11 12  0  0  0  0  0  0  0  0999 V2000
   -3.1450    5.0080  -19.0070 O   0  0  0  0  0  0  0  0  0  0  0  0
   -3.7230    4.9480  -17.9030 C   0  0  0  0  0  0  0  0  0  0  0  0
   -3.0890    4.6840  -16.7640 N   0  0  0  0  0  0  0  0  0  0  0  0
   -5.1880    5.2050  -17.7970 C   0  0  0  0  0  0  0  0  0  0  0  0
   -6.0670    4.8530  -18.8190 N   0  0  0  0  0  0  0  0  0  0  0  0
   -7.2390    4.7110  -18.2190 C   0  0  0  0  0  0  0  0  0  0  0  0
   -7.1590    4.9560  -16.8950 N   0  0  0  0  0  0  0  0  0  0  0  0
   -5.8680    5.2640  -16.6170 C   0  0  0  0  0  0  0  0  0  0  0  0
   -8.5130    4.3300  -18.8300 C   0  0  0  0  0  0  0  0  0  0  0  0
   -9.7840    4.9900  -18.3760 C   0  0  0  0  0  0  0  0  0  0  0  0
   -9.5360    3.5760  -18.0300 C   0  0  0  0  0  0  0  0  0  0  0  0
  3  2  1  0
  2  1  2  0
  4  2  1  0
  4  8  2  0
  8  7  1  0
  7  6  1  0
  6  5  2  0
  5  4  1  0
  9  6  1  0
  9 11  1  0
 11 10  1  0
 10  9  1  0
M  END
$$$$
