A71EV2A-x5015_C_201_3_A71EV2A-x0911+A+147+1__LIG
     RDKit          3D

 20 21  0  0  0  0  0  0  0  0999 V2000
   10.3910   16.7980   19.1080 O   0  0  0  0  0  0  0  0  0  0  0  0
   10.7600   15.6410   19.3500 C   0  0  0  0  0  0  0  0  0  0  0  0
   11.0120   14.7410   18.4080 N   0  0  0  0  0  0  0  0  0  0  0  0
   10.8870   15.1460   20.7810 C   0  0  1  0  0  0  0  0  0  0  0  0
   12.0890   15.8040   21.4910 C   0  0  0  0  0  0  0  0  0  0  0  0
   12.1770   15.3640   22.9670 C   0  0  0  0  0  0  0  0  0  0  0  0
   10.8390   15.5770   23.6810 C   0  0  0  0  0  0  0  0  0  0  0  0
    9.6030   15.4430   21.5660 C   0  0  0  0  0  0  0  0  0  0  0  0
    9.7540   14.9290   22.9280 N   0  0  0  0  0  0  0  0  0  0  0  0
    9.0530   13.8410   23.3210 C   0  0  0  0  0  0  0  0  0  0  0  0
    8.1290   13.3800   22.6510 O   0  0  0  0  0  0  0  0  0  0  0  0
    9.4860   13.1700   24.6120 C   0  0  0  0  0  0  0  0  0  0  0  0
    8.8450   11.8080   24.7680 C   0  0  0  0  0  0  0  0  0  0  0  0
    9.3130   10.6980   24.0690 C   0  0  0  0  0  0  0  0  0  0  0  0
    8.6600    9.4880   24.2380 C   0  0  0  0  0  0  0  0  0  0  0  0
    7.5660    9.4210   25.0830 C   0  0  0  0  0  0  0  0  0  0  0  0
    7.7780   11.7530   25.5870 N   0  0  0  0  0  0  0  0  0  0  0  0
    7.1530   10.5680   25.7470 C   0  0  0  0  0  0  0  0  0  0  0  0
    6.0000   10.5450   26.6480 C   0  0  0  0  0  0  0  0  0  0  0  0
    5.4790    9.4630   27.1490 C   0  0  0  0  0  0  0  0  0  0  0  0
 20 19  2  0
 19 18  1  0
 18 16  2  0
 16 15  1  0
 15 14  2  0
 14 13  1  0
 13 12  1  0
 12 10  1  0
 11 10  2  0
 10  9  1  0
  9  7  1  0
  7  6  1  0
  6  5  1  0
  5  4  1  0
  4  2  1  6
  3  2  1  0
  2  1  2  0
  8  4  1  0
  9  8  1  0
 17 13  2  0
 18 17  1  0
M  END
$$$$
