XX01ZVNS2B-x4198_B_203_6_XX01ZVNS2B-x4590+B+203+1__LIG
     RDKit          3D

 23 26  0  0  0  0  0  0  0  0999 V2000
  -10.4100    3.8370  -18.2740 Cl  0  0  0  0  0  0  0  0  0  0  0  0
   -8.8670    4.1910  -17.5530 C   0  0  0  0  0  0  0  0  0  0  0  0
   -8.7770    4.3220  -16.1780 C   0  0  0  0  0  0  0  0  0  0  0  0
   -7.7840    4.4020  -18.3790 C   0  0  0  0  0  0  0  0  0  0  0  0
   -6.5810    4.7690  -17.7990 C   0  0  0  0  0  0  0  0  0  0  0  0
   -5.3470    4.9740  -18.3430 N   0  0  0  0  0  0  0  0  0  0  0  0
   -4.9670    4.8710  -19.7540 C   0  0  0  0  0  0  0  0  0  0  0  0
   -4.8680    6.1720  -20.5700 C   0  0  0  0  0  0  0  0  0  0  0  0
   -3.6620    5.5910  -21.2130 N   0  0  0  0  0  0  0  0  0  0  0  0
   -3.4760    4.6570  -20.0770 C   0  0  0  0  0  0  0  0  0  0  0  0
   -4.4210    5.2640  -17.3780 N   0  0  0  0  0  0  0  0  0  0  0  0
   -5.0660    5.2430  -16.2300 C   0  0  0  0  0  0  0  0  0  0  0  0
   -6.4380    4.9340  -16.4100 C   0  0  0  0  0  0  0  0  0  0  0  0
   -7.5650    4.7090  -15.6010 C   0  0  0  0  0  0  0  0  0  0  0  0
   -7.4850    4.9100  -14.1160 C   0  0  0  0  0  0  0  0  0  0  0  0
   -6.5900    5.5950  -13.6250 O   0  0  0  0  0  0  0  0  0  0  0  0
   -8.4110    4.2640  -13.3670 N   0  0  0  0  0  0  0  0  0  0  0  0
   -8.4920    4.2760  -11.9530 C   0  0  0  0  0  0  0  0  0  0  0  0
   -8.7530    3.1010  -11.2590 C   0  0  0  0  0  0  0  0  0  0  0  0
   -8.7920    3.1080   -9.8750 C   0  0  0  0  0  0  0  0  0  0  0  0
   -8.5640    4.2730   -9.1760 C   0  0  0  0  0  0  0  0  0  0  0  0
   -8.3040    5.4410   -9.8570 C   0  0  0  0  0  0  0  0  0  0  0  0
   -8.2750    5.4530  -11.2410 C   0  0  0  0  0  0  0  0  0  0  0  0
 16 15  2  0
 17 15  1  0
 18 17  1  0
 18 23  2  0
 23 22  1  0
 22 21  2  0
 21 20  1  0
 20 19  2  0
 19 18  1  0
 15 14  1  0
 14  3  1  0
  3  2  2  0
  2  1  1  0
  4  2  1  0
  5  4  2  0
  5 13  1  0
 14 13  2  0
 13 12  1  0
 12 11  2  0
 11  6  1  0
  6  5  1  0
  7  6  1  0
  7 10  1  0
 10  9  1  0
  9  8  1  0
  8  7  1  0
M  END
$$$$
