A71EV2A-x5212_A_201_3_A71EV2A-x0911+A+147+1__LIG
     RDKit          3D

 20 21  0  0  0  0  0  0  0  0999 V2000
   10.2350   16.8040   19.0700 O   0  0  0  0  0  0  0  0  0  0  0  0
   10.6030   15.6460   19.3260 C   0  0  0  0  0  0  0  0  0  0  0  0
   10.9270   14.7650   18.3900 N   0  0  0  0  0  0  0  0  0  0  0  0
   10.6930   15.1490   20.7590 C   0  0  1  0  0  0  0  0  0  0  0  0
   11.7470   15.9290   21.5580 C   0  0  0  0  0  0  0  0  0  0  0  0
   11.8280   15.4260   23.0030 C   0  0  0  0  0  0  0  0  0  0  0  0
   10.4610   15.4700   23.6650 C   0  0  0  0  0  0  0  0  0  0  0  0
    9.3380   15.2320   21.4700 C   0  0  0  0  0  0  0  0  0  0  0  0
    9.4530   14.7630   22.8560 N   0  0  0  0  0  0  0  0  0  0  0  0
    8.6310   13.7960   23.3280 C   0  0  0  0  0  0  0  0  0  0  0  0
    7.7490   13.3030   22.6400 O   0  0  0  0  0  0  0  0  0  0  0  0
    8.8280   13.3840   24.7780 C   0  0  0  0  0  0  0  0  0  0  0  0
    7.7580   12.4380   25.2700 C   0  0  0  0  0  0  0  0  0  0  0  0
    7.8550   11.0570   25.1000 C   0  0  0  0  0  0  0  0  0  0  0  0
    8.9000   10.4560   24.3000 C   0  0  0  0  0  0  0  0  0  0  0  0
    9.7390   10.0220   23.6550 N   0  0  0  0  0  0  0  0  0  0  0  0
    6.6720   12.8810   25.9990 C   0  0  0  0  0  0  0  0  0  0  0  0
    5.7660   12.0690   26.5500 N   0  0  0  0  0  0  0  0  0  0  0  0
    5.9790   10.7740   26.3510 C   0  0  0  0  0  0  0  0  0  0  0  0
    6.9650   10.2100   25.6500 N   0  0  0  0  0  0  0  0  0  0  0  0
 16 15  3  0
 15 14  1  0
 14 20  2  0
 20 19  1  0
 19 18  2  0
 18 17  1  0
 17 13  2  0
 14 13  1  0
 13 12  1  0
 12 10  1  0
 11 10  2  0
 10  9  1  0
  9  7  1  0
  7  6  1  0
  6  5  1  0
  5  4  1  0
  4  2  1  6
  3  2  1  0
  2  1  2  0
  8  4  1  0
  9  8  1  0
M  END
$$$$
