A71EV2A-x4538_A_201_1_A71EV2A-x0911+A+147+1__LIG
     RDKit          3D

 22 23  0  0  0  0  0  0  0  0999 V2000
    9.8220   10.8490   23.4240 Br  0  0  0  0  0  0  0  0  0  0  0  0
    8.3580   10.9920   24.6250 C   0  0  0  0  0  0  0  0  0  0  0  0
    7.6320    9.8520   24.9150 C   0  0  0  0  0  0  0  0  0  0  0  0
    8.0470    8.6660   24.4120 F   0  0  0  0  0  0  0  0  0  0  0  0
    6.5110    9.8900   25.7060 C   0  0  0  0  0  0  0  0  0  0  0  0
    6.1160   11.1080   26.2270 C   0  0  0  0  0  0  0  0  0  0  0  0
    6.8440   12.2580   25.9630 C   0  0  0  0  0  0  0  0  0  0  0  0
    7.9860   12.2360   25.1650 C   0  0  0  0  0  0  0  0  0  0  0  0
    8.7720   13.5110   24.9740 C   0  0  0  0  0  0  0  0  0  0  0  0
    8.2710   14.5050   25.7710 F   0  0  0  0  0  0  0  0  0  0  0  0
   10.0600   13.3280   25.3860 F   0  0  0  0  0  0  0  0  0  0  0  0
    8.7270   13.9710   23.4930 C   0  0  0  0  0  0  0  0  0  0  0  0
    7.9190   13.4110   22.7720 O   0  0  0  0  0  0  0  0  0  0  0  0
    9.5240   14.9540   23.0250 N   0  0  0  0  0  0  0  0  0  0  0  0
   10.5210   15.6990   23.8100 C   0  0  0  0  0  0  0  0  0  0  0  0
   11.9090   15.5060   23.2190 C   0  0  0  0  0  0  0  0  0  0  0  0
   11.9240   15.8900   21.7360 C   0  0  0  0  0  0  0  0  0  0  0  0
    9.4640   15.3910   21.6250 C   0  0  0  0  0  0  0  0  0  0  0  0
   10.8190   15.1780   20.9360 C   0  0  1  0  0  0  0  0  0  0  0  0
   10.8290   15.6080   19.4770 C   0  0  0  0  0  0  0  0  0  0  0  0
   10.5460   16.7640   19.1470 O   0  0  0  0  0  0  0  0  0  0  0  0
   11.1530   14.6760   18.5970 N   0  0  0  0  0  0  0  0  0  0  0  0
 22 20  1  0
 21 20  2  0
 19 20  1  6
 19 17  1  0
 17 16  1  0
 16 15  1  0
 15 14  1  0
 14 12  1  0
 13 12  2  0
 12  9  1  0
 10  9  1  0
 11  9  1  0
  9  8  1  0
  8  7  2  0
  7  6  1  0
  6  5  2  0
  5  3  1  0
  4  3  1  0
  3  2  2  0
  8  2  1  0
  2  1  1  0
 18 14  1  0
 19 18  1  0
M  END
$$$$
