A71EV2A-x3521_A_202_1_A71EV2A-x0911+A+147+1__LIG
     RDKit          3D

 23 25  0  0  0  0  0  0  0  0999 V2000
   -1.2410   12.0930   20.7070 Cl  0  0  0  0  0  0  0  0  0  0  0  0
    0.1620   12.3510   19.7220 C   0  0  0  0  0  0  0  0  0  0  0  0
    1.3050   11.6460   20.0670 C   0  0  0  0  0  0  0  0  0  0  0  0
    2.4660   11.8780   19.3580 C   0  0  0  0  0  0  0  0  0  0  0  0
    3.9070   10.9950   19.7820 Cl  0  0  0  0  0  0  0  0  0  0  0  0
    2.5080   12.7770   18.3270 C   0  0  0  0  0  0  0  0  0  0  0  0
    1.3530   13.4500   17.9840 C   0  0  0  0  0  0  0  0  0  0  0  0
    0.1530   13.2680   18.6640 C   0  0  0  0  0  0  0  0  0  0  0  0
   -1.1250   14.0190   18.2490 C   0  0  0  0  0  0  0  0  0  0  0  0
   -0.8960   15.0250   17.0920 C   0  0  0  0  0  0  0  0  0  0  0  0
   -0.6730   14.3110   15.7760 C   0  0  0  0  0  0  0  0  0  0  0  0
   -1.7640   13.4460   15.4530 O   0  0  0  0  0  0  0  0  0  0  0  0
   -1.9280   12.4380   16.4500 C   0  0  0  0  0  0  0  0  0  0  0  0
   -2.2360   13.0390   17.8020 C   0  0  0  0  0  0  0  0  0  0  0  0
   -1.6130   14.8940   19.4000 C   0  0  0  0  0  0  0  0  0  0  0  0
   -2.8070   15.0960   19.5820 O   0  0  0  0  0  0  0  0  0  0  0  0
   -0.6490   15.3730   20.1870 N   0  0  0  0  0  0  0  0  0  0  0  0
   -0.8690   16.3590   21.2320 C   0  0  1  0  0  0  0  0  0  0  0  0
   -1.3940   17.7290   20.7850 C   0  0  0  0  0  0  0  0  0  0  0  0
   -2.1110   16.2350   22.1270 C   0  0  0  0  0  0  0  0  0  0  0  0
   -1.8320   17.7550   22.2640 C   0  0  1  0  0  0  0  0  0  0  0  0
   -0.7680   18.1890   23.1840 C   0  0  0  0  0  0  0  0  0  0  0  0
    0.0800   18.5310   23.8660 N   0  0  0  0  0  0  0  0  0  0  0  0
 23 22  3  0
 21 22  1  1
 21 19  1  0
 19 18  1  0
 18 17  1  6
 17 15  1  0
 16 15  2  0
 15  9  1  0
  9  8  1  0
  8  7  2  0
  7  6  1  0
  6  4  2  0
  5  4  1  0
  4  3  1  0
  3  2  2  0
  8  2  1  0
  2  1  1  0
  9 14  1  0
 14 13  1  0
 13 12  1  0
 12 11  1  0
 11 10  1  0
 10  9  1  0
 20 18  1  0
 21 20  1  0
M  END
$$$$
