A71EV2A-x5544_A_201_4_A71EV2A-x0911+A+147+1__LIG
     RDKit          3D

 25 27  0  0  0  0  0  0  0  0999 V2000
   10.3580   16.6630   19.1720 O   0  0  0  0  0  0  0  0  0  0  0  0
   10.7380   15.5120   19.4180 C   0  0  0  0  0  0  0  0  0  0  0  0
   11.1330   14.6650   18.4760 N   0  0  0  0  0  0  0  0  0  0  0  0
   10.7810   14.9880   20.8430 C   0  0  1  0  0  0  0  0  0  0  0  0
   11.8760   15.6970   21.6560 C   0  0  0  0  0  0  0  0  0  0  0  0
   11.9230   15.1910   23.1030 C   0  0  0  0  0  0  0  0  0  0  0  0
   10.5630   15.3160   23.7620 C   0  0  0  0  0  0  0  0  0  0  0  0
    9.4510   15.2350   21.5640 C   0  0  0  0  0  0  0  0  0  0  0  0
    9.5170   14.7030   22.9280 N   0  0  0  0  0  0  0  0  0  0  0  0
    8.6780   13.7190   23.3310 C   0  0  0  0  0  0  0  0  0  0  0  0
    7.7930   13.2860   22.6070 O   0  0  0  0  0  0  0  0  0  0  0  0
    8.8940   13.1700   24.7300 C   0  0  0  0  0  0  0  0  0  0  0  0
    7.9630   12.0300   25.0770 C   0  0  0  0  0  0  0  0  0  0  0  0
    8.2420   10.7090   24.6690 C   0  0  0  0  0  0  0  0  0  0  0  0
    9.5650   10.4770   23.5360 S   0  0  0  0  0  0  0  0  0  0  0  0
    9.5740    8.6940   23.3190 C   0  0  0  0  0  0  0  0  0  0  0  0
    6.8220   12.1920   25.9090 C   0  0  0  0  0  0  0  0  0  0  0  0
    6.0890   11.1390   26.3130 N   0  0  0  0  0  0  0  0  0  0  0  0
    6.4920    9.9420   25.8750 C   0  0  0  0  0  0  0  0  0  0  0  0
    7.5190    9.6530   25.0670 N   0  0  0  0  0  0  0  0  0  0  0  0
    6.3450   13.5510   26.3890 C   0  0  0  0  0  0  0  0  0  0  0  0
    6.8680   14.7940   26.0870 C   0  0  0  0  0  0  0  0  0  0  0  0
    6.1640   15.7180   26.7480 N   0  0  0  0  0  0  0  0  0  0  0  0
    5.1840   15.1570   27.4860 N   0  0  0  0  0  0  0  0  0  0  0  0
    5.2840   13.8450   27.2720 C   0  0  0  0  0  0  0  0  0  0  0  0
 16 15  1  0
 15 14  1  0
 14 20  2  0
 20 19  1  0
 19 18  2  0
 18 17  1  0
 21 17  1  0
 21 25  1  0
 25 24  2  0
 24 23  1  0
 23 22  1  0
 22 21  2  0
 17 13  2  0
 14 13  1  0
 13 12  1  0
 12 10  1  0
 11 10  2  0
 10  9  1  0
  9  7  1  0
  7  6  1  0
  6  5  1  0
  5  4  1  0
  4  2  1  6
  3  2  1  0
  2  1  2  0
  8  4  1  0
  9  8  1  0
M  END
$$$$
