XX01ZVNS2B-x3867_B_203_1_XX01ZVNS2B-x4590+B+203+1__LIG
     RDKit          3D

 33 36  0  0  0  0  0  0  0  0999 V2000
  -10.0670    3.9650  -18.2120 Br  0  0  0  0  0  0  0  0  0  0  0  0
   -8.6230    4.5000  -17.0900 C   0  0  0  0  0  0  0  0  0  0  0  0
   -8.6520    4.1780  -15.7440 C   0  0  0  0  0  0  0  0  0  0  0  0
   -7.5680    5.1900  -17.6420 C   0  0  0  0  0  0  0  0  0  0  0  0
   -6.5120    5.5740  -16.8340 C   0  0  0  0  0  0  0  0  0  0  0  0
   -6.5170    5.2390  -15.4910 C   0  0  0  0  0  0  0  0  0  0  0  0
   -5.4760    5.5300  -14.6440 O   0  0  0  0  0  0  0  0  0  0  0  0
   -5.2040    6.9120  -14.3370 C   0  0  0  0  0  0  0  0  0  0  0  0
   -4.6120    7.0380  -12.9590 C   0  0  0  0  0  0  0  0  0  0  0  0
   -3.4370    7.6860  -12.8990 N   0  0  0  0  0  0  0  0  0  0  0  0
   -2.8540    7.8020  -11.6930 C   0  0  0  0  0  0  0  0  0  0  0  0
   -3.3940    7.2950  -10.5280 C   0  0  0  0  0  0  0  0  0  0  0  0
   -4.5980    6.6380  -10.6070 C   0  0  0  0  0  0  0  0  0  0  0  0
   -5.2270    6.5040  -11.8320 C   0  0  0  0  0  0  0  0  0  0  0  0
   -7.5800    4.5340  -14.9230 C   0  0  0  0  0  0  0  0  0  0  0  0
   -7.5010    4.1480  -13.4530 C   0  0  2  0  0  0  0  0  0  0  0  0
   -6.6500    2.9030  -13.2610 C   0  0  0  0  0  0  0  0  0  0  0  0
   -5.4370    3.1360  -12.7620 N   0  0  0  0  0  0  0  0  0  0  0  0
   -4.5180    2.0660  -12.3910 C   0  0  0  0  0  0  0  0  0  0  0  0
   -3.3400    1.9890  -13.4310 C   0  0  0  0  0  0  0  0  0  0  0  0
   -3.8480    2.2340  -14.6650 F   0  0  0  0  0  0  0  0  0  0  0  0
   -2.4500    2.9890  -13.1960 F   0  0  0  0  0  0  0  0  0  0  0  0
   -7.0720    1.7800  -13.5220 O   0  0  0  0  0  0  0  0  0  0  0  0
   -8.7440    4.0550  -12.7190 N   0  0  0  0  0  0  0  0  0  0  0  0
   -8.7110    4.0800  -11.3290 C   0  0  0  0  0  0  0  0  0  0  0  0
   -9.0230    2.9380  -10.5960 C   0  0  0  0  0  0  0  0  0  0  0  0
   -8.9290    2.9510   -9.2090 C   0  0  0  0  0  0  0  0  0  0  0  0
   -9.2110    1.8570   -8.2220 C   0  0  0  0  0  0  0  0  0  0  0  0
   -8.8360    2.4680   -6.9470 N   0  0  0  0  0  0  0  0  0  0  0  0
   -8.5580    3.9000   -7.0650 C   0  0  0  0  0  0  0  0  0  0  0  0
   -8.5290    4.1040   -8.5500 C   0  0  0  0  0  0  0  0  0  0  0  0
   -8.2110    5.2420   -9.2850 C   0  0  0  0  0  0  0  0  0  0  0  0
   -8.3040    5.2330  -10.6650 C   0  0  0  0  0  0  0  0  0  0  0  0
 23 17  2  0
 18 17  1  0
 19 18  1  0
 20 19  1  0
 22 20  1  0
 21 20  1  0
 17 16  1  0
 16 24  1  6
 25 24  1  0
 25 33  2  0
 33 32  1  0
 32 31  2  0
 31 27  1  0
 27 26  2  0
 26 25  1  0
 28 27  1  0
 29 28  1  0
 30 29  1  0
 31 30  1  0
 16 15  1  0
 15  3  1  0
  3  2  2  0
  2  1  1  0
  4  2  1  0
  5  4  2  0
  6  5  1  0
 15  6  2  0
  7  6  1  0
  8  7  1  0
  9  8  1  0
  9 14  2  0
 14 13  1  0
 13 12  2  0
 12 11  1  0
 11 10  2  0
 10  9  1  0
M  END
$$$$
