A71EV2A-x4963_C_201_1_A71EV2A-x0911+A+147+1__LIG
     RDKit          3D

 23 25  0  0  0  0  0  0  0  0999 V2000
    9.7470   13.5910   24.9230 O   0  0  0  0  0  0  0  0  0  0  0  0
    9.2800   13.8180   23.8090 C   0  0  0  0  0  0  0  0  0  0  0  0
    7.9140   13.2810   23.4330 C   0  0  0  0  0  0  0  0  0  0  0  0
    7.4680   12.2920   24.4860 C   0  0  0  0  0  0  0  0  0  0  0  0
    7.8620   10.9560   24.4150 C   0  0  0  0  0  0  0  0  0  0  0  0
    8.9280   10.7110   23.5860 O   0  0  0  0  0  0  0  0  0  0  0  0
    9.2560    9.3480   23.3060 C   0  0  0  0  0  0  0  0  0  0  0  0
    7.2930   10.0000   25.2550 C   0  0  0  0  0  0  0  0  0  0  0  0
    6.4020   10.3980   26.2410 C   0  0  0  0  0  0  0  0  0  0  0  0
    6.0750   11.7320   26.3840 C   0  0  0  0  0  0  0  0  0  0  0  0
    6.5980   12.6710   25.5080 C   0  0  0  0  0  0  0  0  0  0  0  0
    9.9460   14.5090   22.8620 N   0  0  0  0  0  0  0  0  0  0  0  0
    9.5240   14.7620   21.5010 C   0  0  0  0  0  0  0  0  0  0  0  0
   10.7870   15.4020   20.9020 C   0  0  2  0  0  0  0  0  0  0  0  0
   11.0280   16.3850   22.1030 C   0  0  0  0  0  0  0  0  0  0  0  0
   10.7480   15.8320   19.4540 C   0  0  0  0  0  0  0  0  0  0  0  0
   10.4390   16.9890   19.1660 O   0  0  0  0  0  0  0  0  0  0  0  0
   11.0520   14.9090   18.5470 N   0  0  0  0  0  0  0  0  0  0  0  0
   11.8180   14.4450   21.5840 C   0  0  0  0  0  0  0  0  0  0  0  0
   11.3020   15.0850   22.8970 C   0  0  2  0  0  0  0  0  0  0  0  0
   12.0900   15.1210   24.2030 C   0  0  0  0  0  0  0  0  0  0  0  0
   11.4160   16.0610   25.0310 O   0  0  0  0  0  0  0  0  0  0  0  0
   11.8390   15.9810   26.3890 C   0  0  0  0  0  0  0  0  0  0  0  0
 23 22  1  0
 22 21  1  0
 20 21  1  1
 20 15  1  0
 15 14  1  0
 14 16  1  6
 18 16  1  0
 17 16  2  0
 14 13  1  0
 13 12  1  0
 20 12  1  0
 12  2  1  0
  2  1  2  0
  3  2  1  0
  4  3  1  0
  4 11  2  0
 11 10  1  0
 10  9  2  0
  9  8  1  0
  8  5  2  0
  5  4  1  0
  6  5  1  0
  7  6  1  0
 19 14  1  0
 20 19  1  0
M  END
$$$$
