XX01ZVNS2B-x5084_B_203_6_XX01ZVNS2B-x4590+B+203+1_ALIG
     RDKit          3D

 33 37  0  0  0  0  0  0  0  0999 V2000
  -10.4830    3.8100  -17.9570 Cl  0  0  0  0  0  0  0  0  0  0  0  0
   -9.0000    4.2710  -17.1650 C   0  0  0  0  0  0  0  0  0  0  0  0
   -8.8800    4.1030  -15.7930 C   0  0  0  0  0  0  0  0  0  0  0  0
   -7.9720    4.7700  -17.9370 C   0  0  0  0  0  0  0  0  0  0  0  0
   -6.7830    5.0950  -17.3040 C   0  0  0  0  0  0  0  0  0  0  0  0
   -6.6190    4.8960  -15.9310 C   0  0  0  0  0  0  0  0  0  0  0  0
   -5.2910    5.1070  -15.5740 N   0  0  0  0  0  0  0  0  0  0  0  0
   -4.6720    5.3870  -16.7150 C   0  0  0  0  0  0  0  0  0  0  0  0
   -3.2190    5.5770  -16.8560 C   0  0  0  0  0  0  0  0  0  0  0  0
   -2.6020    5.3760  -18.0890 C   0  0  0  0  0  0  0  0  0  0  0  0
   -1.2450    5.6050  -18.2390 C   0  0  0  0  0  0  0  0  0  0  0  0
   -0.4890    6.0350  -17.1670 C   0  0  0  0  0  0  0  0  0  0  0  0
   -1.0890    6.2340  -15.9400 C   0  0  0  0  0  0  0  0  0  0  0  0
   -2.4460    6.0030  -15.7800 C   0  0  0  0  0  0  0  0  0  0  0  0
   -5.5220    5.4050  -17.7800 N   0  0  0  0  0  0  0  0  0  0  0  0
   -7.6770    4.4040  -15.1450 C   0  0  0  0  0  0  0  0  0  0  0  0
   -7.4930    4.1740  -13.6470 C   0  0  2  0  0  0  0  0  0  0  0  0
   -6.7070    2.8790  -13.3460 C   0  0  0  0  0  0  0  0  0  0  0  0
   -7.1100    1.7850  -13.7350 O   0  0  0  0  0  0  0  0  0  0  0  0
   -5.6080    3.0310  -12.5970 N   0  0  0  0  0  0  0  0  0  0  0  0
   -4.5130    2.0600  -12.5630 C   0  0  0  0  0  0  0  0  0  0  0  0
   -3.7550    2.1930  -11.2600 C   0  0  0  0  0  0  0  0  0  0  0  0
   -3.6120    2.2500  -13.7660 C   0  0  0  0  0  0  0  0  0  0  0  0
   -8.6920    4.2030  -12.8330 N   0  0  0  0  0  0  0  0  0  0  0  0
   -8.6160    4.1410  -11.4370 C   0  0  0  0  0  0  0  0  0  0  0  0
   -8.9310    2.9570  -10.7710 C   0  0  0  0  0  0  0  0  0  0  0  0
   -8.8960    2.8970   -9.3790 C   0  0  0  0  0  0  0  0  0  0  0  0
   -9.2100    1.7610   -8.4500 C   0  0  0  0  0  0  0  0  0  0  0  0
   -8.8020    2.2890   -7.1490 N   0  0  0  0  0  0  0  0  0  0  0  0
   -8.6300    3.7420   -7.1780 C   0  0  0  0  0  0  0  0  0  0  0  0
   -8.5400    4.0250   -8.6500 C   0  0  0  0  0  0  0  0  0  0  0  0
   -8.1960    5.1980   -9.3140 C   0  0  0  0  0  0  0  0  0  0  0  0
   -8.2300    5.2570  -10.6990 C   0  0  0  0  0  0  0  0  0  0  0  0
 23 21  1  0
 22 21  1  0
 21 20  1  0
 20 18  1  0
 19 18  2  0
 18 17  1  0
 17 24  1  1
 25 24  1  0
 25 33  2  0
 33 32  1  0
 32 31  2  0
 31 27  1  0
 27 26  2  0
 26 25  1  0
 28 27  1  0
 29 28  1  0
 30 29  1  0
 31 30  1  0
 17 16  1  0
 16  3  1  0
  3  2  2  0
  2  1  1  0
  4  2  1  0
  5  4  2  0
  5 15  1  0
 15  8  1  0
  9  8  1  0
  9 14  2  0
 14 13  1  0
 13 12  2  0
 12 11  1  0
 11 10  2  0
 10  9  1  0
  8  7  2  0
  7  6  1  0
 16  6  2  0
  6  5  1  0
M  END
$$$$
XX01ZVNS2B-x5084_B_203_6_XX01ZVNS2B-x4590+B+203+1_BLIG
     RDKit          3D

 33 37  0  0  0  0  0  0  0  0999 V2000
  -10.2520    4.2590  -18.1250 Cl  0  0  0  0  0  0  0  0  0  0  0  0
   -8.8400    4.5420  -17.1460 C   0  0  0  0  0  0  0  0  0  0  0  0
   -8.9870    4.6840  -15.7740 C   0  0  0  0  0  0  0  0  0  0  0  0
   -7.6200    4.6850  -17.7730 C   0  0  0  0  0  0  0  0  0  0  0  0
   -6.5240    5.0070  -16.9880 C   0  0  0  0  0  0  0  0  0  0  0  0
   -6.6470    5.1820  -15.6060 C   0  0  0  0  0  0  0  0  0  0  0  0
   -5.4160    5.5240  -15.0580 N   0  0  0  0  0  0  0  0  0  0  0  0
   -4.5790    5.5600  -16.0910 C   0  0  0  0  0  0  0  0  0  0  0  0
   -3.1450    5.8750  -15.9950 C   0  0  0  0  0  0  0  0  0  0  0  0
   -2.4960    6.5300  -17.0420 C   0  0  0  0  0  0  0  0  0  0  0  0
   -1.1310    6.7560  -16.9900 C   0  0  0  0  0  0  0  0  0  0  0  0
   -0.3980    6.3390  -15.8960 C   0  0  0  0  0  0  0  0  0  0  0  0
   -1.0310    5.7000  -14.8480 C   0  0  0  0  0  0  0  0  0  0  0  0
   -2.3970    5.4680  -14.8930 C   0  0  0  0  0  0  0  0  0  0  0  0
   -5.1920    5.2600  -17.2700 N   0  0  0  0  0  0  0  0  0  0  0  0
   -7.8960    5.0340  -14.9750 C   0  0  0  0  0  0  0  0  0  0  0  0
   -8.1180    5.3620  -13.5010 C   0  0  2  0  0  0  0  0  0  0  0  0
   -7.5840    6.7900  -13.1830 C   0  0  0  0  0  0  0  0  0  0  0  0
   -6.3780    6.9930  -13.0500 O   0  0  0  0  0  0  0  0  0  0  0  0
   -8.5140    7.7510  -13.0750 N   0  0  0  0  0  0  0  0  0  0  0  0
   -8.2880    9.0810  -12.4910 C   0  0  0  0  0  0  0  0  0  0  0  0
   -7.9440    8.9910  -11.0150 C   0  0  0  0  0  0  0  0  0  0  0  0
   -7.2620    9.8770  -13.2800 C   0  0  0  0  0  0  0  0  0  0  0  0
   -7.5970    4.3530  -12.5930 N   0  0  0  0  0  0  0  0  0  0  0  0
   -7.9110    4.3070  -11.2270 C   0  0  0  0  0  0  0  0  0  0  0  0
   -8.4470    3.1430  -10.6750 C   0  0  0  0  0  0  0  0  0  0  0  0
   -8.6880    3.0580   -9.3050 C   0  0  0  0  0  0  0  0  0  0  0  0
   -9.2190    1.9190   -8.4820 C   0  0  0  0  0  0  0  0  0  0  0  0
   -8.9460    2.3740   -7.1210 N   0  0  0  0  0  0  0  0  0  0  0  0
   -8.7350    3.8190   -7.0580 C   0  0  0  0  0  0  0  0  0  0  0  0
   -8.4090    4.1460   -8.4880 C   0  0  0  0  0  0  0  0  0  0  0  0
   -7.8840    5.3090   -9.0380 C   0  0  0  0  0  0  0  0  0  0  0  0
   -7.6330    5.3900  -10.3970 C   0  0  0  0  0  0  0  0  0  0  0  0
 23 21  1  0
 22 21  1  0
 21 20  1  0
 20 18  1  0
 19 18  2  0
 18 17  1  0
 17 24  1  1
 25 24  1  0
 25 33  2  0
 33 32  1  0
 32 31  2  0
 31 27  1  0
 27 26  2  0
 26 25  1  0
 28 27  1  0
 29 28  1  0
 30 29  1  0
 31 30  1  0
 17 16  1  0
 16  3  1  0
  3  2  2  0
  2  1  1  0
  4  2  1  0
  5  4  2  0
  5 15  1  0
 15  8  1  0
  9  8  1  0
  9 14  2  0
 14 13  1  0
 13 12  2  0
 12 11  1  0
 11 10  2  0
 10  9  1  0
  8  7  2  0
  7  6  1  0
 16  6  2  0
  6  5  1  0
M  END
$$$$
