A71EV2A-x4877_C_201_1_A71EV2A-x0911+A+147+1__LIG
     RDKit          3D

 20 22  0  0  0  0  0  0  0  0999 V2000
    7.9510   13.3150   22.6250 O   0  0  0  0  0  0  0  0  0  0  0  0
    8.8520   13.7890   23.3050 C   0  0  0  0  0  0  0  0  0  0  0  0
    9.6000   14.8320   22.8950 N   0  0  0  0  0  0  0  0  0  0  0  0
   10.6270   15.5380   23.6790 C   0  0  0  0  0  0  0  0  0  0  0  0
   11.9920   15.3740   23.0330 C   0  0  0  0  0  0  0  0  0  0  0  0
   11.9570   15.8210   21.5630 C   0  0  0  0  0  0  0  0  0  0  0  0
    9.5160   15.2810   21.5020 C   0  0  0  0  0  0  0  0  0  0  0  0
   10.8620   15.0590   20.7980 C   0  0  1  0  0  0  0  0  0  0  0  0
   10.7490   15.5340   19.3630 C   0  0  0  0  0  0  0  0  0  0  0  0
   10.3930   16.6970   19.1000 O   0  0  0  0  0  0  0  0  0  0  0  0
   11.0060   14.6210   18.4340 N   0  0  0  0  0  0  0  0  0  0  0  0
    9.1220   13.2530   24.7100 C   0  0  2  0  0  0  0  0  0  0  0  0
    8.7910   11.7920   24.6830 C   0  0  0  0  0  0  0  0  0  0  0  0
    9.5530   10.8760   23.8890 C   0  0  0  0  0  0  0  0  0  0  0  0
    9.1630    9.6150   24.0540 C   0  0  0  0  0  0  0  0  0  0  0  0
    7.9100    9.4560   25.1130 S   0  0  0  0  0  0  0  0  0  0  0  0
    7.8460   11.1460   25.3960 C   0  0  0  0  0  0  0  0  0  0  0  0
    6.8820   11.7950   26.3480 C   0  0  0  0  0  0  0  0  0  0  0  0
    6.6560   13.2330   25.9180 C   0  0  0  0  0  0  0  0  0  0  0  0
    8.1830   14.2010   25.9620 S   0  0  0  0  0  0  0  0  0  0  0  0
 11  9  1  0
 10  9  2  0
  8  9  1  6
  8  6  1  0
  6  5  1  0
  5  4  1  0
  4  3  1  0
  3  2  1  0
  2  1  2  0
 12  2  1  6
 12 20  1  0
 20 19  1  0
 19 18  1  0
 18 17  1  0
 17 16  1  0
 16 15  1  0
 15 14  2  0
 14 13  1  0
 17 13  2  0
 13 12  1  0
  7  3  1  0
  8  7  1  0
M  END
$$$$
