C35470-P107
     RDKit          3D

 31 34  0  0  0  0  0  0  0  0999 V2000
    2.9277  -11.5030   31.1415 O   0  0  0  0  0  0  0  0  0  0  0  0
    2.7671  -11.2663   29.9759 C   0  0  0  0  0  0  0  0  0  0  0  0
    1.7833  -11.8087   29.0125 N   0  0  0  0  0  0  0  0  0  0  0  0
    0.7068  -12.7201   29.1932 C   0  0  0  0  0  0  0  0  0  0  0  0
   -0.1650  -13.1357   28.0025 C   0  0  0  0  0  0  0  0  0  0  0  0
   -1.2205  -13.9021   27.9832 N   0  0  0  0  0  0  0  0  0  0  0  0
   -1.6009  -14.4512   29.1715 C   0  0  0  0  0  0  0  0  0  0  0  0
   -2.6264  -15.2396   29.4432 N   0  0  0  0  0  0  0  0  0  0  0  0
   -2.5432  -15.5258   30.7807 C   0  0  0  0  0  0  0  0  0  0  0  0
   -1.4572  -14.8925   31.3429 C   0  0  0  0  0  0  0  0  0  0  0  0
   -0.8541  -14.1908   30.3190 N   0  0  0  0  0  0  0  0  0  0  0  0
    0.2759  -13.3350   30.3217 C   0  0  0  0  0  0  0  0  0  0  0  0
    3.8121  -10.1650   29.4424 C   0  0  0  0  0  0  0  0  0  0  0  0
    4.2912   -9.2030   30.3262 C   0  0  0  0  0  0  0  0  0  0  0  0
    5.5148   -8.2107   29.6734 S   0  0  0  0  0  0  0  0  0  0  0  0
    5.4429   -9.0581   28.1751 C   0  0  0  0  0  0  0  0  0  0  0  0
    6.3118   -8.6324   27.0594 C   0  0  0  0  0  0  0  0  0  0  0  0
    7.2684   -9.3646   26.3699 C   0  0  0  0  0  0  0  0  0  0  0  0
    7.9740   -8.6037   25.3783 C   0  0  0  0  0  0  0  0  0  0  0  0
    7.5200   -7.3086   25.3078 C   0  0  0  0  0  0  0  0  0  0  0  0
    6.2894   -7.0068   26.4544 S   0  0  0  0  0  0  0  0  0  0  0  0
    4.4983  -10.0267   28.1643 N   0  0  0  0  0  0  0  0  0  0  0  0
    1.9883  -11.4473   28.0898 H   0  0  0  0  0  0  0  0  0  0  0  0
    0.1622  -12.7062   27.0425 H   0  0  0  0  0  0  0  0  0  0  0  0
   -3.2668  -16.1701   31.2648 H   0  0  0  0  0  0  0  0  0  0  0  0
   -1.0718  -14.8735   32.3516 H   0  0  0  0  0  0  0  0  0  0  0  0
    0.7579  -13.1924   31.2815 H   0  0  0  0  0  0  0  0  0  0  0  0
    3.9926   -9.0701   31.3582 H   0  0  0  0  0  0  0  0  0  0  0  0
    7.4664  -10.4099   26.5760 H   0  0  0  0  0  0  0  0  0  0  0  0
    8.7483   -9.0040   24.7366 H   0  0  0  0  0  0  0  0  0  0  0  0
    7.8331   -6.5241   24.6352 H   0  0  0  0  0  0  0  0  0  0  0  0
  1  2  2  0
  2  3  1  0
  3  4  1  0
  4  5  1  0
  5  6  2  0
  6  7  1  0
  7  8  2  0
  8  9  1  0
  9 10  2  0
 10 11  1  0
 11 12  1  0
  2 13  1  0
 13 14  2  0
 14 15  1  0
 15 16  1  0
 16 17  1  0
 17 18  2  0
 18 19  1  0
 19 20  2  0
 20 21  1  0
 16 22  2  0
 12  4  2  0
 22 13  1  0
 11  7  1  0
 21 17  1  0
  3 23  1  0
  5 24  1  0
  9 25  1  0
 10 26  1  0
 12 27  1  0
 14 28  1  0
 18 29  1  0
 19 30  1  0
 20 31  1  0
M  END
>  <Energy>  (1) 
93.514834921750079

>  <compound_id>  (1) 
35470

>  <target_id>  (1) 
1

>  <reference_id>  (1) 
107

>  <inspiration_ids>  (1) 
[107, 76]

>  <energy_score>  (1) 
-82.59041988623085

>  <distance_score>  (1) 
16.708337003155606

>  <path>  (1) 
/opt/xchem-fragalysis-2/maxwin/BulkDock/SCRATCH/511013/C35470-P107/C35470-P107.minimised.mol

>  <scratch_subdir>  (1) 
/opt/xchem-fragalysis-2/maxwin/BulkDock/SCRATCH/511013/C35470-P107

>  <fragmenstein_runtime>  (1) 
16.778679132461548

>  <fragmenstein_outcome>  (1) 
too moved

>  <fragmenstein_mode>  (1) 
expansion

>  <fragmenstein_error>  (1) 


$$$$
C35470-P76
     RDKit          3D

 31 34  0  0  0  0  0  0  0  0999 V2000
    5.1974  -15.6427   27.5983 O   0  0  0  0  0  0  0  0  0  0  0  0
    4.7445  -14.5972   27.9761 C   0  0  0  0  0  0  0  0  0  0  0  0
    3.4382  -14.2867   28.6362 N   0  0  0  0  0  0  0  0  0  0  0  0
    2.3180  -15.1162   28.9231 C   0  0  0  0  0  0  0  0  0  0  0  0
    0.9823  -14.4260   29.2292 C   0  0  0  0  0  0  0  0  0  0  0  0
   -0.1867  -14.9447   29.4704 N   0  0  0  0  0  0  0  0  0  0  0  0
   -0.2571  -16.3035   29.4587 C   0  0  0  0  0  0  0  0  0  0  0  0
   -1.2998  -17.0841   29.6769 N   0  0  0  0  0  0  0  0  0  0  0  0
   -0.8400  -18.3671   29.5594 C   0  0  0  0  0  0  0  0  0  0  0  0
    0.5047  -18.3754   29.2587 C   0  0  0  0  0  0  0  0  0  0  0  0
    0.8908  -17.0524   29.1936 N   0  0  0  0  0  0  0  0  0  0  0  0
    2.1555  -16.4615   28.9234 C   0  0  0  0  0  0  0  0  0  0  0  0
    5.6764  -13.3194   27.7998 C   0  0  0  0  0  0  0  0  0  0  0  0
    5.7707  -12.3131   28.7489 C   0  0  0  0  0  0  0  0  0  0  0  0
    6.7953  -11.0378   28.2635 S   0  0  0  0  0  0  0  0  0  0  0  0
    7.1914  -11.8505   26.7831 C   0  0  0  0  0  0  0  0  0  0  0  0
    8.2129  -11.2790   25.8833 C   0  0  0  0  0  0  0  0  0  0  0  0
    9.1524  -11.9563   25.1194 C   0  0  0  0  0  0  0  0  0  0  0  0
   10.1491  -11.0993   24.5389 C   0  0  0  0  0  0  0  0  0  0  0  0
    9.8988   -9.7708   24.7923 C   0  0  0  0  0  0  0  0  0  0  0  0
    8.4725   -9.5671   25.7140 S   0  0  0  0  0  0  0  0  0  0  0  0
    6.5573  -13.0243   26.6529 N   0  0  0  0  0  0  0  0  0  0  0  0
    3.3494  -13.2861   28.7422 H   0  0  0  0  0  0  0  0  0  0  0  0
    1.0429  -13.3240   29.2316 H   0  0  0  0  0  0  0  0  0  0  0  0
   -1.4992  -19.2152   29.6950 H   0  0  0  0  0  0  0  0  0  0  0  0
    1.2044  -19.1804   29.0898 H   0  0  0  0  0  0  0  0  0  0  0  0
    2.9674  -17.1448   28.7055 H   0  0  0  0  0  0  0  0  0  0  0  0
    5.2880  -12.2679   29.7147 H   0  0  0  0  0  0  0  0  0  0  0  0
    9.1765  -13.0393   25.0509 H   0  0  0  0  0  0  0  0  0  0  0  0
   10.9943  -11.4541   23.9609 H   0  0  0  0  0  0  0  0  0  0  0  0
   10.4757   -8.9131   24.4769 H   0  0  0  0  0  0  0  0  0  0  0  0
  1  2  2  0
  2  3  1  0
  3  4  1  0
  4  5  1  0
  5  6  2  0
  6  7  1  0
  7  8  2  0
  8  9  1  0
  9 10  2  0
 10 11  1  0
 11 12  1  0
  2 13  1  0
 13 14  2  0
 14 15  1  0
 15 16  1  0
 16 17  1  0
 17 18  2  0
 18 19  1  0
 19 20  2  0
 20 21  1  0
 16 22  2  0
 12  4  2  0
 22 13  1  0
 11  7  1  0
 21 17  1  0
  3 23  1  0
  5 24  1  0
  9 25  1  0
 10 26  1  0
 12 27  1  0
 14 28  1  0
 18 29  1  0
 19 30  1  0
 20 31  1  0
M  END
>  <Energy>  (2) 
96.902704693126623

>  <compound_id>  (2) 
35470

>  <target_id>  (2) 
1

>  <reference_id>  (2) 
76

>  <inspiration_ids>  (2) 
[107, 76]

>  <energy_score>  (2) 
-79.20255011484937

>  <distance_score>  (2) 
16.599590793630448

>  <path>  (2) 
/opt/xchem-fragalysis-2/maxwin/BulkDock/SCRATCH/511013/C35470-P76/C35470-P76.minimised.mol

>  <scratch_subdir>  (2) 
/opt/xchem-fragalysis-2/maxwin/BulkDock/SCRATCH/511013/C35470-P76

>  <fragmenstein_runtime>  (2) 
10.05630898475647

>  <fragmenstein_outcome>  (2) 
too moved

>  <fragmenstein_mode>  (2) 
expansion

>  <fragmenstein_error>  (2) 


$$$$
C35475-P107
     RDKit          3D

 30 33  0  0  0  0  0  0  0  0999 V2000
    8.2464  -10.5618   19.0196 C   0  0  0  0  0  0  0  0  0  0  0  0
    8.0613   -9.7109   20.0852 C   0  0  0  0  0  0  0  0  0  0  0  0
    6.4114   -9.3047   20.2965 S   0  0  0  0  0  0  0  0  0  0  0  0
    5.9303  -10.2891   18.9835 C   0  0  0  0  0  0  0  0  0  0  0  0
    4.5486  -10.5437   18.6729 C   0  0  0  0  0  0  0  0  0  0  0  0
    4.0605  -10.5996   17.4482 N   0  0  0  0  0  0  0  0  0  0  0  0
    2.7562  -11.0925   17.5567 N   0  0  0  0  0  0  0  0  0  0  0  0
    2.5213  -11.3356   18.8372 C   0  0  0  0  0  0  0  0  0  0  0  0
    0.9539  -11.8347   19.5619 S   0  0  0  0  0  0  0  0  0  0  0  0
    0.5364  -13.6399   19.1232 C   0  0  0  0  0  0  0  0  0  0  0  0
   -0.5365  -14.5820   19.9583 C   0  0  0  0  0  0  0  0  0  0  0  0
   -0.2761  -15.8348   20.5272 C   0  0  0  0  0  0  0  0  0  0  0  0
   -1.4780  -16.4242   20.8755 N   0  0  0  0  0  0  0  0  0  0  0  0
   -1.7619  -17.6722   21.4450 C   0  0  0  0  0  0  0  0  0  0  0  0
   -3.0292  -18.0238   21.7116 C   0  0  0  0  0  0  0  0  0  0  0  0
   -4.0392  -17.0086   21.3161 C   0  0  0  0  0  0  0  0  0  0  0  0
   -3.7982  -15.8590   20.7575 N   0  0  0  0  0  0  0  0  0  0  0  0
   -2.4798  -15.5332   20.5193 C   0  0  0  0  0  0  0  0  0  0  0  0
   -1.9425  -14.4328   19.9805 N   0  0  0  0  0  0  0  0  0  0  0  0
    3.6082  -10.9375   19.6070 O   0  0  0  0  0  0  0  0  0  0  0  0
    7.0239  -10.8457   18.3462 C   0  0  0  0  0  0  0  0  0  0  0  0
    9.2097  -10.9604   18.7254 H   0  0  0  0  0  0  0  0  0  0  0  0
    8.8106   -9.3084   20.7526 H   0  0  0  0  0  0  0  0  0  0  0  0
    1.4851  -14.1895   19.1350 H   0  0  0  0  0  0  0  0  0  0  0  0
    0.1686  -13.6307   18.0908 H   0  0  0  0  0  0  0  0  0  0  0  0
    0.6598  -16.3581   20.6608 H   0  0  0  0  0  0  0  0  0  0  0  0
   -0.9169  -18.3152   21.6564 H   0  0  0  0  0  0  0  0  0  0  0  0
   -3.3349  -18.9617   22.1505 H   0  0  0  0  0  0  0  0  0  0  0  0
   -5.0866  -17.2874   21.5198 H   0  0  0  0  0  0  0  0  0  0  0  0
    6.9413  -11.4962   17.4815 H   0  0  0  0  0  0  0  0  0  0  0  0
  1  2  2  0
  2  3  1  0
  3  4  1  0
  4  5  1  0
  5  6  2  0
  6  7  1  0
  7  8  2  0
  8  9  1  0
  9 10  1  0
 10 11  1  0
 11 12  2  0
 12 13  1  0
 13 14  1  0
 14 15  2  0
 15 16  1  0
 16 17  2  0
 17 18  1  0
 18 19  2  0
  8 20  1  0
  4 21  2  0
 21  1  1  0
 20  5  1  0
 19 11  1  0
 18 13  1  0
  1 22  1  0
  2 23  1  0
 10 24  1  0
 10 25  1  0
 12 26  1  0
 14 27  1  0
 15 28  1  0
 16 29  1  0
 21 30  1  0
M  END
>  <Energy>  (3) 
72.215819421747767

>  <compound_id>  (3) 
35475

>  <target_id>  (3) 
1

>  <reference_id>  (3) 
107

>  <inspiration_ids>  (3) 
[107, 76]

>  <energy_score>  (3) 
-12.799165838972385

>  <distance_score>  (3) 
14.959334169532342

>  <path>  (3) 
/opt/xchem-fragalysis-2/maxwin/BulkDock/SCRATCH/511013/C35475-P107/C35475-P107.minimised.mol

>  <scratch_subdir>  (3) 
/opt/xchem-fragalysis-2/maxwin/BulkDock/SCRATCH/511013/C35475-P107

>  <fragmenstein_runtime>  (3) 
13.608635187149048

>  <fragmenstein_outcome>  (3) 
too moved

>  <fragmenstein_mode>  (3) 
expansion

>  <fragmenstein_error>  (3) 


$$$$
C35475-P76
     RDKit          3D

 30 33  0  0  0  0  0  0  0  0999 V2000
    5.3269   -6.6714   18.4808 C   0  0  0  0  0  0  0  0  0  0  0  0
    5.3057   -6.6809   17.1080 C   0  0  0  0  0  0  0  0  0  0  0  0
    4.6315   -8.1073   16.4686 S   0  0  0  0  0  0  0  0  0  0  0  0
    4.2290   -8.6871   18.0307 C   0  0  0  0  0  0  0  0  0  0  0  0
    3.4485   -9.8888   18.1815 C   0  0  0  0  0  0  0  0  0  0  0  0
    3.4971  -10.9170   17.3565 N   0  0  0  0  0  0  0  0  0  0  0  0
    2.5016  -11.8145   17.7514 N   0  0  0  0  0  0  0  0  0  0  0  0
    1.8844  -11.2938   18.7957 C   0  0  0  0  0  0  0  0  0  0  0  0
    0.3713  -11.8747   19.5775 S   0  0  0  0  0  0  0  0  0  0  0  0
    0.0807  -13.7430   19.3116 C   0  0  0  0  0  0  0  0  0  0  0  0
   -1.2542  -14.5037   19.9141 C   0  0  0  0  0  0  0  0  0  0  0  0
   -2.4500  -14.8389   19.2727 C   0  0  0  0  0  0  0  0  0  0  0  0
   -3.1731  -15.6869   20.1031 N   0  0  0  0  0  0  0  0  0  0  0  0
   -4.4051  -16.3266   19.9297 C   0  0  0  0  0  0  0  0  0  0  0  0
   -4.9338  -17.0601   20.9237 C   0  0  0  0  0  0  0  0  0  0  0  0
   -4.1379  -17.0635   22.1778 C   0  0  0  0  0  0  0  0  0  0  0  0
   -2.9999  -16.4624   22.3586 N   0  0  0  0  0  0  0  0  0  0  0  0
   -2.4500  -15.8149   21.2760 C   0  0  0  0  0  0  0  0  0  0  0  0
   -1.2851  -15.1873   21.1490 N   0  0  0  0  0  0  0  0  0  0  0  0
    2.4746  -10.0757   19.1464 O   0  0  0  0  0  0  0  0  0  0  0  0
    4.6896   -7.8308   19.0143 C   0  0  0  0  0  0  0  0  0  0  0  0
    5.7370   -5.8677   19.0810 H   0  0  0  0  0  0  0  0  0  0  0  0
    5.6742   -5.9472   16.4167 H   0  0  0  0  0  0  0  0  0  0  0  0
    0.0418  -13.8950   18.2267 H   0  0  0  0  0  0  0  0  0  0  0  0
    0.9498  -14.2879   19.6923 H   0  0  0  0  0  0  0  0  0  0  0  0
   -2.8139  -14.5928   18.2856 H   0  0  0  0  0  0  0  0  0  0  0  0
   -4.8876  -16.2023   18.9684 H   0  0  0  0  0  0  0  0  0  0  0  0
   -5.8723  -17.5915   20.8704 H   0  0  0  0  0  0  0  0  0  0  0  0
   -4.5886  -17.6148   23.0199 H   0  0  0  0  0  0  0  0  0  0  0  0
    4.5438   -8.0113   20.0732 H   0  0  0  0  0  0  0  0  0  0  0  0
  1  2  2  0
  2  3  1  0
  3  4  1  0
  4  5  1  0
  5  6  2  0
  6  7  1  0
  7  8  2  0
  8  9  1  0
  9 10  1  0
 10 11  1  0
 11 12  2  0
 12 13  1  0
 13 14  1  0
 14 15  2  0
 15 16  1  0
 16 17  2  0
 17 18  1  0
 18 19  2  0
  8 20  1  0
  4 21  2  0
 21  1  1  0
 20  5  1  0
 19 11  1  0
 18 13  1  0
  1 22  1  0
  2 23  1  0
 10 24  1  0
 10 25  1  0
 12 26  1  0
 14 27  1  0
 15 28  1  0
 16 29  1  0
 21 30  1  0
M  END
>  <Energy>  (4) 
66.580505228066158

>  <compound_id>  (4) 
35475

>  <target_id>  (4) 
1

>  <reference_id>  (4) 
76

>  <inspiration_ids>  (4) 
[107, 76]

>  <energy_score>  (4) 
-18.43448003265462

>  <distance_score>  (4) 
14.98336407496989

>  <path>  (4) 
/opt/xchem-fragalysis-2/maxwin/BulkDock/SCRATCH/511013/C35475-P76/C35475-P76.minimised.mol

>  <scratch_subdir>  (4) 
/opt/xchem-fragalysis-2/maxwin/BulkDock/SCRATCH/511013/C35475-P76

>  <fragmenstein_runtime>  (4) 
7.088737487792969

>  <fragmenstein_outcome>  (4) 
too moved

>  <fragmenstein_mode>  (4) 
expansion

>  <fragmenstein_error>  (4) 


$$$$
C35478-P107
     RDKit          3D

 39 42  0  0  0  0  0  0  0  0999 V2000
    5.4479  -17.7260   28.7489 O   0  0  0  0  0  0  0  0  0  0  0  0
    4.9873  -17.2260   27.7512 C   0  0  0  0  0  0  0  0  0  0  0  0
    3.5620  -17.8287   27.4477 C   0  0  0  0  0  0  0  0  0  0  0  0
    3.2526  -19.1273   27.0319 C   0  0  0  0  0  0  0  0  0  0  0  0
    1.9330  -19.3987   27.3824 N   0  0  0  0  0  0  0  0  0  0  0  0
    1.1465  -20.5388   27.1808 C   0  0  0  0  0  0  0  0  0  0  0  0
   -0.1178  -20.5748   27.6336 C   0  0  0  0  0  0  0  0  0  0  0  0
   -0.5600  -19.3426   28.3431 C   0  0  0  0  0  0  0  0  0  0  0  0
    0.1545  -18.2757   28.5432 N   0  0  0  0  0  0  0  0  0  0  0  0
    1.4408  -18.2875   28.0542 C   0  0  0  0  0  0  0  0  0  0  0  0
    2.3744  -17.3455   28.0879 N   0  0  0  0  0  0  0  0  0  0  0  0
    5.5126  -16.1140   26.8958 N   0  0  0  0  0  0  0  0  0  0  0  0
    6.7371  -15.1932   27.0895 C   0  0  0  0  0  0  0  0  0  0  0  0
    7.0871  -13.9730   26.1337 C   0  0  0  0  0  0  0  0  0  0  0  0
    7.6380  -14.4497   24.8210 C   0  0  0  0  0  0  0  0  0  0  0  0
    8.4250  -13.8513   23.8695 C   0  0  0  0  0  0  0  0  0  0  0  0
    8.8839  -12.4917   23.6500 C   0  0  0  0  0  0  0  0  0  0  0  0
    9.5470  -12.0394   22.5010 C   0  0  0  0  0  0  0  0  0  0  0  0
    9.8071  -10.6357   22.4709 C   0  0  0  0  0  0  0  0  0  0  0  0
    9.3533  -10.0296   23.6149 C   0  0  0  0  0  0  0  0  0  0  0  0
    8.6179  -11.1487   24.6870 S   0  0  0  0  0  0  0  0  0  0  0  0
    6.9893  -15.8355   24.5697 C   0  0  0  0  0  0  0  0  0  0  0  0
    6.3934  -16.6778   25.7770 C   0  0  0  0  0  0  0  0  0  0  0  0
    3.8775  -19.8991   26.6085 H   0  0  0  0  0  0  0  0  0  0  0  0
    1.6088  -21.3630   26.6527 H   0  0  0  0  0  0  0  0  0  0  0  0
   -0.7914  -21.4120   27.5271 H   0  0  0  0  0  0  0  0  0  0  0  0
   -1.5946  -19.3676   28.7247 H   0  0  0  0  0  0  0  0  0  0  0  0
    7.6375  -15.7465   27.4111 H   0  0  0  0  0  0  0  0  0  0  0  0
    6.4532  -14.6974   28.0319 H   0  0  0  0  0  0  0  0  0  0  0  0
    7.8279  -13.3513   26.6473 H   0  0  0  0  0  0  0  0  0  0  0  0
    6.1839  -13.3788   25.9894 H   0  0  0  0  0  0  0  0  0  0  0  0
    8.6483  -14.4950   23.0151 H   0  0  0  0  0  0  0  0  0  0  0  0
    9.8167  -12.7067   21.6900 H   0  0  0  0  0  0  0  0  0  0  0  0
   10.2985  -10.1137   21.6595 H   0  0  0  0  0  0  0  0  0  0  0  0
    9.4126   -8.9850   23.8844 H   0  0  0  0  0  0  0  0  0  0  0  0
    7.7052  -16.4785   24.0419 H   0  0  0  0  0  0  0  0  0  0  0  0
    6.1477  -15.6908   23.8877 H   0  0  0  0  0  0  0  0  0  0  0  0
    5.7405  -17.4225   25.2945 H   0  0  0  0  0  0  0  0  0  0  0  0
    7.1819  -17.3175   26.2127 H   0  0  0  0  0  0  0  0  0  0  0  0
  1  2  2  0
  2  3  1  0
  3  4  2  0
  4  5  1  0
  5  6  1  0
  6  7  2  0
  7  8  1  0
  8  9  2  0
  9 10  1  0
 10 11  2  0
  2 12  1  0
 12 13  1  0
 13 14  1  0
 14 15  1  0
 15 16  2  3
 16 17  1  0
 17 18  2  0
 18 19  1  0
 19 20  2  0
 20 21  1  0
 15 22  1  0
 22 23  1  0
 11  3  1  0
 23 12  1  0
 10  5  1  0
 21 17  1  0
  4 24  1  0
  6 25  1  0
  7 26  1  0
  8 27  1  0
 13 28  1  0
 13 29  1  0
 14 30  1  0
 14 31  1  0
 16 32  1  0
 18 33  1  0
 19 34  1  0
 20 35  1  0
 22 36  1  0
 22 37  1  0
 23 38  1  0
 23 39  1  0
M  END
>  <Energy>  (5) 
196.05526290018946

>  <compound_id>  (5) 
35478

>  <target_id>  (5) 
1

>  <reference_id>  (5) 
107

>  <inspiration_ids>  (5) 
[107, 76]

>  <energy_score>  (5) 
65.46003513123418

>  <distance_score>  (5) 
16.069954416555458

>  <path>  (5) 
/opt/xchem-fragalysis-2/maxwin/BulkDock/SCRATCH/511013/C35478-P107/C35478-P107.minimised.mol

>  <scratch_subdir>  (5) 
/opt/xchem-fragalysis-2/maxwin/BulkDock/SCRATCH/511013/C35478-P107

>  <fragmenstein_runtime>  (5) 
21.683600902557373

>  <fragmenstein_outcome>  (5) 
too moved

>  <fragmenstein_mode>  (5) 
expansion

>  <fragmenstein_error>  (5) 


$$$$
C35478-P76
     RDKit          3D

 39 42  0  0  0  0  0  0  0  0999 V2000
   -0.6997  -10.5460   20.3006 O   0  0  0  0  0  0  0  0  0  0  0  0
   -0.7117   -9.8685   21.2942 C   0  0  0  0  0  0  0  0  0  0  0  0
   -0.8451  -10.7298   22.6358 C   0  0  0  0  0  0  0  0  0  0  0  0
   -0.4731  -12.6399   22.9917 C   0  0  0  0  0  0  0  0  0  0  0  0
   -1.4076  -13.2432   24.7626 N   0  0  0  0  0  0  0  0  0  0  0  0
   -2.2186  -14.8857   24.8649 C   0  0  0  0  0  0  0  0  0  0  0  0
   -3.4865  -15.1959   23.9952 C   0  0  0  0  0  0  0  0  0  0  0  0
   -4.7437  -13.6984   23.7437 C   0  0  0  0  0  0  0  0  0  0  0  0
   -4.2905  -12.3677   24.4382 N   0  0  0  0  0  0  0  0  0  0  0  0
   -2.7952  -11.9077   24.9710 C   0  0  0  0  0  0  0  0  0  0  0  0
   -2.3465  -10.3181   24.0710 N   0  0  0  0  0  0  0  0  0  0  0  0
   -0.5914   -8.4086   21.4519 N   0  0  0  0  0  0  0  0  0  0  0  0
   -0.5294   -7.2963   20.4017 C   0  0  0  0  0  0  0  0  0  0  0  0
    0.6230   -7.1220   19.2980 C   0  0  0  0  0  0  0  0  0  0  0  0
    1.8320   -6.4730   19.9338 C   0  0  0  0  0  0  0  0  0  0  0  0
    2.8499   -5.8641   19.2782 C   0  0  0  0  0  0  0  0  0  0  0  0
    3.9066   -5.2057   19.9677 C   0  0  0  0  0  0  0  0  0  0  0  0
    5.1640   -5.6654   20.3115 C   0  0  0  0  0  0  0  0  0  0  0  0
    5.8771   -4.7313   21.1166 C   0  0  0  0  0  0  0  0  0  0  0  0
    5.1885   -3.5559   21.2917 C   0  0  0  0  0  0  0  0  0  0  0  0
    3.6917   -3.5757   20.4827 S   0  0  0  0  0  0  0  0  0  0  0  0
    1.6593   -6.6634   21.4125 C   0  0  0  0  0  0  0  0  0  0  0  0
    0.8790   -8.0127   21.6365 C   0  0  0  0  0  0  0  0  0  0  0  0
   -0.1889  -13.6801   22.7065 H   0  0  0  0  0  0  0  0  0  0  0  0
   -2.3483  -14.8899   25.9341 H   0  0  0  0  0  0  0  0  0  0  0  0
   -4.1398  -16.0428   24.2305 H   0  0  0  0  0  0  0  0  0  0  0  0
   -5.7766  -13.8890   23.3246 H   0  0  0  0  0  0  0  0  0  0  0  0
   -0.7816   -6.3427   20.8923 H   0  0  0  0  0  0  0  0  0  0  0  0
   -1.4231   -7.5216   19.8004 H   0  0  0  0  0  0  0  0  0  0  0  0
    0.2399   -6.4843   18.4933 H   0  0  0  0  0  0  0  0  0  0  0  0
    0.8803   -8.1028   18.8820 H   0  0  0  0  0  0  0  0  0  0  0  0
    2.8515   -5.8201   18.1923 H   0  0  0  0  0  0  0  0  0  0  0  0
    5.5317   -6.6500   20.0501 H   0  0  0  0  0  0  0  0  0  0  0  0
    6.8615   -4.8863   21.5293 H   0  0  0  0  0  0  0  0  0  0  0  0
    5.5079   -2.6759   21.8301 H   0  0  0  0  0  0  0  0  0  0  0  0
    1.1213   -5.8197   21.8607 H   0  0  0  0  0  0  0  0  0  0  0  0
    2.6310   -6.7429   21.9138 H   0  0  0  0  0  0  0  0  0  0  0  0
    1.5004   -8.8225   21.2427 H   0  0  0  0  0  0  0  0  0  0  0  0
    0.9051   -8.0194   22.7273 H   0  0  0  0  0  0  0  0  0  0  0  0
  1  2  2  0
  2  3  1  0
  3  4  2  0
  4  5  1  0
  5  6  1  0
  6  7  2  0
  7  8  1  0
  8  9  2  0
  9 10  1  0
 10 11  2  0
  2 12  1  0
 12 13  1  0
 13 14  1  0
 14 15  1  0
 15 16  2  3
 16 17  1  0
 17 18  2  0
 18 19  1  0
 19 20  2  0
 20 21  1  0
 15 22  1  0
 22 23  1  0
 11  3  1  0
 23 12  1  0
 10  5  1  0
 21 17  1  0
  4 24  1  0
  6 25  1  0
  7 26  1  0
  8 27  1  0
 13 28  1  0
 13 29  1  0
 14 30  1  0
 14 31  1  0
 16 32  1  0
 18 33  1  0
 19 34  1  0
 20 35  1  0
 22 36  1  0
 22 37  1  0
 23 38  1  0
 23 39  1  0
M  END
>  <Energy>  (6) 
1091.8291714321683

>  <compound_id>  (6) 
35478

>  <target_id>  (6) 
1

>  <reference_id>  (6) 
76

>  <inspiration_ids>  (6) 
[107, 76]

>  <energy_score>  (6) 
961.2339436632225

>  <distance_score>  (6) 
14.941271965136524

>  <path>  (6) 
/opt/xchem-fragalysis-2/maxwin/BulkDock/SCRATCH/511013/C35478-P76/C35478-P76.minimised.mol

>  <scratch_subdir>  (6) 
/opt/xchem-fragalysis-2/maxwin/BulkDock/SCRATCH/511013/C35478-P76

>  <fragmenstein_runtime>  (6) 
10.461663722991943

>  <fragmenstein_outcome>  (6) 
too moved

>  <fragmenstein_mode>  (6) 
expansion

>  <fragmenstein_error>  (6) 


$$$$
C35479-P107
     RDKit          3D

 41 43  0  0  0  0  0  0  0  0999 V2000
   -2.5161   -9.5599   18.5278 C   0  0  0  0  0  0  0  0  0  0  0  0
   -1.9316   -9.0186   19.7041 O   0  0  0  0  0  0  0  0  0  0  0  0
   -2.1770   -9.8142   20.8690 C   0  0  0  0  0  0  0  0  0  0  0  0
   -1.0707  -10.9746   21.1784 C   0  0  0  0  0  0  0  0  0  0  0  0
    0.1875  -10.6611   22.4701 N   0  0  0  0  0  0  0  0  0  0  0  0
    0.1655   -9.4641   21.3808 C   0  0  0  0  0  0  0  0  0  0  0  0
    0.2211   -7.8278   21.1130 C   0  0  0  0  0  0  0  0  0  0  0  0
    0.0886   -6.7264   21.9499 C   0  0  0  0  0  0  0  0  0  0  0  0
    0.3421   -5.4740   21.2941 C   0  0  0  0  0  0  0  0  0  0  0  0
    0.6029   -5.6204   19.9539 C   0  0  0  0  0  0  0  0  0  0  0  0
    0.4227   -7.2384   19.4521 S   0  0  0  0  0  0  0  0  0  0  0  0
    1.6495  -11.7561   23.0905 C   0  0  0  0  0  0  0  0  0  0  0  0
    2.7491  -11.6778   22.5886 O   0  0  0  0  0  0  0  0  0  0  0  0
    1.7335  -12.8067   24.4299 C   0  0  0  0  0  0  0  0  0  0  0  0
    1.3297  -12.3450   26.0681 C   0  0  0  0  0  0  0  0  0  0  0  0
    1.4480  -11.1014   27.3467 C   0  0  0  0  0  0  0  0  0  0  0  0
    1.3998  -13.5307   26.5308 N   0  0  0  0  0  0  0  0  0  0  0  0
    0.4046  -13.5426   25.7816 C   0  0  0  0  0  0  0  0  0  0  0  0
   -1.2731  -13.4464   25.8039 N   0  0  0  0  0  0  0  0  0  0  0  0
   -2.1750  -14.3796   25.7027 C   0  0  0  0  0  0  0  0  0  0  0  0
   -1.9742  -15.2379   24.5847 C   0  0  0  0  0  0  0  0  0  0  0  0
   -0.8769  -14.6315   23.9279 C   0  0  0  0  0  0  0  0  0  0  0  0
    0.5739  -14.1206   24.5010 N   0  0  0  0  0  0  0  0  0  0  0  0
   -2.2153  -10.6003   18.3748 H   0  0  0  0  0  0  0  0  0  0  0  0
   -3.6067   -9.4957   18.5896 H   0  0  0  0  0  0  0  0  0  0  0  0
   -2.1824   -8.9673   17.6719 H   0  0  0  0  0  0  0  0  0  0  0  0
   -2.3148   -9.1529   21.7322 H   0  0  0  0  0  0  0  0  0  0  0  0
   -3.1475  -10.3139   20.7470 H   0  0  0  0  0  0  0  0  0  0  0  0
   -0.8522  -11.4320   20.2326 H   0  0  0  0  0  0  0  0  0  0  0  0
   -1.6926  -11.7884   21.4498 H   0  0  0  0  0  0  0  0  0  0  0  0
    1.2280   -9.4852   21.2291 H   0  0  0  0  0  0  0  0  0  0  0  0
   -0.2933   -9.0073   22.2764 H   0  0  0  0  0  0  0  0  0  0  0  0
   -0.0961   -6.8171   23.0148 H   0  0  0  0  0  0  0  0  0  0  0  0
    0.3553   -4.5178   21.8017 H   0  0  0  0  0  0  0  0  0  0  0  0
    0.8355   -4.8472   19.2360 H   0  0  0  0  0  0  0  0  0  0  0  0
    2.0604  -11.3371   28.2473 H   0  0  0  0  0  0  0  0  0  0  0  0
    2.1217  -10.3064   27.1987 H   0  0  0  0  0  0  0  0  0  0  0  0
    0.4788  -10.7350   27.6944 H   0  0  0  0  0  0  0  0  0  0  0  0
   -3.2092  -14.2874   26.0784 H   0  0  0  0  0  0  0  0  0  0  0  0
   -2.9016  -15.6104   24.1701 H   0  0  0  0  0  0  0  0  0  0  0  0
   -0.8414  -14.6948   22.8366 H   0  0  0  0  0  0  0  0  0  0  0  0
  1  2  1  0
  2  3  1  0
  3  4  1  0
  4  5  1  0
  5  6  1  0
  6  7  1  0
  7  8  2  0
  8  9  1  0
  9 10  2  0
 10 11  1  0
  5 12  1  0
 12 13  2  0
 12 14  1  0
 14 15  2  0
 15 16  1  0
 15 17  1  0
 17 18  2  0
 18 19  1  0
 19 20  2  0
 20 21  1  0
 21 22  2  0
 22 23  1  0
 11  7  1  0
 23 14  1  0
 23 18  1  0
  1 24  1  0
  1 25  1  0
  1 26  1  0
  3 27  1  0
  3 28  1  0
  4 29  1  0
  4 30  1  0
  6 31  1  0
  6 32  1  0
  8 33  1  0
  9 34  1  0
 10 35  1  0
 16 36  1  0
 16 37  1  0
 16 38  1  0
 20 39  1  0
 21 40  1  0
 22 41  1  0
M  END
>  <Energy>  (7) 
772.52546340885442

>  <compound_id>  (7) 
35479

>  <target_id>  (7) 
1

>  <reference_id>  (7) 
107

>  <inspiration_ids>  (7) 
[107, 76]

>  <energy_score>  (7) 
708.3669503954609

>  <distance_score>  (7) 
17.330772417070065

>  <path>  (7) 
/opt/xchem-fragalysis-2/maxwin/BulkDock/SCRATCH/511013/C35479-P107/C35479-P107.minimised.mol

>  <scratch_subdir>  (7) 
/opt/xchem-fragalysis-2/maxwin/BulkDock/SCRATCH/511013/C35479-P107

>  <fragmenstein_runtime>  (7) 
15.568660974502563

>  <fragmenstein_outcome>  (7) 
too moved

>  <fragmenstein_mode>  (7) 
expansion

>  <fragmenstein_error>  (7) 


$$$$
C35479-P76
     RDKit          3D

 41 43  0  0  0  0  0  0  0  0999 V2000
   -3.6182  -18.1738   20.5897 C   0  0  0  0  0  0  0  0  0  0  0  0
   -3.3208  -19.5241   20.9531 O   0  0  0  0  0  0  0  0  0  0  0  0
   -4.5466  -20.2809   21.0951 C   0  0  0  0  0  0  0  0  0  0  0  0
   -4.5326  -21.9621   21.1011 C   0  0  0  0  0  0  0  0  0  0  0  0
   -5.5335  -22.6877   20.0756 N   0  0  0  0  0  0  0  0  0  0  0  0
   -4.2984  -22.4238   19.0563 C   0  0  0  0  0  0  0  0  0  0  0  0
   -3.4080  -21.1582   18.6255 C   0  0  0  0  0  0  0  0  0  0  0  0
   -2.0453  -20.9230   18.8857 C   0  0  0  0  0  0  0  0  0  0  0  0
   -1.4920  -19.7595   18.2434 C   0  0  0  0  0  0  0  0  0  0  0  0
   -2.4219  -19.1557   17.4353 C   0  0  0  0  0  0  0  0  0  0  0  0
   -3.9301  -19.9853   17.4609 S   0  0  0  0  0  0  0  0  0  0  0  0
   -6.0926  -24.0802   20.7105 C   0  0  0  0  0  0  0  0  0  0  0  0
   -5.6303  -25.1918   20.6132 O   0  0  0  0  0  0  0  0  0  0  0  0
   -7.4606  -24.1280   21.5399 C   0  0  0  0  0  0  0  0  0  0  0  0
   -8.0166  -23.0480   22.2101 C   0  0  0  0  0  0  0  0  0  0  0  0
   -7.9264  -21.6285   21.7755 C   0  0  0  0  0  0  0  0  0  0  0  0
   -8.6927  -23.3388   23.4144 N   0  0  0  0  0  0  0  0  0  0  0  0
   -9.0414  -24.6347   23.6492 C   0  0  0  0  0  0  0  0  0  0  0  0
  -10.7170  -25.2881   24.3696 N   0  0  0  0  0  0  0  0  0  0  0  0
  -11.5701  -26.6155   23.5141 C   0  0  0  0  0  0  0  0  0  0  0  0
  -11.0937  -27.1320   21.4748 C   0  0  0  0  0  0  0  0  0  0  0  0
   -9.4695  -26.6118   21.0187 C   0  0  0  0  0  0  0  0  0  0  0  0
   -8.4949  -25.2460   21.9320 N   0  0  0  0  0  0  0  0  0  0  0  0
   -4.2515  -18.1236   19.7009 H   0  0  0  0  0  0  0  0  0  0  0  0
   -2.6799  -17.6650   20.3627 H   0  0  0  0  0  0  0  0  0  0  0  0
   -4.1377  -17.6702   21.4088 H   0  0  0  0  0  0  0  0  0  0  0  0
   -4.9623  -19.9910   22.0685 H   0  0  0  0  0  0  0  0  0  0  0  0
   -5.2806  -19.9753   20.3389 H   0  0  0  0  0  0  0  0  0  0  0  0
   -3.5231  -22.3960   21.1510 H   0  0  0  0  0  0  0  0  0  0  0  0
   -4.9668  -22.2231   22.0764 H   0  0  0  0  0  0  0  0  0  0  0  0
   -3.5980  -23.2578   19.2354 H   0  0  0  0  0  0  0  0  0  0  0  0
   -4.7770  -22.7264   18.1114 H   0  0  0  0  0  0  0  0  0  0  0  0
   -1.4681  -21.5596   19.5465 H   0  0  0  0  0  0  0  0  0  0  0  0
   -0.4736  -19.4130   18.3675 H   0  0  0  0  0  0  0  0  0  0  0  0
   -2.3058  -18.2836   16.8094 H   0  0  0  0  0  0  0  0  0  0  0  0
   -8.8828  -21.1250   21.9459 H   0  0  0  0  0  0  0  0  0  0  0  0
   -7.7441  -21.5468   20.7004 H   0  0  0  0  0  0  0  0  0  0  0  0
   -7.1379  -21.0961   22.3069 H   0  0  0  0  0  0  0  0  0  0  0  0
  -12.5902  -26.8342   23.8650 H   0  0  0  0  0  0  0  0  0  0  0  0
  -11.7315  -27.8704   21.0050 H   0  0  0  0  0  0  0  0  0  0  0  0
   -9.0198  -26.8276   20.0570 H   0  0  0  0  0  0  0  0  0  0  0  0
  1  2  1  0
  2  3  1  0
  3  4  1  0
  4  5  1  0
  5  6  1  0
  6  7  1  0
  7  8  2  0
  8  9  1  0
  9 10  2  0
 10 11  1  0
  5 12  1  0
 12 13  2  0
 12 14  1  0
 14 15  2  0
 15 16  1  0
 15 17  1  0
 17 18  2  0
 18 19  1  0
 19 20  2  0
 20 21  1  0
 21 22  2  0
 22 23  1  0
 11  7  1  0
 23 14  1  0
 23 18  1  0
  1 24  1  0
  1 25  1  0
  1 26  1  0
  3 27  1  0
  3 28  1  0
  4 29  1  0
  4 30  1  0
  6 31  1  0
  6 32  1  0
  8 33  1  0
  9 34  1  0
 10 35  1  0
 16 36  1  0
 16 37  1  0
 16 38  1  0
 20 39  1  0
 21 40  1  0
 22 41  1  0
M  END
>  <Energy>  (8) 
759.1031856138859

>  <compound_id>  (8) 
35479

>  <target_id>  (8) 
1

>  <reference_id>  (8) 
76

>  <inspiration_ids>  (8) 
[107, 76]

>  <energy_score>  (8) 
694.9446726004835

>  <distance_score>  (8) 
21.342473576752322

>  <path>  (8) 
/opt/xchem-fragalysis-2/maxwin/BulkDock/SCRATCH/511013/C35479-P76/C35479-P76.minimised.mol

>  <scratch_subdir>  (8) 
/opt/xchem-fragalysis-2/maxwin/BulkDock/SCRATCH/511013/C35479-P76

>  <fragmenstein_runtime>  (8) 
15.381512880325317

>  <fragmenstein_outcome>  (8) 
too moved

>  <fragmenstein_mode>  (8) 
expansion

>  <fragmenstein_error>  (8) 


$$$$
C35486-P107
     RDKit          3D

 41 43  0  0  0  0  0  0  0  0999 V2000
    4.0595   -1.8826   19.9404 C   0  0  0  0  0  0  0  0  0  0  0  0
    2.7245   -1.7554   19.2563 C   0  0  0  0  0  0  0  0  0  0  0  0
    2.7359   -1.4186   17.7940 C   0  0  0  0  0  0  0  0  0  0  0  0
    1.5304   -1.2777   17.2268 C   0  0  0  0  0  0  0  0  0  0  0  0
    0.3967   -1.4590   18.0008 N   0  0  0  0  0  0  0  0  0  0  0  0
   -0.9291   -1.3554   17.6635 C   0  0  0  0  0  0  0  0  0  0  0  0
   -1.6651   -1.6723   18.8030 C   0  0  0  0  0  0  0  0  0  0  0  0
   -3.2121   -1.7336   18.9245 C   0  0  0  0  0  0  0  0  0  0  0  0
   -3.8257   -2.7260   19.8272 N   0  0  0  0  0  0  0  0  0  0  0  0
   -4.7193   -3.8629   19.5473 C   0  0  0  0  0  0  0  0  0  0  0  0
   -5.2362   -4.2187   18.5184 O   0  0  0  0  0  0  0  0  0  0  0  0
   -5.0837   -4.7730   20.8744 C   0  0  0  0  0  0  0  0  0  0  0  0
   -4.8456   -6.2149   20.9096 O   0  0  0  0  0  0  0  0  0  0  0  0
   -5.7073   -6.9478   21.9076 C   0  0  0  0  0  0  0  0  0  0  0  0
   -5.5773   -8.5443   21.9157 C   0  0  0  0  0  0  0  0  0  0  0  0
   -6.2991   -9.4067   22.9968 C   0  0  0  0  0  0  0  0  0  0  0  0
   -5.7282  -10.2161   23.9786 C   0  0  0  0  0  0  0  0  0  0  0  0
   -6.6691  -11.0199   24.7041 C   0  0  0  0  0  0  0  0  0  0  0  0
   -7.9532  -10.8046   24.2657 C   0  0  0  0  0  0  0  0  0  0  0  0
   -8.0060   -9.6500   22.9923 S   0  0  0  0  0  0  0  0  0  0  0  0
   -0.7706   -1.9256   19.8374 N   0  0  0  0  0  0  0  0  0  0  0  0
    0.4549   -1.7994   19.3466 C   0  0  0  0  0  0  0  0  0  0  0  0
    1.6580   -1.9488   19.9739 N   0  0  0  0  0  0  0  0  0  0  0  0
    4.8486   -1.3986   19.3602 H   0  0  0  0  0  0  0  0  0  0  0  0
    4.0158   -1.4130   20.9274 H   0  0  0  0  0  0  0  0  0  0  0  0
    4.2911   -2.9422   20.0604 H   0  0  0  0  0  0  0  0  0  0  0  0
    3.6707   -1.3041   17.2649 H   0  0  0  0  0  0  0  0  0  0  0  0
    1.3915   -1.0316   16.1820 H   0  0  0  0  0  0  0  0  0  0  0  0
   -1.2426   -1.0955   16.6627 H   0  0  0  0  0  0  0  0  0  0  0  0
   -3.6314   -1.9056   17.9269 H   0  0  0  0  0  0  0  0  0  0  0  0
   -3.5525   -0.7526   19.2733 H   0  0  0  0  0  0  0  0  0  0  0  0
   -3.6496   -2.6810   20.8169 H   0  0  0  0  0  0  0  0  0  0  0  0
   -6.1648   -4.6156   20.9900 H   0  0  0  0  0  0  0  0  0  0  0  0
   -4.6247   -4.3356   21.7637 H   0  0  0  0  0  0  0  0  0  0  0  0
   -5.4506   -6.5561   22.8968 H   0  0  0  0  0  0  0  0  0  0  0  0
   -6.7497   -6.6904   21.6893 H   0  0  0  0  0  0  0  0  0  0  0  0
   -5.8976   -8.9027   20.9282 H   0  0  0  0  0  0  0  0  0  0  0  0
   -4.5050   -8.7769   21.9620 H   0  0  0  0  0  0  0  0  0  0  0  0
   -4.6588  -10.2471   24.1492 H   0  0  0  0  0  0  0  0  0  0  0  0
   -6.4080  -11.7136   25.4935 H   0  0  0  0  0  0  0  0  0  0  0  0
   -8.8663  -11.2634   24.6187 H   0  0  0  0  0  0  0  0  0  0  0  0
  1  2  1  0
  2  3  1  0
  3  4  2  0
  4  5  1  0
  5  6  1  0
  6  7  2  0
  7  8  1  0
  8  9  1  0
  9 10  1  0
 10 11  2  0
 10 12  1  0
 12 13  1  0
 13 14  1  0
 14 15  1  0
 15 16  1  0
 16 17  2  0
 17 18  1  0
 18 19  2  0
 19 20  1  0
  7 21  1  0
 21 22  2  0
 22 23  1  0
 23  2  2  0
 22  5  1  0
 20 16  1  0
  1 24  1  0
  1 25  1  0
  1 26  1  0
  3 27  1  0
  4 28  1  0
  6 29  1  0
  8 30  1  0
  8 31  1  0
  9 32  1  0
 12 33  1  0
 12 34  1  0
 14 35  1  0
 14 36  1  0
 15 37  1  0
 15 38  1  0
 17 39  1  0
 18 40  1  0
 19 41  1  0
M  END
>  <Energy>  (9) 
94.683059138191695

>  <compound_id>  (9) 
35486

>  <target_id>  (9) 
1

>  <reference_id>  (9) 
107

>  <inspiration_ids>  (9) 
[107, 76]

>  <energy_score>  (9) 
-15.00456983418718

>  <distance_score>  (9) 
17.27632665624193

>  <path>  (9) 
/opt/xchem-fragalysis-2/maxwin/BulkDock/SCRATCH/511013/C35486-P107/C35486-P107.minimised.mol

>  <scratch_subdir>  (9) 
/opt/xchem-fragalysis-2/maxwin/BulkDock/SCRATCH/511013/C35486-P107

>  <fragmenstein_runtime>  (9) 
26.129584789276123

>  <fragmenstein_outcome>  (9) 
too moved

>  <fragmenstein_mode>  (9) 
expansion

>  <fragmenstein_error>  (9) 


$$$$
C35486-P76
     RDKit          3D

 41 43  0  0  0  0  0  0  0  0999 V2000
   15.7877   -0.4092   12.9655 C   0  0  0  0  0  0  0  0  0  0  0  0
   14.6157   -1.3577   13.0087 C   0  0  0  0  0  0  0  0  0  0  0  0
   13.5131   -1.0325   13.9757 C   0  0  0  0  0  0  0  0  0  0  0  0
   12.4788   -1.8839   13.9850 C   0  0  0  0  0  0  0  0  0  0  0  0
   12.4935   -2.9719   13.1271 N   0  0  0  0  0  0  0  0  0  0  0  0
   11.5377   -3.9843   12.9382 C   0  0  0  0  0  0  0  0  0  0  0  0
   11.8504   -4.8166   11.8017 C   0  0  0  0  0  0  0  0  0  0  0  0
   11.0052   -5.1413   10.1219 C   0  0  0  0  0  0  0  0  0  0  0  0
    9.3026   -6.1327    9.4787 N   0  0  0  0  0  0  0  0  0  0  0  0
    8.9523   -7.7282    9.4512 C   0  0  0  0  0  0  0  0  0  0  0  0
    9.6540   -8.6955    9.7270 O   0  0  0  0  0  0  0  0  0  0  0  0
    7.3544   -8.2244    9.1132 C   0  0  0  0  0  0  0  0  0  0  0  0
    7.0461   -9.6407    9.5688 O   0  0  0  0  0  0  0  0  0  0  0  0
    5.6717  -10.3315    9.3950 C   0  0  0  0  0  0  0  0  0  0  0  0
    5.3533  -11.7735   10.3641 C   0  0  0  0  0  0  0  0  0  0  0  0
    4.1562  -12.1298   11.4101 C   0  0  0  0  0  0  0  0  0  0  0  0
    4.2840  -12.8726   12.5986 C   0  0  0  0  0  0  0  0  0  0  0  0
    3.0439  -13.2721   13.2078 C   0  0  0  0  0  0  0  0  0  0  0  0
    1.9686  -12.7780   12.5151 C   0  0  0  0  0  0  0  0  0  0  0  0
    2.4691  -11.8799   11.1273 S   0  0  0  0  0  0  0  0  0  0  0  0
   13.2932   -4.3751   11.6065 N   0  0  0  0  0  0  0  0  0  0  0  0
   13.5689   -3.2256   12.2675 C   0  0  0  0  0  0  0  0  0  0  0  0
   14.6369   -2.3810   12.2062 N   0  0  0  0  0  0  0  0  0  0  0  0
   15.6843    0.3923   13.7013 H   0  0  0  0  0  0  0  0  0  0  0  0
   16.7078   -0.9629   13.1739 H   0  0  0  0  0  0  0  0  0  0  0  0
   15.8556    0.0329   11.9672 H   0  0  0  0  0  0  0  0  0  0  0  0
   13.5698   -0.1453   14.5900 H   0  0  0  0  0  0  0  0  0  0  0  0
   11.6040   -1.7579   14.6070 H   0  0  0  0  0  0  0  0  0  0  0  0
   10.8077   -3.9955   13.7120 H   0  0  0  0  0  0  0  0  0  0  0  0
   11.7639   -6.0064   10.4150 H   0  0  0  0  0  0  0  0  0  0  0  0
   11.7076   -4.8961    9.3015 H   0  0  0  0  0  0  0  0  0  0  0  0
    8.4734   -5.6024    9.2752 H   0  0  0  0  0  0  0  0  0  0  0  0
    7.2327   -8.2034    8.0272 H   0  0  0  0  0  0  0  0  0  0  0  0
    6.6504   -7.5532    9.5994 H   0  0  0  0  0  0  0  0  0  0  0  0
    5.6893  -10.6798    8.3563 H   0  0  0  0  0  0  0  0  0  0  0  0
    4.8725   -9.5915    9.4831 H   0  0  0  0  0  0  0  0  0  0  0  0
    6.2924  -11.9593   10.9029 H   0  0  0  0  0  0  0  0  0  0  0  0
    5.2687  -12.5675    9.6075 H   0  0  0  0  0  0  0  0  0  0  0  0
    5.2511  -13.1841   12.9780 H   0  0  0  0  0  0  0  0  0  0  0  0
    2.9572  -13.9057   14.0806 H   0  0  0  0  0  0  0  0  0  0  0  0
    0.9178  -12.9160   12.7315 H   0  0  0  0  0  0  0  0  0  0  0  0
  1  2  1  0
  2  3  1  0
  3  4  2  0
  4  5  1  0
  5  6  1  0
  6  7  2  0
  7  8  1  0
  8  9  1  0
  9 10  1  0
 10 11  2  0
 10 12  1  0
 12 13  1  0
 13 14  1  0
 14 15  1  0
 15 16  1  0
 16 17  2  0
 17 18  1  0
 18 19  2  0
 19 20  1  0
  7 21  1  0
 21 22  2  0
 22 23  1  0
 23  2  2  0
 22  5  1  0
 20 16  1  0
  1 24  1  0
  1 25  1  0
  1 26  1  0
  3 27  1  0
  4 28  1  0
  6 29  1  0
  8 30  1  0
  8 31  1  0
  9 32  1  0
 12 33  1  0
 12 34  1  0
 14 35  1  0
 14 36  1  0
 15 37  1  0
 15 38  1  0
 17 39  1  0
 18 40  1  0
 19 41  1  0
M  END
>  <Energy>  (10) 
387.4793257900634

>  <compound_id>  (10) 
35486

>  <target_id>  (10) 
1

>  <reference_id>  (10) 
76

>  <inspiration_ids>  (10) 
[107, 76]

>  <energy_score>  (10) 
277.79169681768354

>  <distance_score>  (10) 
19.038002240072103

>  <path>  (10) 
/opt/xchem-fragalysis-2/maxwin/BulkDock/SCRATCH/511013/C35486-P76/C35486-P76.minimised.mol

>  <scratch_subdir>  (10) 
/opt/xchem-fragalysis-2/maxwin/BulkDock/SCRATCH/511013/C35486-P76

>  <fragmenstein_runtime>  (10) 
17.07986092567444

>  <fragmenstein_outcome>  (10) 
too moved

>  <fragmenstein_mode>  (10) 
expansion

>  <fragmenstein_error>  (10) 


$$$$
C35487-P107
     RDKit          3D

 35 38  0  0  0  0  0  0  0  0999 V2000
    0.8076   -7.7241   15.8941 C   0  0  0  0  0  0  0  0  0  0  0  0
    0.1216   -6.8945   16.9978 C   0  0  0  0  0  0  0  0  0  0  0  0
   -0.4654   -7.7526   18.0997 O   0  0  0  0  0  0  0  0  0  0  0  0
   -1.6616   -8.4690   17.7889 C   0  0  0  0  0  0  0  0  0  0  0  0
   -2.1504   -8.3814   16.6642 O   0  0  0  0  0  0  0  0  0  0  0  0
   -2.2852   -9.3361   18.8447 C   0  0  0  0  0  0  0  0  0  0  0  0
   -2.0959   -9.4188   20.2243 C   0  0  0  0  0  0  0  0  0  0  0  0
   -2.9226  -10.3258   20.8475 N   0  0  0  0  0  0  0  0  0  0  0  0
   -3.6563  -10.8626   19.8983 C   0  0  0  0  0  0  0  0  0  0  0  0
   -4.6438  -11.8123   20.0040 N   0  0  0  0  0  0  0  0  0  0  0  0
   -5.1253  -12.3069   18.9156 C   0  0  0  0  0  0  0  0  0  0  0  0
   -4.7106  -11.9142   17.5551 C   0  0  0  0  0  0  0  0  0  0  0  0
   -3.8005  -10.9263   17.4920 C   0  0  0  0  0  0  0  0  0  0  0  0
   -3.2563  -10.3624   18.6525 N   0  0  0  0  0  0  0  0  0  0  0  0
    1.1915   -5.8240   17.3709 C   0  0  0  0  0  0  0  0  0  0  0  0
    2.1265   -5.3486   16.5520 N   0  0  0  0  0  0  0  0  0  0  0  0
    2.4219   -4.1149   17.0763 C   0  0  0  0  0  0  0  0  0  0  0  0
    3.2275   -3.0225   16.2588 C   0  0  0  0  0  0  0  0  0  0  0  0
    3.4500   -1.7225   16.6704 C   0  0  0  0  0  0  0  0  0  0  0  0
    4.2065   -0.9705   15.7126 C   0  0  0  0  0  0  0  0  0  0  0  0
    4.5339   -1.7248   14.6066 C   0  0  0  0  0  0  0  0  0  0  0  0
    3.8764   -3.3027   14.7015 S   0  0  0  0  0  0  0  0  0  0  0  0
    1.8467   -3.8919   18.2675 N   0  0  0  0  0  0  0  0  0  0  0  0
    1.0260   -5.0182   18.4602 O   0  0  0  0  0  0  0  0  0  0  0  0
    0.1023   -8.4300   15.4497 H   0  0  0  0  0  0  0  0  0  0  0  0
    1.6444   -8.2980   16.3064 H   0  0  0  0  0  0  0  0  0  0  0  0
    1.1808   -7.1041   15.0716 H   0  0  0  0  0  0  0  0  0  0  0  0
   -0.7174   -6.3331   16.5674 H   0  0  0  0  0  0  0  0  0  0  0  0
   -1.3753   -8.8598   20.8080 H   0  0  0  0  0  0  0  0  0  0  0  0
   -5.9144  -13.0743   18.9688 H   0  0  0  0  0  0  0  0  0  0  0  0
   -5.1618  -12.3839   16.6933 H   0  0  0  0  0  0  0  0  0  0  0  0
   -3.4476  -10.5332   16.5466 H   0  0  0  0  0  0  0  0  0  0  0  0
    3.0942   -1.3290   17.6157 H   0  0  0  0  0  0  0  0  0  0  0  0
    4.4961    0.0660   15.8362 H   0  0  0  0  0  0  0  0  0  0  0  0
    5.0987   -1.4205   13.7350 H   0  0  0  0  0  0  0  0  0  0  0  0
  1  2  1  0
  2  3  1  0
  3  4  1  0
  4  5  2  0
  4  6  1  0
  6  7  2  0
  7  8  1  0
  8  9  2  0
  9 10  1  0
 10 11  2  0
 11 12  1  0
 12 13  2  0
 13 14  1  0
  2 15  1  0
 15 16  2  0
 16 17  1  0
 17 18  1  0
 18 19  2  0
 19 20  1  0
 20 21  2  0
 21 22  1  0
 17 23  2  0
 23 24  1  0
 14  6  1  0
 24 15  1  0
 14  9  1  0
 22 18  1  0
  1 25  1  0
  1 26  1  0
  1 27  1  0
  2 28  1  0
  7 29  1  0
 11 30  1  0
 12 31  1  0
 13 32  1  0
 19 33  1  0
 20 34  1  0
 21 35  1  0
M  END
>  <Energy>  (11) 
42.728491768017989

>  <compound_id>  (11) 
35487

>  <target_id>  (11) 
1

>  <reference_id>  (11) 
107

>  <inspiration_ids>  (11) 
[107, 76]

>  <energy_score>  (11) 
-49.31104395497226

>  <distance_score>  (11) 
16.22652428316172

>  <path>  (11) 
/opt/xchem-fragalysis-2/maxwin/BulkDock/SCRATCH/511013/C35487-P107/C35487-P107.minimised.mol

>  <scratch_subdir>  (11) 
/opt/xchem-fragalysis-2/maxwin/BulkDock/SCRATCH/511013/C35487-P107

>  <fragmenstein_runtime>  (11) 
15.722440242767334

>  <fragmenstein_outcome>  (11) 
too moved

>  <fragmenstein_mode>  (11) 
expansion

>  <fragmenstein_error>  (11) 


$$$$
C35487-P76
     RDKit          3D

 35 38  0  0  0  0  0  0  0  0999 V2000
    5.4213  -13.6511   15.6934 C   0  0  0  0  0  0  0  0  0  0  0  0
    4.9647  -13.1178   17.0498 C   0  0  0  0  0  0  0  0  0  0  0  0
    3.9293  -14.0021   17.7943 O   0  0  0  0  0  0  0  0  0  0  0  0
    3.7620  -15.4057   17.7343 C   0  0  0  0  0  0  0  0  0  0  0  0
    4.6709  -16.1457   17.3809 O   0  0  0  0  0  0  0  0  0  0  0  0
    2.3567  -15.8884   18.0326 C   0  0  0  0  0  0  0  0  0  0  0  0
    1.1751  -15.4544   17.4316 C   0  0  0  0  0  0  0  0  0  0  0  0
    0.0336  -16.0661   17.9083 N   0  0  0  0  0  0  0  0  0  0  0  0
    0.4337  -16.9441   18.7995 C   0  0  0  0  0  0  0  0  0  0  0  0
   -0.3538  -17.7544   19.5820 N   0  0  0  0  0  0  0  0  0  0  0  0
    0.2757  -18.6397   20.2880 C   0  0  0  0  0  0  0  0  0  0  0  0
    1.7485  -18.8542   20.2951 C   0  0  0  0  0  0  0  0  0  0  0  0
    2.4797  -17.9768   19.5787 C   0  0  0  0  0  0  0  0  0  0  0  0
    1.8531  -16.9690   18.8387 N   0  0  0  0  0  0  0  0  0  0  0  0
    6.1759  -12.4115   17.7515 C   0  0  0  0  0  0  0  0  0  0  0  0
    7.1813  -11.7806   17.1430 N   0  0  0  0  0  0  0  0  0  0  0  0
    7.7916  -11.0525   18.1461 C   0  0  0  0  0  0  0  0  0  0  0  0
    8.8580   -9.9209   17.8048 C   0  0  0  0  0  0  0  0  0  0  0  0
    9.6081   -9.5824   16.3206 C   0  0  0  0  0  0  0  0  0  0  0  0
    9.8006   -7.6677   15.8680 C   0  0  0  0  0  0  0  0  0  0  0  0
   10.4347   -6.6087   17.4370 C   0  0  0  0  0  0  0  0  0  0  0  0
    9.5032   -8.3201   19.3347 S   0  0  0  0  0  0  0  0  0  0  0  0
    7.2454  -11.2534   19.3524 N   0  0  0  0  0  0  0  0  0  0  0  0
    6.1851  -12.1580   19.0976 O   0  0  0  0  0  0  0  0  0  0  0  0
    6.1511  -14.4577   15.8227 H   0  0  0  0  0  0  0  0  0  0  0  0
    4.5726  -14.0697   15.1425 H   0  0  0  0  0  0  0  0  0  0  0  0
    5.8839  -12.8733   15.0769 H   0  0  0  0  0  0  0  0  0  0  0  0
    4.3168  -12.2641   16.8045 H   0  0  0  0  0  0  0  0  0  0  0  0
    1.0915  -14.6943   16.6654 H   0  0  0  0  0  0  0  0  0  0  0  0
   -0.2995  -19.3137   20.9437 H   0  0  0  0  0  0  0  0  0  0  0  0
    2.1677  -19.6481   20.8955 H   0  0  0  0  0  0  0  0  0  0  0  0
    3.5620  -18.0001   19.5416 H   0  0  0  0  0  0  0  0  0  0  0  0
    9.4865  -10.3045   15.5129 H   0  0  0  0  0  0  0  0  0  0  0  0
    9.6571   -7.4694   14.8990 H   0  0  0  0  0  0  0  0  0  0  0  0
   10.7434   -5.4858   17.5993 H   0  0  0  0  0  0  0  0  0  0  0  0
  1  2  1  0
  2  3  1  0
  3  4  1  0
  4  5  2  0
  4  6  1  0
  6  7  2  0
  7  8  1  0
  8  9  2  0
  9 10  1  0
 10 11  2  0
 11 12  1  0
 12 13  2  0
 13 14  1  0
  2 15  1  0
 15 16  2  0
 16 17  1  0
 17 18  1  0
 18 19  2  0
 19 20  1  0
 20 21  2  0
 21 22  1  0
 17 23  2  0
 23 24  1  0
 14  6  1  0
 24 15  1  0
 14  9  1  0
 22 18  1  0
  1 25  1  0
  1 26  1  0
  1 27  1  0
  2 28  1  0
  7 29  1  0
 11 30  1  0
 12 31  1  0
 13 32  1  0
 19 33  1  0
 20 34  1  0
 21 35  1  0
M  END
>  <Energy>  (12) 
698.03853164684915

>  <compound_id>  (12) 
35487

>  <target_id>  (12) 
1

>  <reference_id>  (12) 
76

>  <inspiration_ids>  (12) 
[107, 76]

>  <energy_score>  (12) 
605.998995923864

>  <distance_score>  (12) 
15.768778263088953

>  <path>  (12) 
/opt/xchem-fragalysis-2/maxwin/BulkDock/SCRATCH/511013/C35487-P76/C35487-P76.minimised.mol

>  <scratch_subdir>  (12) 
/opt/xchem-fragalysis-2/maxwin/BulkDock/SCRATCH/511013/C35487-P76

>  <fragmenstein_runtime>  (12) 
13.412405014038086

>  <fragmenstein_outcome>  (12) 
too moved

>  <fragmenstein_mode>  (12) 
expansion

>  <fragmenstein_error>  (12) 


$$$$
C35489-P107
     RDKit          3D

 41 43  0  0  0  0  0  0  0  0999 V2000
   10.8869   -4.9903   17.6846 C   0  0  0  0  0  0  0  0  0  0  0  0
    9.7372   -5.8959   19.1680 C   0  0  0  0  0  0  0  0  0  0  0  0
    7.5572   -6.5652   18.9932 C   0  0  0  0  0  0  0  0  0  0  0  0
    6.7940   -8.2670   18.7930 N   0  0  0  0  0  0  0  0  0  0  0  0
    7.4988   -9.7689   18.7228 C   0  0  0  0  0  0  0  0  0  0  0  0
    8.6588  -10.0834   18.8688 O   0  0  0  0  0  0  0  0  0  0  0  0
    6.5340  -11.0924   18.5476 C   0  0  0  0  0  0  0  0  0  0  0  0
    6.4558  -12.1635   19.4696 C   0  0  0  0  0  0  0  0  0  0  0  0
    5.4963  -13.0713   19.0217 N   0  0  0  0  0  0  0  0  0  0  0  0
    4.9821  -14.2499   19.5866 C   0  0  0  0  0  0  0  0  0  0  0  0
    4.0054  -14.9465   18.9884 C   0  0  0  0  0  0  0  0  0  0  0  0
    3.5565  -14.3542   17.7043 C   0  0  0  0  0  0  0  0  0  0  0  0
    4.0204  -13.2742   17.1443 N   0  0  0  0  0  0  0  0  0  0  0  0
    5.0479  -12.6037   17.7882 C   0  0  0  0  0  0  0  0  0  0  0  0
    5.6900  -11.4594   17.4728 N   0  0  0  0  0  0  0  0  0  0  0  0
   11.3565   -5.8678   20.2509 N   0  0  0  0  0  0  0  0  0  0  0  0
   12.4692   -4.8123   20.3808 C   0  0  0  0  0  0  0  0  0  0  0  0
   12.5661   -3.7021   19.9015 O   0  0  0  0  0  0  0  0  0  0  0  0
   13.6661   -5.3552   21.1798 C   0  0  0  0  0  0  0  0  0  0  0  0
   14.9218   -5.0471   20.3817 C   0  0  0  0  0  0  0  0  0  0  0  0
   15.6694   -5.8871   19.5784 C   0  0  0  0  0  0  0  0  0  0  0  0
   16.6516   -5.1888   18.8188 C   0  0  0  0  0  0  0  0  0  0  0  0
   16.6908   -3.8519   19.1353 C   0  0  0  0  0  0  0  0  0  0  0  0
   15.5837   -3.4564   20.3722 S   0  0  0  0  0  0  0  0  0  0  0  0
   11.9067   -4.7478   18.0537 H   0  0  0  0  0  0  0  0  0  0  0  0
   11.1631   -5.5455   16.7443 H   0  0  0  0  0  0  0  0  0  0  0  0
   10.6519   -4.0988   17.0918 H   0  0  0  0  0  0  0  0  0  0  0  0
    9.5914   -5.0701   19.8492 H   0  0  0  0  0  0  0  0  0  0  0  0
    6.8795   -5.7758   19.4010 H   0  0  0  0  0  0  0  0  0  0  0  0
    7.0888   -6.3055   17.9898 H   0  0  0  0  0  0  0  0  0  0  0  0
    5.8039   -8.3390   18.5394 H   0  0  0  0  0  0  0  0  0  0  0  0
    6.9788  -12.3219   20.3985 H   0  0  0  0  0  0  0  0  0  0  0  0
    5.4207  -14.5864   20.4998 H   0  0  0  0  0  0  0  0  0  0  0  0
    3.5727  -15.8654   19.3539 H   0  0  0  0  0  0  0  0  0  0  0  0
    2.7463  -14.9026   17.1954 H   0  0  0  0  0  0  0  0  0  0  0  0
   11.6479   -6.7247   20.7218 H   0  0  0  0  0  0  0  0  0  0  0  0
   13.5855   -6.4337   21.3424 H   0  0  0  0  0  0  0  0  0  0  0  0
   13.6835   -4.8628   22.1576 H   0  0  0  0  0  0  0  0  0  0  0  0
   15.4978   -6.9525   19.4913 H   0  0  0  0  0  0  0  0  0  0  0  0
   17.3075   -5.6483   18.0895 H   0  0  0  0  0  0  0  0  0  0  0  0
   17.3408   -3.0914   18.7257 H   0  0  0  0  0  0  0  0  0  0  0  0
  1  2  1  0
  2  3  1  0
  3  4  1  0
  4  5  1  0
  5  6  2  0
  5  7  1  0
  7  8  2  0
  8  9  1  0
  9 10  1  0
 10 11  2  0
 11 12  1  0
 12 13  2  0
 13 14  1  0
 14 15  2  0
  2 16  1  0
 16 17  1  0
 17 18  2  0
 17 19  1  0
 19 20  1  0
 20 21  2  0
 21 22  1  0
 22 23  2  0
 23 24  1  0
 15  7  1  0
 24 20  1  0
 14  9  1  0
  1 25  1  0
  1 26  1  0
  1 27  1  0
  2 28  1  0
  3 29  1  0
  3 30  1  0
  4 31  1  0
  8 32  1  0
 10 33  1  0
 11 34  1  0
 12 35  1  0
 16 36  1  0
 19 37  1  0
 19 38  1  0
 21 39  1  0
 22 40  1  0
 23 41  1  0
M  END
>  <Energy>  (13) 
563.76942409317132

>  <compound_id>  (13) 
35489

>  <target_id>  (13) 
1

>  <reference_id>  (13) 
107

>  <inspiration_ids>  (13) 
[107, 76]

>  <energy_score>  (13) 
472.78994489519914

>  <distance_score>  (13) 
16.884454700118393

>  <path>  (13) 
/opt/xchem-fragalysis-2/maxwin/BulkDock/SCRATCH/511013/C35489-P107/C35489-P107.minimised.mol

>  <scratch_subdir>  (13) 
/opt/xchem-fragalysis-2/maxwin/BulkDock/SCRATCH/511013/C35489-P107

>  <fragmenstein_runtime>  (13) 
21.72125244140625

>  <fragmenstein_outcome>  (13) 
too moved

>  <fragmenstein_mode>  (13) 
expansion

>  <fragmenstein_error>  (13) 


$$$$
C35489-P76
     RDKit          3D

 41 43  0  0  0  0  0  0  0  0999 V2000
    2.0005  -11.0615   29.1179 C   0  0  0  0  0  0  0  0  0  0  0  0
    2.9704  -12.0913   29.7230 C   0  0  0  0  0  0  0  0  0  0  0  0
    2.3984  -13.6269   29.5348 C   0  0  0  0  0  0  0  0  0  0  0  0
    1.0753  -14.2043   29.9089 N   0  0  0  0  0  0  0  0  0  0  0  0
   -0.2585  -13.9686   29.3676 C   0  0  0  0  0  0  0  0  0  0  0  0
   -0.6355  -13.1906   28.5408 O   0  0  0  0  0  0  0  0  0  0  0  0
   -1.3533  -14.9696   29.8774 C   0  0  0  0  0  0  0  0  0  0  0  0
   -1.2610  -16.1499   30.6154 C   0  0  0  0  0  0  0  0  0  0  0  0
   -2.5086  -16.7709   30.5697 N   0  0  0  0  0  0  0  0  0  0  0  0
   -2.9383  -17.9956   31.0894 C   0  0  0  0  0  0  0  0  0  0  0  0
   -4.2026  -18.4012   30.8870 C   0  0  0  0  0  0  0  0  0  0  0  0
   -5.0444  -17.4606   30.0974 C   0  0  0  0  0  0  0  0  0  0  0  0
   -4.6621  -16.3200   29.6032 N   0  0  0  0  0  0  0  0  0  0  0  0
   -3.3595  -15.9505   29.8382 C   0  0  0  0  0  0  0  0  0  0  0  0
   -2.6965  -14.8763   29.4430 N   0  0  0  0  0  0  0  0  0  0  0  0
    4.5348  -11.8412   29.0416 N   0  0  0  0  0  0  0  0  0  0  0  0
    5.3322  -11.1050   28.9316 C   0  0  0  0  0  0  0  0  0  0  0  0
    4.6801   -9.7876   29.5916 O   0  0  0  0  0  0  0  0  0  0  0  0
    6.7639  -10.9672   28.4205 C   0  0  0  0  0  0  0  0  0  0  0  0
    7.2358   -9.8668   27.4585 C   0  0  0  0  0  0  0  0  0  0  0  0
    7.4848   -9.9665   26.0913 C   0  0  0  0  0  0  0  0  0  0  0  0
    8.2808   -8.8987   25.5722 C   0  0  0  0  0  0  0  0  0  0  0  0
    8.6403   -8.0143   26.5582 C   0  0  0  0  0  0  0  0  0  0  0  0
    7.9107   -8.4011   28.0583 S   0  0  0  0  0  0  0  0  0  0  0  0
    2.4912  -10.1596   28.7804 H   0  0  0  0  0  0  0  0  0  0  0  0
    1.2527  -10.7908   29.8713 H   0  0  0  0  0  0  0  0  0  0  0  0
    1.4364  -11.4774   28.2795 H   0  0  0  0  0  0  0  0  0  0  0  0
    3.1222  -11.8802   30.7884 H   0  0  0  0  0  0  0  0  0  0  0  0
    3.1286  -14.2843   30.0242 H   0  0  0  0  0  0  0  0  0  0  0  0
    2.4699  -13.8416   28.4619 H   0  0  0  0  0  0  0  0  0  0  0  0
    1.0134  -14.8841   30.6553 H   0  0  0  0  0  0  0  0  0  0  0  0
   -0.4300  -16.6410   31.0973 H   0  0  0  0  0  0  0  0  0  0  0  0
   -2.2178  -18.5780   31.6480 H   0  0  0  0  0  0  0  0  0  0  0  0
   -4.6367  -19.3211   31.2543 H   0  0  0  0  0  0  0  0  0  0  0  0
   -6.0846  -17.7892   29.9357 H   0  0  0  0  0  0  0  0  0  0  0  0
    4.1428  -12.7463   28.9997 H   0  0  0  0  0  0  0  0  0  0  0  0
    6.9882  -11.8926   27.8780 H   0  0  0  0  0  0  0  0  0  0  0  0
    7.4121  -10.9719   29.3063 H   0  0  0  0  0  0  0  0  0  0  0  0
    7.1888  -10.8230   25.4968 H   0  0  0  0  0  0  0  0  0  0  0  0
    8.6148   -8.8278   24.5480 H   0  0  0  0  0  0  0  0  0  0  0  0
    9.2768   -7.1431   26.4811 H   0  0  0  0  0  0  0  0  0  0  0  0
  1  2  1  0
  2  3  1  0
  3  4  1  0
  4  5  1  0
  5  6  2  0
  5  7  1  0
  7  8  2  0
  8  9  1  0
  9 10  1  0
 10 11  2  0
 11 12  1  0
 12 13  2  0
 13 14  1  0
 14 15  2  0
  2 16  1  0
 16 17  1  0
 17 18  2  0
 17 19  1  0
 19 20  1  0
 20 21  2  0
 21 22  1  0
 22 23  2  0
 23 24  1  0
 15  7  1  0
 24 20  1  0
 14  9  1  0
  1 25  1  0
  1 26  1  0
  1 27  1  0
  2 28  1  0
  3 29  1  0
  3 30  1  0
  4 31  1  0
  8 32  1  0
 10 33  1  0
 11 34  1  0
 12 35  1  0
 16 36  1  0
 19 37  1  0
 19 38  1  0
 21 39  1  0
 22 40  1  0
 23 41  1  0
M  END
>  <Energy>  (14) 
310.146572468052

>  <compound_id>  (14) 
35489

>  <target_id>  (14) 
1

>  <reference_id>  (14) 
76

>  <inspiration_ids>  (14) 
[107, 76]

>  <energy_score>  (14) 
219.16709327008584

>  <distance_score>  (14) 
15.424328837535437

>  <path>  (14) 
/opt/xchem-fragalysis-2/maxwin/BulkDock/SCRATCH/511013/C35489-P76/C35489-P76.minimised.mol

>  <scratch_subdir>  (14) 
/opt/xchem-fragalysis-2/maxwin/BulkDock/SCRATCH/511013/C35489-P76

>  <fragmenstein_runtime>  (14) 
13.92870020866394

>  <fragmenstein_outcome>  (14) 
too moved

>  <fragmenstein_mode>  (14) 
expansion

>  <fragmenstein_error>  (14) 


$$$$
C35492-P107
     RDKit          3D

 41 43  0  0  0  0  0  0  0  0999 V2000
    5.3957   -5.8137   29.3599 C   0  0  0  0  0  0  0  0  0  0  0  0
    4.0901   -5.9830   28.5798 C   0  0  0  0  0  0  0  0  0  0  0  0
    3.3253   -7.3374   28.8752 C   0  0  0  0  0  0  0  0  0  0  0  0
    2.6492   -7.5506   30.3174 C   0  0  0  0  0  0  0  0  0  0  0  0
    1.6974   -8.7176   30.6201 N   0  0  0  0  0  0  0  0  0  0  0  0
    0.2252   -8.7634   30.7153 C   0  0  0  0  0  0  0  0  0  0  0  0
   -0.5955   -7.9150   30.4999 O   0  0  0  0  0  0  0  0  0  0  0  0
   -0.4370  -10.0834   31.2921 C   0  0  0  0  0  0  0  0  0  0  0  0
    0.0298  -11.2308   31.9316 C   0  0  0  0  0  0  0  0  0  0  0  0
   -1.0676  -12.0937   32.1242 N   0  0  0  0  0  0  0  0  0  0  0  0
   -1.1408  -13.4217   32.5727 C   0  0  0  0  0  0  0  0  0  0  0  0
   -2.3099  -14.0851   32.5305 C   0  0  0  0  0  0  0  0  0  0  0  0
   -3.4659  -13.2863   32.0379 C   0  0  0  0  0  0  0  0  0  0  0  0
   -3.4317  -12.0395   31.6739 N   0  0  0  0  0  0  0  0  0  0  0  0
   -2.2011  -11.4260   31.6797 C   0  0  0  0  0  0  0  0  0  0  0  0
   -1.8522  -10.2221   31.2537 N   0  0  0  0  0  0  0  0  0  0  0  0
    4.4683   -5.7064   27.1695 N   0  0  0  0  0  0  0  0  0  0  0  0
    5.3266   -6.4262   26.2616 C   0  0  0  0  0  0  0  0  0  0  0  0
    5.8896   -7.4741   26.3879 O   0  0  0  0  0  0  0  0  0  0  0  0
    5.5846   -5.6811   24.9983 C   0  0  0  0  0  0  0  0  0  0  0  0
    5.7448   -6.2088   23.7215 C   0  0  0  0  0  0  0  0  0  0  0  0
    6.0383   -5.2236   22.7305 C   0  0  0  0  0  0  0  0  0  0  0  0
    6.1831   -3.9749   23.2853 C   0  0  0  0  0  0  0  0  0  0  0  0
    5.9138   -3.9934   24.9784 S   0  0  0  0  0  0  0  0  0  0  0  0
    6.1169   -6.5987   29.1080 H   0  0  0  0  0  0  0  0  0  0  0  0
    5.8642   -4.8455   29.1502 H   0  0  0  0  0  0  0  0  0  0  0  0
    5.2071   -5.8668   30.4370 H   0  0  0  0  0  0  0  0  0  0  0  0
    3.4138   -5.1651   28.8557 H   0  0  0  0  0  0  0  0  0  0  0  0
    2.4814   -7.3972   28.1935 H   0  0  0  0  0  0  0  0  0  0  0  0
    3.9934   -8.1849   28.6930 H   0  0  0  0  0  0  0  0  0  0  0  0
    3.4472   -7.6305   31.0629 H   0  0  0  0  0  0  0  0  0  0  0  0
    2.0692   -6.6483   30.5415 H   0  0  0  0  0  0  0  0  0  0  0  0
    2.0783   -9.5931   30.9563 H   0  0  0  0  0  0  0  0  0  0  0  0
    1.0201  -11.5519   32.2130 H   0  0  0  0  0  0  0  0  0  0  0  0
   -0.2179  -13.8799   32.9015 H   0  0  0  0  0  0  0  0  0  0  0  0
   -2.4521  -15.1134   32.8285 H   0  0  0  0  0  0  0  0  0  0  0  0
   -4.4301  -13.8210   32.0168 H   0  0  0  0  0  0  0  0  0  0  0  0
    4.2342   -4.8071   26.7601 H   0  0  0  0  0  0  0  0  0  0  0  0
    5.6173   -7.2646   23.5088 H   0  0  0  0  0  0  0  0  0  0  0  0
    6.1364   -5.4244   21.6709 H   0  0  0  0  0  0  0  0  0  0  0  0
    6.4131   -3.0490   22.7773 H   0  0  0  0  0  0  0  0  0  0  0  0
  1  2  1  0
  2  3  1  0
  3  4  1  0
  4  5  1  0
  5  6  1  0
  6  7  2  0
  6  8  1  0
  8  9  2  0
  9 10  1  0
 10 11  1  0
 11 12  2  0
 12 13  1  0
 13 14  2  0
 14 15  1  0
 15 16  2  0
  2 17  1  0
 17 18  1  0
 18 19  2  0
 18 20  1  0
 20 21  2  0
 21 22  1  0
 22 23  2  0
 23 24  1  0
 16  8  1  0
 24 20  1  0
 15 10  1  0
  1 25  1  0
  1 26  1  0
  1 27  1  0
  2 28  1  0
  3 29  1  0
  3 30  1  0
  4 31  1  0
  4 32  1  0
  5 33  1  0
  9 34  1  0
 11 35  1  0
 12 36  1  0
 13 37  1  0
 17 38  1  0
 21 39  1  0
 22 40  1  0
 23 41  1  0
M  END
>  <Energy>  (15) 
70.24540251078858

>  <compound_id>  (15) 
35492

>  <target_id>  (15) 
1

>  <reference_id>  (15) 
107

>  <inspiration_ids>  (15) 
[107, 76]

>  <energy_score>  (15) 
-1.5621087880787172

>  <distance_score>  (15) 
15.59247510252989

>  <path>  (15) 
/opt/xchem-fragalysis-2/maxwin/BulkDock/SCRATCH/511013/C35492-P107/C35492-P107.minimised.mol

>  <scratch_subdir>  (15) 
/opt/xchem-fragalysis-2/maxwin/BulkDock/SCRATCH/511013/C35492-P107

>  <fragmenstein_runtime>  (15) 
31.14370846748352

>  <fragmenstein_outcome>  (15) 
too moved

>  <fragmenstein_mode>  (15) 
expansion

>  <fragmenstein_error>  (15) 


$$$$
C35492-P76
     RDKit          3D

 41 43  0  0  0  0  0  0  0  0999 V2000
    8.3183  -11.4149   27.3295 C   0  0  0  0  0  0  0  0  0  0  0  0
    7.0921  -11.8072   26.5018 C   0  0  0  0  0  0  0  0  0  0  0  0
    6.4745  -13.2207   26.7950 C   0  0  0  0  0  0  0  0  0  0  0  0
    5.7425  -13.4496   28.2077 C   0  0  0  0  0  0  0  0  0  0  0  0
    4.4875  -14.3058   28.3479 N   0  0  0  0  0  0  0  0  0  0  0  0
    4.3174  -15.6953   28.7732 C   0  0  0  0  0  0  0  0  0  0  0  0
    5.1320  -16.5335   29.0416 O   0  0  0  0  0  0  0  0  0  0  0  0
    2.8372  -16.1556   29.0272 C   0  0  0  0  0  0  0  0  0  0  0  0
    2.4264  -17.4932   29.0890 C   0  0  0  0  0  0  0  0  0  0  0  0
    1.0819  -17.5201   29.3815 N   0  0  0  0  0  0  0  0  0  0  0  0
    0.1935  -18.5968   29.4726 C   0  0  0  0  0  0  0  0  0  0  0  0
   -1.1015  -18.3731   29.7430 C   0  0  0  0  0  0  0  0  0  0  0  0
   -1.4481  -16.9374   29.9437 C   0  0  0  0  0  0  0  0  0  0  0  0
   -0.6323  -15.9248   29.8737 N   0  0  0  0  0  0  0  0  0  0  0  0
    0.6827  -16.1991   29.5694 C   0  0  0  0  0  0  0  0  0  0  0  0
    1.7064  -15.3713   29.3250 N   0  0  0  0  0  0  0  0  0  0  0  0
    7.4916  -11.5742   25.1003 N   0  0  0  0  0  0  0  0  0  0  0  0
    7.5539  -10.3592   24.3250 C   0  0  0  0  0  0  0  0  0  0  0  0
    7.2213   -9.2431   24.5973 O   0  0  0  0  0  0  0  0  0  0  0  0
    8.2318  -10.5471   23.0279 C   0  0  0  0  0  0  0  0  0  0  0  0
    9.5812  -10.7388   22.7770 C   0  0  0  0  0  0  0  0  0  0  0  0
    9.9011  -10.6867   21.3837 C   0  0  0  0  0  0  0  0  0  0  0  0
    8.7889  -10.4493   20.6100 C   0  0  0  0  0  0  0  0  0  0  0  0
    7.3747  -10.2908   21.5615 S   0  0  0  0  0  0  0  0  0  0  0  0
    8.0996  -11.4931   28.3993 H   0  0  0  0  0  0  0  0  0  0  0  0
    8.6308  -10.3849   27.1247 H   0  0  0  0  0  0  0  0  0  0  0  0
    9.1663  -12.0727   27.1089 H   0  0  0  0  0  0  0  0  0  0  0  0
    6.3349  -11.0574   26.7389 H   0  0  0  0  0  0  0  0  0  0  0  0
    5.7347  -13.4665   26.0410 H   0  0  0  0  0  0  0  0  0  0  0  0
    7.2574  -13.9826   26.6921 H   0  0  0  0  0  0  0  0  0  0  0  0
    6.4786  -13.8875   28.8913 H   0  0  0  0  0  0  0  0  0  0  0  0
    5.4599  -12.4735   28.6159 H   0  0  0  0  0  0  0  0  0  0  0  0
    3.5726  -13.8622   28.2881 H   0  0  0  0  0  0  0  0  0  0  0  0
    2.9926  -18.4022   28.9429 H   0  0  0  0  0  0  0  0  0  0  0  0
    0.6017  -19.5863   29.3104 H   0  0  0  0  0  0  0  0  0  0  0  0
   -1.8622  -19.1343   29.8359 H   0  0  0  0  0  0  0  0  0  0  0  0
   -2.5080  -16.7436   30.1805 H   0  0  0  0  0  0  0  0  0  0  0  0
    7.9402  -12.3214   24.5807 H   0  0  0  0  0  0  0  0  0  0  0  0
   10.3134  -10.8837   23.5632 H   0  0  0  0  0  0  0  0  0  0  0  0
   10.8945  -10.8295   20.9762 H   0  0  0  0  0  0  0  0  0  0  0  0
    8.7278  -10.3725   19.5327 H   0  0  0  0  0  0  0  0  0  0  0  0
  1  2  1  0
  2  3  1  0
  3  4  1  0
  4  5  1  0
  5  6  1  0
  6  7  2  0
  6  8  1  0
  8  9  2  0
  9 10  1  0
 10 11  1  0
 11 12  2  0
 12 13  1  0
 13 14  2  0
 14 15  1  0
 15 16  2  0
  2 17  1  0
 17 18  1  0
 18 19  2  0
 18 20  1  0
 20 21  2  0
 21 22  1  0
 22 23  2  0
 23 24  1  0
 16  8  1  0
 24 20  1  0
 15 10  1  0
  1 25  1  0
  1 26  1  0
  1 27  1  0
  2 28  1  0
  3 29  1  0
  3 30  1  0
  4 31  1  0
  4 32  1  0
  5 33  1  0
  9 34  1  0
 11 35  1  0
 12 36  1  0
 13 37  1  0
 17 38  1  0
 21 39  1  0
 22 40  1  0
 23 41  1  0
M  END
>  <Energy>  (16) 
58.851295367237881

>  <compound_id>  (16) 
35492

>  <target_id>  (16) 
1

>  <reference_id>  (16) 
76

>  <inspiration_ids>  (16) 
[107, 76]

>  <energy_score>  (16) 
-12.956215931630766

>  <distance_score>  (16) 
15.070369654152888

>  <path>  (16) 
/opt/xchem-fragalysis-2/maxwin/BulkDock/SCRATCH/511013/C35492-P76/C35492-P76.minimised.mol

>  <scratch_subdir>  (16) 
/opt/xchem-fragalysis-2/maxwin/BulkDock/SCRATCH/511013/C35492-P76

>  <fragmenstein_runtime>  (16) 
16.095296144485474

>  <fragmenstein_outcome>  (16) 
too moved

>  <fragmenstein_mode>  (16) 
expansion

>  <fragmenstein_error>  (16) 


$$$$
C35493-P107
     RDKit          3D

 36 38  0  0  0  0  0  0  0  0999 V2000
   -4.9824   -9.1699   19.4445 C   0  0  0  0  0  0  0  0  0  0  0  0
   -4.5305  -10.4400   18.7191 C   0  0  0  0  0  0  0  0  0  0  0  0
   -2.9509  -10.3622   18.4705 C   0  0  0  0  0  0  0  0  0  0  0  0
   -2.4976   -9.4142   17.3442 C   0  0  0  0  0  0  0  0  0  0  0  0
   -1.6927   -8.2848   17.4100 C   0  0  0  0  0  0  0  0  0  0  0  0
   -1.3646   -7.7395   16.1270 C   0  0  0  0  0  0  0  0  0  0  0  0
   -1.8959   -8.4865   15.1078 C   0  0  0  0  0  0  0  0  0  0  0  0
   -2.8285   -9.7919   15.6975 S   0  0  0  0  0  0  0  0  0  0  0  0
   -5.0823  -11.6846   19.4071 N   0  0  0  0  0  0  0  0  0  0  0  0
   -6.2149  -11.8401   20.4616 C   0  0  0  0  0  0  0  0  0  0  0  0
   -6.8415  -11.0124   21.0182 O   0  0  0  0  0  0  0  0  0  0  0  0
   -6.2436  -13.3728   20.6237 N   0  0  0  0  0  0  0  0  0  0  0  0
   -6.9437  -14.1827   21.5292 C   0  0  0  0  0  0  0  0  0  0  0  0
   -6.9536  -15.6979   21.3866 C   0  0  0  0  0  0  0  0  0  0  0  0
   -7.5183  -16.5825   22.1608 N   0  0  0  0  0  0  0  0  0  0  0  0
   -8.1861  -16.0971   23.2477 C   0  0  0  0  0  0  0  0  0  0  0  0
   -8.8632  -16.7471   24.1767 N   0  0  0  0  0  0  0  0  0  0  0  0
   -9.2794  -15.8037   25.0790 C   0  0  0  0  0  0  0  0  0  0  0  0
   -8.8930  -14.5486   24.6756 C   0  0  0  0  0  0  0  0  0  0  0  0
   -8.2130  -14.7267   23.4920 N   0  0  0  0  0  0  0  0  0  0  0  0
   -7.6123  -13.7909   22.6342 C   0  0  0  0  0  0  0  0  0  0  0  0
   -4.6188   -9.1572   20.4777 H   0  0  0  0  0  0  0  0  0  0  0  0
   -6.0745   -9.0995   19.4683 H   0  0  0  0  0  0  0  0  0  0  0  0
   -4.6145   -8.2697   18.9420 H   0  0  0  0  0  0  0  0  0  0  0  0
   -5.0232  -10.4599   17.7398 H   0  0  0  0  0  0  0  0  0  0  0  0
   -2.4579  -10.0809   19.4092 H   0  0  0  0  0  0  0  0  0  0  0  0
   -2.5950  -11.3716   18.2255 H   0  0  0  0  0  0  0  0  0  0  0  0
   -1.3043   -7.9157   18.3458 H   0  0  0  0  0  0  0  0  0  0  0  0
   -0.7594   -6.8641   15.9397 H   0  0  0  0  0  0  0  0  0  0  0  0
   -1.8037   -8.3201   14.0433 H   0  0  0  0  0  0  0  0  0  0  0  0
   -4.8135  -12.5897   19.0706 H   0  0  0  0  0  0  0  0  0  0  0  0
   -5.6424  -13.7914   19.9379 H   0  0  0  0  0  0  0  0  0  0  0  0
   -6.4088  -16.0730   20.5033 H   0  0  0  0  0  0  0  0  0  0  0  0
   -9.8365  -16.0738   25.9664 H   0  0  0  0  0  0  0  0  0  0  0  0
   -9.0376  -13.5686   25.1070 H   0  0  0  0  0  0  0  0  0  0  0  0
   -7.6913  -12.7485   22.9231 H   0  0  0  0  0  0  0  0  0  0  0  0
  1  2  1  0
  2  3  1  0
  3  4  1  0
  4  5  2  0
  5  6  1  0
  6  7  2  0
  7  8  1  0
  2  9  1  0
  9 10  1  0
 10 11  2  0
 10 12  1  0
 12 13  1  0
 13 14  1  0
 14 15  2  0
 15 16  1  0
 16 17  2  0
 17 18  1  0
 18 19  2  0
 19 20  1  0
 20 21  1  0
  8  4  1  0
 21 13  2  0
 20 16  1  0
  1 22  1  0
  1 23  1  0
  1 24  1  0
  2 25  1  0
  3 26  1  0
  3 27  1  0
  5 28  1  0
  6 29  1  0
  7 30  1  0
  9 31  1  0
 12 32  1  0
 14 33  1  0
 18 34  1  0
 19 35  1  0
 21 36  1  0
M  END
>  <Energy>  (17) 
11.440672065296525

>  <compound_id>  (17) 
35493

>  <target_id>  (17) 
1

>  <reference_id>  (17) 
107

>  <inspiration_ids>  (17) 
[107, 76]

>  <energy_score>  (17) 
-27.030705498583927

>  <distance_score>  (17) 
17.166164030555937

>  <path>  (17) 
/opt/xchem-fragalysis-2/maxwin/BulkDock/SCRATCH/511013/C35493-P107/C35493-P107.minimised.mol

>  <scratch_subdir>  (17) 
/opt/xchem-fragalysis-2/maxwin/BulkDock/SCRATCH/511013/C35493-P107

>  <fragmenstein_runtime>  (17) 
16.908990621566772

>  <fragmenstein_outcome>  (17) 
too moved

>  <fragmenstein_mode>  (17) 
expansion

>  <fragmenstein_error>  (17) 


$$$$
C35493-P76
     RDKit          3D

 36 38  0  0  0  0  0  0  0  0999 V2000
   -5.4238  -10.5914   17.0747 C   0  0  0  0  0  0  0  0  0  0  0  0
   -4.5775  -10.6798   18.3479 C   0  0  0  0  0  0  0  0  0  0  0  0
   -3.0179  -10.5963   18.0326 C   0  0  0  0  0  0  0  0  0  0  0  0
   -2.5499   -9.5518   17.0023 C   0  0  0  0  0  0  0  0  0  0  0  0
   -2.3467   -9.7078   15.6352 C   0  0  0  0  0  0  0  0  0  0  0  0
   -1.6718   -8.6016   15.0255 C   0  0  0  0  0  0  0  0  0  0  0  0
   -1.4367   -7.5951   15.9282 C   0  0  0  0  0  0  0  0  0  0  0  0
   -2.0234   -7.9967   17.4842 S   0  0  0  0  0  0  0  0  0  0  0  0
   -5.0774  -11.8913   19.1202 N   0  0  0  0  0  0  0  0  0  0  0  0
   -6.1868  -12.0144   20.1894 C   0  0  0  0  0  0  0  0  0  0  0  0
   -6.8365  -11.1756   20.6984 O   0  0  0  0  0  0  0  0  0  0  0  0
   -6.1936  -13.5407   20.4205 N   0  0  0  0  0  0  0  0  0  0  0  0
   -6.8963  -14.3211   21.3499 C   0  0  0  0  0  0  0  0  0  0  0  0
   -6.8902  -15.8413   21.2661 C   0  0  0  0  0  0  0  0  0  0  0  0
   -7.4705  -16.7007   22.0574 N   0  0  0  0  0  0  0  0  0  0  0  0
   -8.1725  -16.1798   23.1057 C   0  0  0  0  0  0  0  0  0  0  0  0
   -8.8800  -16.7984   24.0341 N   0  0  0  0  0  0  0  0  0  0  0  0
   -9.3190  -15.8252   24.8932 C   0  0  0  0  0  0  0  0  0  0  0  0
   -8.9197  -14.5845   24.4593 C   0  0  0  0  0  0  0  0  0  0  0  0
   -8.2089  -14.8016   23.3007 N   0  0  0  0  0  0  0  0  0  0  0  0
   -7.5927  -13.8938   22.4239 C   0  0  0  0  0  0  0  0  0  0  0  0
   -5.2655   -9.6456   16.5484 H   0  0  0  0  0  0  0  0  0  0  0  0
   -5.1895  -11.4153   16.3919 H   0  0  0  0  0  0  0  0  0  0  0  0
   -6.4919  -10.6551   17.3118 H   0  0  0  0  0  0  0  0  0  0  0  0
   -4.8371   -9.8162   18.9727 H   0  0  0  0  0  0  0  0  0  0  0  0
   -2.7004  -11.5829   17.6681 H   0  0  0  0  0  0  0  0  0  0  0  0
   -2.4894  -10.4484   18.9823 H   0  0  0  0  0  0  0  0  0  0  0  0
   -2.6102  -10.6143   15.1034 H   0  0  0  0  0  0  0  0  0  0  0  0
   -1.3930   -8.5485   13.9805 H   0  0  0  0  0  0  0  0  0  0  0  0
   -0.9734   -6.6366   15.7418 H   0  0  0  0  0  0  0  0  0  0  0  0
   -4.7809  -12.8069   18.8410 H   0  0  0  0  0  0  0  0  0  0  0  0
   -5.5740  -13.9795   19.7642 H   0  0  0  0  0  0  0  0  0  0  0  0
   -6.3182  -16.2452   20.4133 H   0  0  0  0  0  0  0  0  0  0  0  0
   -9.9015  -16.0650   25.7730 H   0  0  0  0  0  0  0  0  0  0  0  0
   -9.0756  -13.5904   24.8531 H   0  0  0  0  0  0  0  0  0  0  0  0
   -7.6889  -12.8416   22.6694 H   0  0  0  0  0  0  0  0  0  0  0  0
  1  2  1  0
  2  3  1  0
  3  4  1  0
  4  5  2  0
  5  6  1  0
  6  7  2  0
  7  8  1  0
  2  9  1  0
  9 10  1  0
 10 11  2  0
 10 12  1  0
 12 13  1  0
 13 14  1  0
 14 15  2  0
 15 16  1  0
 16 17  2  0
 17 18  1  0
 18 19  2  0
 19 20  1  0
 20 21  1  0
  8  4  1  0
 21 13  2  0
 20 16  1  0
  1 22  1  0
  1 23  1  0
  1 24  1  0
  2 25  1  0
  3 26  1  0
  3 27  1  0
  5 28  1  0
  6 29  1  0
  7 30  1  0
  9 31  1  0
 12 32  1  0
 14 33  1  0
 18 34  1  0
 19 35  1  0
 21 36  1  0
M  END
>  <Energy>  (18) 
10.203148888133908

>  <compound_id>  (18) 
35493

>  <target_id>  (18) 
1

>  <reference_id>  (18) 
76

>  <inspiration_ids>  (18) 
[107, 76]

>  <energy_score>  (18) 
-28.268228675746343

>  <distance_score>  (18) 
17.252845188486678

>  <path>  (18) 
/opt/xchem-fragalysis-2/maxwin/BulkDock/SCRATCH/511013/C35493-P76/C35493-P76.minimised.mol

>  <scratch_subdir>  (18) 
/opt/xchem-fragalysis-2/maxwin/BulkDock/SCRATCH/511013/C35493-P76

>  <fragmenstein_runtime>  (18) 
9.008879899978638

>  <fragmenstein_outcome>  (18) 
too moved

>  <fragmenstein_mode>  (18) 
expansion

>  <fragmenstein_error>  (18) 


$$$$
C35494-P107
     RDKit          3D

 35 38  0  0  0  0  0  0  0  0999 V2000
    4.2292   -2.2671   13.9410 C   0  0  0  0  0  0  0  0  0  0  0  0
    4.0154   -1.3124   14.9079 C   0  0  0  0  0  0  0  0  0  0  0  0
    3.3133   -1.9804   16.3199 S   0  0  0  0  0  0  0  0  0  0  0  0
    3.5046   -3.5848   15.7269 C   0  0  0  0  0  0  0  0  0  0  0  0
    3.2985   -4.7721   16.6353 C   0  0  0  0  0  0  0  0  0  0  0  0
    1.9202   -5.4364   16.4653 C   0  0  0  0  0  0  0  0  0  0  0  0
    1.6436   -6.5453   17.5166 C   0  0  0  0  0  0  0  0  0  0  0  0
    0.2725   -7.2437   17.4356 C   0  0  0  0  0  0  0  0  0  0  0  0
   -0.5809   -7.3712   16.4401 N   0  0  0  0  0  0  0  0  0  0  0  0
   -1.6614   -8.1884   16.9005 N   0  0  0  0  0  0  0  0  0  0  0  0
   -1.4232   -8.5402   18.1592 C   0  0  0  0  0  0  0  0  0  0  0  0
   -2.2398   -9.4551   19.0251 C   0  0  0  0  0  0  0  0  0  0  0  0
   -2.2001   -9.5384   20.4137 C   0  0  0  0  0  0  0  0  0  0  0  0
   -2.9627  -10.5526   20.9157 N   0  0  0  0  0  0  0  0  0  0  0  0
   -3.5047  -11.1523   19.8781 C   0  0  0  0  0  0  0  0  0  0  0  0
   -4.3218  -12.2597   19.8720 N   0  0  0  0  0  0  0  0  0  0  0  0
   -4.7080  -12.7046   18.7241 C   0  0  0  0  0  0  0  0  0  0  0  0
   -4.3203  -12.1281   17.4185 C   0  0  0  0  0  0  0  0  0  0  0  0
   -3.5179  -11.0491   17.4677 C   0  0  0  0  0  0  0  0  0  0  0  0
   -3.0920  -10.5267   18.6896 N   0  0  0  0  0  0  0  0  0  0  0  0
   -0.1923   -7.9432   18.5511 O   0  0  0  0  0  0  0  0  0  0  0  0
    3.8559   -3.5652   14.3917 C   0  0  0  0  0  0  0  0  0  0  0  0
    4.6016   -2.0406   12.9491 H   0  0  0  0  0  0  0  0  0  0  0  0
    4.1791   -0.2461   14.8332 H   0  0  0  0  0  0  0  0  0  0  0  0
    4.0839   -5.5129   16.4398 H   0  0  0  0  0  0  0  0  0  0  0  0
    3.4096   -4.4668   17.6825 H   0  0  0  0  0  0  0  0  0  0  0  0
    1.1310   -4.6773   16.5431 H   0  0  0  0  0  0  0  0  0  0  0  0
    1.8365   -5.8628   15.4575 H   0  0  0  0  0  0  0  0  0  0  0  0
    1.7353   -6.1162   18.5215 H   0  0  0  0  0  0  0  0  0  0  0  0
    2.4077   -7.3254   17.4202 H   0  0  0  0  0  0  0  0  0  0  0  0
   -1.6015   -8.9221   21.0725 H   0  0  0  0  0  0  0  0  0  0  0  0
   -5.3714  -13.5836   18.6763 H   0  0  0  0  0  0  0  0  0  0  0  0
   -4.6844  -12.5729   16.5035 H   0  0  0  0  0  0  0  0  0  0  0  0
   -3.1706  -10.5405   16.5759 H   0  0  0  0  0  0  0  0  0  0  0  0
    3.8955   -4.4540   13.7763 H   0  0  0  0  0  0  0  0  0  0  0  0
  1  2  2  0
  2  3  1  0
  3  4  1  0
  4  5  1  0
  5  6  1  0
  6  7  1  0
  7  8  1  0
  8  9  2  0
  9 10  1  0
 10 11  2  0
 11 12  1  0
 12 13  2  0
 13 14  1  0
 14 15  2  0
 15 16  1  0
 16 17  2  0
 17 18  1  0
 18 19  2  0
 19 20  1  0
 11 21  1  0
  4 22  2  0
 22  1  1  0
 21  8  1  0
 20 12  1  0
 20 15  1  0
  1 23  1  0
  2 24  1  0
  5 25  1  0
  5 26  1  0
  6 27  1  0
  6 28  1  0
  7 29  1  0
  7 30  1  0
 13 31  1  0
 17 32  1  0
 18 33  1  0
 19 34  1  0
 22 35  1  0
M  END
>  <Energy>  (19) 
34.87986508208521

>  <compound_id>  (19) 
35494

>  <target_id>  (19) 
1

>  <reference_id>  (19) 
107

>  <inspiration_ids>  (19) 
[107, 76]

>  <energy_score>  (19) 
-26.839376558776053

>  <distance_score>  (19) 
16.169717118681056

>  <path>  (19) 
/opt/xchem-fragalysis-2/maxwin/BulkDock/SCRATCH/511013/C35494-P107/C35494-P107.minimised.mol

>  <scratch_subdir>  (19) 
/opt/xchem-fragalysis-2/maxwin/BulkDock/SCRATCH/511013/C35494-P107

>  <fragmenstein_runtime>  (19) 
11.372572898864746

>  <fragmenstein_outcome>  (19) 
too moved

>  <fragmenstein_mode>  (19) 
expansion

>  <fragmenstein_error>  (19) 


$$$$
C35494-P76
     RDKit          3D

 35 38  0  0  0  0  0  0  0  0999 V2000
   12.3033   -4.7518   18.0232 C   0  0  0  0  0  0  0  0  0  0  0  0
   12.6529   -4.9436   19.3135 C   0  0  0  0  0  0  0  0  0  0  0  0
   11.3785   -5.5523   20.2967 S   0  0  0  0  0  0  0  0  0  0  0  0
    9.4549   -5.9750   19.0692 C   0  0  0  0  0  0  0  0  0  0  0  0
    7.2733   -6.6019   18.9668 C   0  0  0  0  0  0  0  0  0  0  0  0
    5.4607   -7.6325   18.2801 C   0  0  0  0  0  0  0  0  0  0  0  0
    3.4289   -8.4831   18.1695 C   0  0  0  0  0  0  0  0  0  0  0  0
    1.7533   -9.0542   19.3810 C   0  0  0  0  0  0  0  0  0  0  0  0
    0.3993   -8.5652   19.9254 N   0  0  0  0  0  0  0  0  0  0  0  0
   -0.5581   -9.7140   21.1057 N   0  0  0  0  0  0  0  0  0  0  0  0
    0.1221  -10.7574   21.9483 C   0  0  0  0  0  0  0  0  0  0  0  0
   -0.2658  -12.6414   22.7344 C   0  0  0  0  0  0  0  0  0  0  0  0
   -0.2205  -14.3199   22.5012 C   0  0  0  0  0  0  0  0  0  0  0  0
   -1.3979  -15.2280   22.2819 N   0  0  0  0  0  0  0  0  0  0  0  0
   -1.7039  -15.2495   23.5111 C   0  0  0  0  0  0  0  0  0  0  0  0
   -2.6740  -15.9257   24.2058 N   0  0  0  0  0  0  0  0  0  0  0  0
   -2.7851  -15.6869   25.4658 C   0  0  0  0  0  0  0  0  0  0  0  0
   -1.9738  -14.7420   26.2494 C   0  0  0  0  0  0  0  0  0  0  0  0
   -1.0254  -13.9992   25.6397 C   0  0  0  0  0  0  0  0  0  0  0  0
   -0.7028  -14.0251   24.0369 N   0  0  0  0  0  0  0  0  0  0  0  0
    1.4682   -9.6979   21.1469 O   0  0  0  0  0  0  0  0  0  0  0  0
   10.7195   -5.2880   17.8362 C   0  0  0  0  0  0  0  0  0  0  0  0
   12.8546   -4.3285   17.1939 H   0  0  0  0  0  0  0  0  0  0  0  0
   13.5922   -4.7014   19.7897 H   0  0  0  0  0  0  0  0  0  0  0  0
    7.2029   -7.4435   19.6490 H   0  0  0  0  0  0  0  0  0  0  0  0
    6.7843   -5.6386   19.2650 H   0  0  0  0  0  0  0  0  0  0  0  0
    5.4416   -7.1799   17.2764 H   0  0  0  0  0  0  0  0  0  0  0  0
    5.9108   -8.6241   18.1874 H   0  0  0  0  0  0  0  0  0  0  0  0
    3.4881   -9.2931   17.4277 H   0  0  0  0  0  0  0  0  0  0  0  0
    2.9070   -7.6437   17.6617 H   0  0  0  0  0  0  0  0  0  0  0  0
    0.6001  -14.8691   22.0243 H   0  0  0  0  0  0  0  0  0  0  0  0
   -3.5548  -16.2282   26.0408 H   0  0  0  0  0  0  0  0  0  0  0  0
   -2.1477  -14.6921   27.3167 H   0  0  0  0  0  0  0  0  0  0  0  0
   -0.4210  -13.3371   26.2549 H   0  0  0  0  0  0  0  0  0  0  0  0
   10.6285   -4.8685   16.8335 H   0  0  0  0  0  0  0  0  0  0  0  0
  1  2  2  0
  2  3  1  0
  3  4  1  0
  4  5  1  0
  5  6  1  0
  6  7  1  0
  7  8  1  0
  8  9  2  0
  9 10  1  0
 10 11  2  0
 11 12  1  0
 12 13  2  0
 13 14  1  0
 14 15  2  0
 15 16  1  0
 16 17  2  0
 17 18  1  0
 18 19  2  0
 19 20  1  0
 11 21  1  0
  4 22  2  0
 22  1  1  0
 21  8  1  0
 20 12  1  0
 20 15  1  0
  1 23  1  0
  2 24  1  0
  5 25  1  0
  5 26  1  0
  6 27  1  0
  6 28  1  0
  7 29  1  0
  7 30  1  0
 13 31  1  0
 17 32  1  0
 18 33  1  0
 19 34  1  0
 22 35  1  0
M  END
>  <Energy>  (20) 
1892.0958765676082

>  <compound_id>  (20) 
35494

>  <target_id>  (20) 
1

>  <reference_id>  (20) 
76

>  <inspiration_ids>  (20) 
[107, 76]

>  <energy_score>  (20) 
1830.376634926752

>  <distance_score>  (20) 
13.592469600786792

>  <path>  (20) 
/opt/xchem-fragalysis-2/maxwin/BulkDock/SCRATCH/511013/C35494-P76/C35494-P76.minimised.mol

>  <scratch_subdir>  (20) 
/opt/xchem-fragalysis-2/maxwin/BulkDock/SCRATCH/511013/C35494-P76

>  <fragmenstein_runtime>  (20) 
5.460742712020874

>  <fragmenstein_outcome>  (20) 
too moved

>  <fragmenstein_mode>  (20) 
expansion

>  <fragmenstein_error>  (20) 


$$$$
C35495-P107
     RDKit          3D

 38 40  0  0  0  0  0  0  0  0999 V2000
    8.0242  -13.4343   17.3680 C   0  0  0  0  0  0  0  0  0  0  0  0
    6.8459  -12.7479   16.7945 N   0  0  0  0  0  0  0  0  0  0  0  0
    7.9233  -11.4869   16.7041 C   0  0  0  0  0  0  0  0  0  0  0  0
    9.3493  -11.2476   15.8452 C   0  0  0  0  0  0  0  0  0  0  0  0
    9.9730   -9.8204   15.9974 N   0  0  0  0  0  0  0  0  0  0  0  0
   11.6396   -9.2333   15.8356 C   0  0  0  0  0  0  0  0  0  0  0  0
   12.4497   -9.9847   15.4799 O   0  0  0  0  0  0  0  0  0  0  0  0
   12.1648   -7.2952   16.1434 C   0  0  0  0  0  0  0  0  0  0  0  0
   13.2821   -6.1578   15.9949 C   0  0  0  0  0  0  0  0  0  0  0  0
   13.7003   -4.9153   16.6835 C   0  0  0  0  0  0  0  0  0  0  0  0
   12.6674   -4.6202   17.4636 C   0  0  0  0  0  0  0  0  0  0  0  0
   11.5101   -5.1985   16.3450 S   0  0  0  0  0  0  0  0  0  0  0  0
    5.6505  -12.9460   17.6802 C   0  0  0  0  0  0  0  0  0  0  0  0
    5.2414  -12.2763   18.5982 O   0  0  0  0  0  0  0  0  0  0  0  0
    4.6737  -14.1793   17.4208 C   0  0  0  0  0  0  0  0  0  0  0  0
    3.2870  -14.0553   17.2215 C   0  0  0  0  0  0  0  0  0  0  0  0
    2.6869  -15.2835   17.4436 N   0  0  0  0  0  0  0  0  0  0  0  0
    1.3413  -15.6764   17.3865 C   0  0  0  0  0  0  0  0  0  0  0  0
    0.9845  -16.9332   17.6957 C   0  0  0  0  0  0  0  0  0  0  0  0
    2.1312  -17.8294   17.9941 C   0  0  0  0  0  0  0  0  0  0  0  0
    3.3903  -17.4912   18.0233 N   0  0  0  0  0  0  0  0  0  0  0  0
    3.6999  -16.1703   17.7768 C   0  0  0  0  0  0  0  0  0  0  0  0
    4.8721  -15.5266   17.8211 N   0  0  0  0  0  0  0  0  0  0  0  0
    8.3739  -13.0255   18.3263 H   0  0  0  0  0  0  0  0  0  0  0  0
    8.8141  -13.6109   16.6303 H   0  0  0  0  0  0  0  0  0  0  0  0
    7.6836  -14.4467   17.6292 H   0  0  0  0  0  0  0  0  0  0  0  0
    8.0573  -11.0915   17.7250 H   0  0  0  0  0  0  0  0  0  0  0  0
    7.2510  -10.7433   16.2526 H   0  0  0  0  0  0  0  0  0  0  0  0
   10.1233  -11.9422   16.1809 H   0  0  0  0  0  0  0  0  0  0  0  0
    9.1612  -11.4061   14.7801 H   0  0  0  0  0  0  0  0  0  0  0  0
    9.3857   -9.0421   16.2266 H   0  0  0  0  0  0  0  0  0  0  0  0
   14.0848   -6.4357   15.3319 H   0  0  0  0  0  0  0  0  0  0  0  0
   14.6595   -4.4216   16.5931 H   0  0  0  0  0  0  0  0  0  0  0  0
   12.5591   -3.7928   18.1468 H   0  0  0  0  0  0  0  0  0  0  0  0
    2.6941  -13.1787   17.0059 H   0  0  0  0  0  0  0  0  0  0  0  0
    0.6241  -14.9150   17.1073 H   0  0  0  0  0  0  0  0  0  0  0  0
   -0.0251  -17.3152   17.6957 H   0  0  0  0  0  0  0  0  0  0  0  0
    1.8636  -18.8792   18.2012 H   0  0  0  0  0  0  0  0  0  0  0  0
  1  2  1  0
  2  3  1  0
  3  4  1  0
  4  5  1  0
  5  6  1  0
  6  7  2  0
  6  8  1  0
  8  9  2  0
  9 10  1  0
 10 11  2  0
 11 12  1  0
  2 13  1  0
 13 14  2  0
 13 15  1  0
 15 16  2  0
 16 17  1  0
 17 18  1  0
 18 19  2  0
 19 20  1  0
 20 21  2  0
 21 22  1  0
 22 23  2  0
 12  8  1  0
 23 15  1  0
 22 17  1  0
  1 24  1  0
  1 25  1  0
  1 26  1  0
  3 27  1  0
  3 28  1  0
  4 29  1  0
  4 30  1  0
  5 31  1  0
  9 32  1  0
 10 33  1  0
 11 34  1  0
 16 35  1  0
 18 36  1  0
 19 37  1  0
 20 38  1  0
M  END
>  <Energy>  (21) 
491.06898979302611

>  <compound_id>  (21) 
35495

>  <target_id>  (21) 
1

>  <reference_id>  (21) 
107

>  <inspiration_ids>  (21) 
[107, 76]

>  <energy_score>  (21) 
387.33686511192036

>  <distance_score>  (21) 
16.21066758407968

>  <path>  (21) 
/opt/xchem-fragalysis-2/maxwin/BulkDock/SCRATCH/511013/C35495-P107/C35495-P107.minimised.mol

>  <scratch_subdir>  (21) 
/opt/xchem-fragalysis-2/maxwin/BulkDock/SCRATCH/511013/C35495-P107

>  <fragmenstein_runtime>  (21) 
18.07481622695923

>  <fragmenstein_outcome>  (21) 
too moved

>  <fragmenstein_mode>  (21) 
expansion

>  <fragmenstein_error>  (21) 


$$$$
C35495-P76
     RDKit          3D

 38 40  0  0  0  0  0  0  0  0999 V2000
    2.7203   -6.7948   16.5721 C   0  0  0  0  0  0  0  0  0  0  0  0
    3.1430   -7.9212   17.4220 N   0  0  0  0  0  0  0  0  0  0  0  0
    4.6294   -7.2759   17.1313 C   0  0  0  0  0  0  0  0  0  0  0  0
    5.4349   -6.5922   15.7899 C   0  0  0  0  0  0  0  0  0  0  0  0
    7.0400   -6.4404   16.0754 N   0  0  0  0  0  0  0  0  0  0  0  0
    8.5562   -6.7305   14.9725 C   0  0  0  0  0  0  0  0  0  0  0  0
    8.3135   -6.9767   13.8871 O   0  0  0  0  0  0  0  0  0  0  0  0
   10.6625   -6.5433   15.2104 C   0  0  0  0  0  0  0  0  0  0  0  0
   11.7157   -6.1928   16.2438 C   0  0  0  0  0  0  0  0  0  0  0  0
   12.2615   -4.9234   16.7215 C   0  0  0  0  0  0  0  0  0  0  0  0
   11.8151   -3.8608   16.0392 C   0  0  0  0  0  0  0  0  0  0  0  0
   10.7437   -4.2752   14.8303 S   0  0  0  0  0  0  0  0  0  0  0  0
    2.3279   -7.9544   18.6733 C   0  0  0  0  0  0  0  0  0  0  0  0
    2.5271   -7.4366   19.7457 O   0  0  0  0  0  0  0  0  0  0  0  0
    0.9881   -8.8357   18.7299 C   0  0  0  0  0  0  0  0  0  0  0  0
    0.1795   -8.8960   19.8874 C   0  0  0  0  0  0  0  0  0  0  0  0
   -0.8588   -9.7677   19.6611 N   0  0  0  0  0  0  0  0  0  0  0  0
   -1.9623  -10.1021   20.4514 C   0  0  0  0  0  0  0  0  0  0  0  0
   -2.8736  -10.9673   19.9831 C   0  0  0  0  0  0  0  0  0  0  0  0
   -2.5436  -11.5714   18.6700 C   0  0  0  0  0  0  0  0  0  0  0  0
   -1.5324  -11.2589   17.9151 N   0  0  0  0  0  0  0  0  0  0  0  0
   -0.6785  -10.2814   18.3810 C   0  0  0  0  0  0  0  0  0  0  0  0
    0.3882   -9.7114   17.8015 N   0  0  0  0  0  0  0  0  0  0  0  0
    3.0068   -6.9264   15.5221 H   0  0  0  0  0  0  0  0  0  0  0  0
    1.6213   -6.8300   16.5451 H   0  0  0  0  0  0  0  0  0  0  0  0
    2.9370   -5.8015   16.9922 H   0  0  0  0  0  0  0  0  0  0  0  0
    5.2535   -8.1399   17.3946 H   0  0  0  0  0  0  0  0  0  0  0  0
    4.7950   -6.5760   17.9672 H   0  0  0  0  0  0  0  0  0  0  0  0
    5.0162   -5.5910   15.6914 H   0  0  0  0  0  0  0  0  0  0  0  0
    5.3016   -7.2354   14.9173 H   0  0  0  0  0  0  0  0  0  0  0  0
    7.3526   -6.1504   16.9758 H   0  0  0  0  0  0  0  0  0  0  0  0
   12.3286   -7.0534   16.3990 H   0  0  0  0  0  0  0  0  0  0  0  0
   13.0463   -4.8246   17.4575 H   0  0  0  0  0  0  0  0  0  0  0  0
   12.1167   -2.8304   16.1574 H   0  0  0  0  0  0  0  0  0  0  0  0
    0.3072   -8.4036   20.8412 H   0  0  0  0  0  0  0  0  0  0  0  0
   -2.0646   -9.5666   21.3839 H   0  0  0  0  0  0  0  0  0  0  0  0
   -3.8172  -11.1968   20.4455 H   0  0  0  0  0  0  0  0  0  0  0  0
   -3.2443  -12.3481   18.3214 H   0  0  0  0  0  0  0  0  0  0  0  0
  1  2  1  0
  2  3  1  0
  3  4  1  0
  4  5  1  0
  5  6  1  0
  6  7  2  0
  6  8  1  0
  8  9  2  0
  9 10  1  0
 10 11  2  0
 11 12  1  0
  2 13  1  0
 13 14  2  0
 13 15  1  0
 15 16  2  0
 16 17  1  0
 17 18  1  0
 18 19  2  0
 19 20  1  0
 20 21  2  0
 21 22  1  0
 22 23  2  0
 12  8  1  0
 23 15  1  0
 22 17  1  0
  1 24  1  0
  1 25  1  0
  1 26  1  0
  3 27  1  0
  3 28  1  0
  4 29  1  0
  4 30  1  0
  5 31  1  0
  9 32  1  0
 10 33  1  0
 11 34  1  0
 16 35  1  0
 18 36  1  0
 19 37  1  0
 20 38  1  0
M  END
>  <Energy>  (22) 
524.16736441103444

>  <compound_id>  (22) 
35495

>  <target_id>  (22) 
1

>  <reference_id>  (22) 
76

>  <inspiration_ids>  (22) 
[107, 76]

>  <energy_score>  (22) 
420.43523972993796

>  <distance_score>  (22) 
15.661974717173178

>  <path>  (22) 
/opt/xchem-fragalysis-2/maxwin/BulkDock/SCRATCH/511013/C35495-P76/C35495-P76.minimised.mol

>  <scratch_subdir>  (22) 
/opt/xchem-fragalysis-2/maxwin/BulkDock/SCRATCH/511013/C35495-P76

>  <fragmenstein_runtime>  (22) 
8.117518663406372

>  <fragmenstein_outcome>  (22) 
too moved

>  <fragmenstein_mode>  (22) 
expansion

>  <fragmenstein_error>  (22) 


$$$$
C35496-P107
     RDKit          3D

 38 40  0  0  0  0  0  0  0  0999 V2000
   -5.2780  -16.5502   27.8489 C   0  0  0  0  0  0  0  0  0  0  0  0
   -4.7000  -17.2235   26.7280 O   0  0  0  0  0  0  0  0  0  0  0  0
   -4.8640  -18.5747   26.7573 C   0  0  0  0  0  0  0  0  0  0  0  0
   -5.5501  -19.1778   27.5690 O   0  0  0  0  0  0  0  0  0  0  0  0
   -4.0956  -19.1937   25.7266 C   0  0  0  0  0  0  0  0  0  0  0  0
   -3.4768  -20.4235   25.7759 C   0  0  0  0  0  0  0  0  0  0  0  0
   -2.7416  -20.6472   24.6421 N   0  0  0  0  0  0  0  0  0  0  0  0
   -2.9087  -19.5870   23.8699 C   0  0  0  0  0  0  0  0  0  0  0  0
   -2.3048  -19.2679   22.6702 N   0  0  0  0  0  0  0  0  0  0  0  0
   -2.7543  -18.2440   21.9796 C   0  0  0  0  0  0  0  0  0  0  0  0
   -2.1907  -17.8246   20.7457 N   0  0  0  0  0  0  0  0  0  0  0  0
   -0.7024  -17.6493   20.4791 C   0  0  0  0  0  0  0  0  0  0  0  0
   -0.2770  -17.2094   18.9643 C   0  0  0  0  0  0  0  0  0  0  0  0
   -1.1325  -16.0711   18.3663 C   0  0  0  0  0  0  0  0  0  0  0  0
    1.2352  -17.0328   18.6696 C   0  0  0  0  0  0  0  0  0  0  0  0
    1.8940  -16.0698   17.9143 C   0  0  0  0  0  0  0  0  0  0  0  0
    3.2897  -16.2816   17.8466 C   0  0  0  0  0  0  0  0  0  0  0  0
    3.6806  -17.4613   18.4160 C   0  0  0  0  0  0  0  0  0  0  0  0
    2.3544  -18.2619   19.1274 S   0  0  0  0  0  0  0  0  0  0  0  0
   -3.9501  -17.4473   22.4901 C   0  0  0  0  0  0  0  0  0  0  0  0
   -4.4050  -17.7009   23.7257 C   0  0  0  0  0  0  0  0  0  0  0  0
   -3.8554  -18.7453   24.4471 N   0  0  0  0  0  0  0  0  0  0  0  0
   -4.8321  -16.9080   28.7824 H   0  0  0  0  0  0  0  0  0  0  0  0
   -5.0612  -15.4831   27.7495 H   0  0  0  0  0  0  0  0  0  0  0  0
   -6.3638  -16.6821   27.8641 H   0  0  0  0  0  0  0  0  0  0  0  0
   -3.4819  -21.1376   26.5906 H   0  0  0  0  0  0  0  0  0  0  0  0
   -2.7049  -17.0674   20.3102 H   0  0  0  0  0  0  0  0  0  0  0  0
   -0.2121  -18.5999   20.7158 H   0  0  0  0  0  0  0  0  0  0  0  0
   -0.3199  -16.9024   21.1817 H   0  0  0  0  0  0  0  0  0  0  0  0
   -0.5484  -18.0931   18.3629 H   0  0  0  0  0  0  0  0  0  0  0  0
   -1.6391  -15.4914   19.1389 H   0  0  0  0  0  0  0  0  0  0  0  0
   -1.9525  -16.5261   17.7939 H   0  0  0  0  0  0  0  0  0  0  0  0
   -0.6293  -15.4023   17.6689 H   0  0  0  0  0  0  0  0  0  0  0  0
    1.4223  -15.2148   17.4457 H   0  0  0  0  0  0  0  0  0  0  0  0
    3.9687  -15.5868   17.4072 H   0  0  0  0  0  0  0  0  0  0  0  0
    4.6783  -17.8717   18.4808 H   0  0  0  0  0  0  0  0  0  0  0  0
   -4.3461  -16.6539   21.8717 H   0  0  0  0  0  0  0  0  0  0  0  0
   -5.2009  -17.1267   24.1792 H   0  0  0  0  0  0  0  0  0  0  0  0
  1  2  1  0
  2  3  1  0
  3  4  2  0
  3  5  1  0
  5  6  2  0
  6  7  1  0
  7  8  2  0
  8  9  1  0
  9 10  2  0
 10 11  1  0
 11 12  1  0
 12 13  1  0
 13 14  1  0
 13 15  1  0
 15 16  2  0
 16 17  1  0
 17 18  2  0
 18 19  1  0
 10 20  1  0
 20 21  2  0
 21 22  1  0
 22  5  1  0
 22  8  1  0
 19 15  1  0
  1 23  1  0
  1 24  1  0
  1 25  1  0
  6 26  1  0
 11 27  1  0
 12 28  1  0
 12 29  1  0
 13 30  1  0
 14 31  1  0
 14 32  1  0
 14 33  1  0
 16 34  1  0
 17 35  1  0
 18 36  1  0
 20 37  1  0
 21 38  1  0
M  END
>  <Energy>  (23) 
3.842775039194601

>  <compound_id>  (23) 
35496

>  <target_id>  (23) 
1

>  <reference_id>  (23) 
107

>  <inspiration_ids>  (23) 
[107, 76]

>  <energy_score>  (23) 
-20.944924659107414

>  <distance_score>  (23) 
15.929538584431487

>  <path>  (23) 
/opt/xchem-fragalysis-2/maxwin/BulkDock/SCRATCH/511013/C35496-P107/C35496-P107.minimised.mol

>  <scratch_subdir>  (23) 
/opt/xchem-fragalysis-2/maxwin/BulkDock/SCRATCH/511013/C35496-P107

>  <fragmenstein_runtime>  (23) 
19.982038974761963

>  <fragmenstein_outcome>  (23) 
too moved

>  <fragmenstein_mode>  (23) 
expansion

>  <fragmenstein_error>  (23) 


$$$$
C35496-P76
     RDKit          3D

 38 40  0  0  0  0  0  0  0  0999 V2000
   -2.6981  -20.2846   18.9014 C   0  0  0  0  0  0  0  0  0  0  0  0
   -1.4548  -19.6539   19.2111 O   0  0  0  0  0  0  0  0  0  0  0  0
   -1.2311  -18.4951   18.5262 C   0  0  0  0  0  0  0  0  0  0  0  0
   -2.0167  -18.0110   17.7223 O   0  0  0  0  0  0  0  0  0  0  0  0
    0.0410  -17.9489   18.9014 C   0  0  0  0  0  0  0  0  0  0  0  0
    0.9427  -18.3952   19.8423 C   0  0  0  0  0  0  0  0  0  0  0  0
    2.0572  -17.5978   19.8712 N   0  0  0  0  0  0  0  0  0  0  0  0
    1.8755  -16.6259   18.9814 C   0  0  0  0  0  0  0  0  0  0  0  0
    2.6822  -15.5057   18.7060 N   0  0  0  0  0  0  0  0  0  0  0  0
    2.2258  -14.4029   18.1017 C   0  0  0  0  0  0  0  0  0  0  0  0
    3.0493  -12.8572   18.0678 N   0  0  0  0  0  0  0  0  0  0  0  0
    3.3989  -11.6565   16.5971 C   0  0  0  0  0  0  0  0  0  0  0  0
    3.8311  -11.7412   14.6822 C   0  0  0  0  0  0  0  0  0  0  0  0
    2.8113  -12.1934   13.5581 C   0  0  0  0  0  0  0  0  0  0  0  0
    5.1330  -11.4238   13.7467 C   0  0  0  0  0  0  0  0  0  0  0  0
    5.4754  -10.2194   13.1107 C   0  0  0  0  0  0  0  0  0  0  0  0
    6.5898  -10.3058   12.2295 C   0  0  0  0  0  0  0  0  0  0  0  0
    7.0422  -11.5942   12.1196 C   0  0  0  0  0  0  0  0  0  0  0  0
    6.0169  -12.6980   12.9280 S   0  0  0  0  0  0  0  0  0  0  0  0
    0.7709  -14.6352   17.5335 C   0  0  0  0  0  0  0  0  0  0  0  0
    0.0752  -15.7820   17.6518 C   0  0  0  0  0  0  0  0  0  0  0  0
    0.6110  -16.7878   18.4182 N   0  0  0  0  0  0  0  0  0  0  0  0
   -2.7367  -20.5576   17.8421 H   0  0  0  0  0  0  0  0  0  0  0  0
   -3.5356  -19.6315   19.1657 H   0  0  0  0  0  0  0  0  0  0  0  0
   -2.7714  -21.1989   19.4968 H   0  0  0  0  0  0  0  0  0  0  0  0
    0.8627  -19.2642   20.4831 H   0  0  0  0  0  0  0  0  0  0  0  0
    3.9063  -12.9815   18.6032 H   0  0  0  0  0  0  0  0  0  0  0  0
    4.3311  -12.0094   16.7505 H   0  0  0  0  0  0  0  0  0  0  0  0
    3.3049  -10.6492   16.9969 H   0  0  0  0  0  0  0  0  0  0  0  0
    3.6047  -10.7024   14.5881 H   0  0  0  0  0  0  0  0  0  0  0  0
    2.5639  -11.4030   12.8654 H   0  0  0  0  0  0  0  0  0  0  0  0
    3.2135  -12.8478   12.7864 H   0  0  0  0  0  0  0  0  0  0  0  0
    1.8671  -12.5737   13.9276 H   0  0  0  0  0  0  0  0  0  0  0  0
    4.9548   -9.2886   13.2760 H   0  0  0  0  0  0  0  0  0  0  0  0
    7.0357   -9.4700   11.7067 H   0  0  0  0  0  0  0  0  0  0  0  0
    7.8749  -11.9564   11.5344 H   0  0  0  0  0  0  0  0  0  0  0  0
    0.2007  -13.7728   17.3193 H   0  0  0  0  0  0  0  0  0  0  0  0
   -0.9528  -15.8632   17.3247 H   0  0  0  0  0  0  0  0  0  0  0  0
  1  2  1  0
  2  3  1  0
  3  4  2  0
  3  5  1  0
  5  6  2  0
  6  7  1  0
  7  8  2  0
  8  9  1  0
  9 10  2  0
 10 11  1  0
 11 12  1  0
 12 13  1  0
 13 14  1  0
 13 15  1  0
 15 16  2  0
 16 17  1  0
 17 18  2  0
 18 19  1  0
 10 20  1  0
 20 21  2  0
 21 22  1  0
 22  5  1  0
 22  8  1  0
 19 15  1  0
  1 23  1  0
  1 24  1  0
  1 25  1  0
  6 26  1  0
 11 27  1  0
 12 28  1  0
 12 29  1  0
 13 30  1  0
 14 31  1  0
 14 32  1  0
 14 33  1  0
 16 34  1  0
 17 35  1  0
 18 36  1  0
 20 37  1  0
 21 38  1  0
M  END
>  <Energy>  (24) 
238.72574404759433

>  <compound_id>  (24) 
35496

>  <target_id>  (24) 
1

>  <reference_id>  (24) 
76

>  <inspiration_ids>  (24) 
[107, 76]

>  <energy_score>  (24) 
213.9380443493029

>  <distance_score>  (24) 
17.044954940453124

>  <path>  (24) 
/opt/xchem-fragalysis-2/maxwin/BulkDock/SCRATCH/511013/C35496-P76/C35496-P76.minimised.mol

>  <scratch_subdir>  (24) 
/opt/xchem-fragalysis-2/maxwin/BulkDock/SCRATCH/511013/C35496-P76

>  <fragmenstein_runtime>  (24) 
8.723990440368652

>  <fragmenstein_outcome>  (24) 
too moved

>  <fragmenstein_mode>  (24) 
expansion

>  <fragmenstein_error>  (24) 


$$$$
C35501-P107
     RDKit          3D

 41 43  0  0  0  0  0  0  0  0999 V2000
    5.3296   -6.6906   17.9106 C   0  0  0  0  0  0  0  0  0  0  0  0
    4.1890   -6.4924   17.0505 N   0  0  0  0  0  0  0  0  0  0  0  0
    5.4243   -5.7092   16.0151 C   0  0  0  0  0  0  0  0  0  0  0  0
    7.3492   -5.2938   16.0186 C   0  0  0  0  0  0  0  0  0  0  0  0
    8.6204   -4.0117   15.0522 N   0  0  0  0  0  0  0  0  0  0  0  0
    7.5710   -2.9812   15.4422 C   0  0  0  0  0  0  0  0  0  0  0  0
   10.1357   -3.4699   15.4860 C   0  0  0  0  0  0  0  0  0  0  0  0
   10.7687   -3.6449   16.5131 O   0  0  0  0  0  0  0  0  0  0  0  0
   10.8424   -2.5455   14.6209 C   0  0  0  0  0  0  0  0  0  0  0  0
   10.7408   -1.1681   14.8710 C   0  0  0  0  0  0  0  0  0  0  0  0
   11.8001   -0.3974   14.3175 C   0  0  0  0  0  0  0  0  0  0  0  0
   12.7112   -1.2075   13.6916 C   0  0  0  0  0  0  0  0  0  0  0  0
   12.2312   -2.8339   13.7538 S   0  0  0  0  0  0  0  0  0  0  0  0
    3.0629   -5.9085   17.8262 C   0  0  0  0  0  0  0  0  0  0  0  0
    2.7624   -4.7523   18.0197 O   0  0  0  0  0  0  0  0  0  0  0  0
    1.9419   -6.9643   18.4567 C   0  0  0  0  0  0  0  0  0  0  0  0
    0.6763   -7.3408   17.6787 C   0  0  0  0  0  0  0  0  0  0  0  0
   -0.4769   -7.7986   18.0971 N   0  0  0  0  0  0  0  0  0  0  0  0
   -0.6114   -8.0130   19.4421 C   0  0  0  0  0  0  0  0  0  0  0  0
   -1.6679   -8.4089   20.1436 N   0  0  0  0  0  0  0  0  0  0  0  0
   -1.2474   -8.4848   21.4433 C   0  0  0  0  0  0  0  0  0  0  0  0
    0.0633   -8.0793   21.5516 C   0  0  0  0  0  0  0  0  0  0  0  0
    0.4925   -7.7960   20.2666 N   0  0  0  0  0  0  0  0  0  0  0  0
    1.7247   -7.2490   19.7789 C   0  0  0  0  0  0  0  0  0  0  0  0
    4.9545   -7.2550   18.7782 H   0  0  0  0  0  0  0  0  0  0  0  0
    5.7324   -5.7956   18.3777 H   0  0  0  0  0  0  0  0  0  0  0  0
    6.0182   -7.3788   17.4663 H   0  0  0  0  0  0  0  0  0  0  0  0
    5.3801   -6.5084   15.2619 H   0  0  0  0  0  0  0  0  0  0  0  0
    4.8855   -4.8126   15.6809 H   0  0  0  0  0  0  0  0  0  0  0  0
    7.2652   -5.6474   17.0340 H   0  0  0  0  0  0  0  0  0  0  0  0
    7.6673   -6.1441   15.4636 H   0  0  0  0  0  0  0  0  0  0  0  0
    7.8718   -2.0801   15.9851 H   0  0  0  0  0  0  0  0  0  0  0  0
    7.6966   -2.4021   14.4995 H   0  0  0  0  0  0  0  0  0  0  0  0
    6.5145   -3.1402   15.1834 H   0  0  0  0  0  0  0  0  0  0  0  0
    9.9454   -0.7398   15.4646 H   0  0  0  0  0  0  0  0  0  0  0  0
   11.8989    0.6770   14.3997 H   0  0  0  0  0  0  0  0  0  0  0  0
   13.6270   -0.9220   13.1932 H   0  0  0  0  0  0  0  0  0  0  0  0
    0.7685   -7.1553   16.5945 H   0  0  0  0  0  0  0  0  0  0  0  0
   -1.9258   -8.7829   22.2268 H   0  0  0  0  0  0  0  0  0  0  0  0
    0.7226   -7.9607   22.3942 H   0  0  0  0  0  0  0  0  0  0  0  0
    2.4358   -6.9733   20.5459 H   0  0  0  0  0  0  0  0  0  0  0  0
  1  2  1  0
  2  3  1  0
  3  4  1  0
  4  5  1  0
  5  6  1  0
  5  7  1  0
  7  8  2  0
  7  9  1  0
  9 10  2  0
 10 11  1  0
 11 12  2  0
 12 13  1  0
  2 14  1  0
 14 15  2  0
 14 16  1  0
 16 17  1  0
 17 18  2  0
 18 19  1  0
 19 20  2  0
 20 21  1  0
 21 22  2  0
 22 23  1  0
 23 24  1  0
 13  9  1  0
 24 16  2  0
 23 19  1  0
  1 25  1  0
  1 26  1  0
  1 27  1  0
  3 28  1  0
  3 29  1  0
  4 30  1  0
  4 31  1  0
  6 32  1  0
  6 33  1  0
  6 34  1  0
 10 35  1  0
 11 36  1  0
 12 37  1  0
 17 38  1  0
 21 39  1  0
 22 40  1  0
 24 41  1  0
M  END
>  <Energy>  (25) 
444.71447674434813

>  <compound_id>  (25) 
35501

>  <target_id>  (25) 
1

>  <reference_id>  (25) 
107

>  <inspiration_ids>  (25) 
[107, 76]

>  <energy_score>  (25) 
359.0081471618588

>  <distance_score>  (25) 
16.63380761542935

>  <path>  (25) 
/opt/xchem-fragalysis-2/maxwin/BulkDock/SCRATCH/511013/C35501-P107/C35501-P107.minimised.mol

>  <scratch_subdir>  (25) 
/opt/xchem-fragalysis-2/maxwin/BulkDock/SCRATCH/511013/C35501-P107

>  <fragmenstein_runtime>  (25) 
16.97298002243042

>  <fragmenstein_outcome>  (25) 
too moved

>  <fragmenstein_mode>  (25) 
expansion

>  <fragmenstein_error>  (25) 


$$$$
C35501-P76
     RDKit          3D

 41 43  0  0  0  0  0  0  0  0999 V2000
    1.8790  -16.2195   31.9515 C   0  0  0  0  0  0  0  0  0  0  0  0
    1.7076  -16.7128   30.5442 N   0  0  0  0  0  0  0  0  0  0  0  0
    3.2346  -16.2780   30.4478 C   0  0  0  0  0  0  0  0  0  0  0  0
    3.5923  -14.7348   30.2136 C   0  0  0  0  0  0  0  0  0  0  0  0
    4.7207  -14.1625   29.2933 N   0  0  0  0  0  0  0  0  0  0  0  0
    3.7657  -14.5532   28.2408 C   0  0  0  0  0  0  0  0  0  0  0  0
    5.1679  -12.7922   29.0823 C   0  0  0  0  0  0  0  0  0  0  0  0
    4.7198  -11.7549   29.4973 O   0  0  0  0  0  0  0  0  0  0  0  0
    6.3202  -12.6391   28.1019 C   0  0  0  0  0  0  0  0  0  0  0  0
    6.9784  -13.5226   27.2562 C   0  0  0  0  0  0  0  0  0  0  0  0
    7.9017  -12.8929   26.3473 C   0  0  0  0  0  0  0  0  0  0  0  0
    7.9635  -11.5329   26.5230 C   0  0  0  0  0  0  0  0  0  0  0  0
    6.9433  -11.0232   27.7932 S   0  0  0  0  0  0  0  0  0  0  0  0
    1.1009  -18.0223   30.5488 C   0  0  0  0  0  0  0  0  0  0  0  0
    1.6041  -19.1168   30.5712 O   0  0  0  0  0  0  0  0  0  0  0  0
   -0.4285  -18.0012   30.5893 C   0  0  0  0  0  0  0  0  0  0  0  0
   -1.3262  -16.9727   29.9773 C   0  0  0  0  0  0  0  0  0  0  0  0
   -2.6295  -16.9457   29.9798 N   0  0  0  0  0  0  0  0  0  0  0  0
   -3.2568  -17.9529   30.6570 C   0  0  0  0  0  0  0  0  0  0  0  0
   -4.5351  -18.1038   30.9299 N   0  0  0  0  0  0  0  0  0  0  0  0
   -4.6232  -19.2440   31.6865 C   0  0  0  0  0  0  0  0  0  0  0  0
   -3.3907  -19.8319   31.8446 C   0  0  0  0  0  0  0  0  0  0  0  0
   -2.5128  -18.9833   31.2230 N   0  0  0  0  0  0  0  0  0  0  0  0
   -1.1203  -19.0128   31.1664 C   0  0  0  0  0  0  0  0  0  0  0  0
    0.8850  -16.3191   32.4137 H   0  0  0  0  0  0  0  0  0  0  0  0
    2.0844  -15.1497   32.0598 H   0  0  0  0  0  0  0  0  0  0  0  0
    2.5041  -16.8705   32.5807 H   0  0  0  0  0  0  0  0  0  0  0  0
    3.5438  -16.8501   29.5648 H   0  0  0  0  0  0  0  0  0  0  0  0
    3.8923  -16.7468   31.2003 H   0  0  0  0  0  0  0  0  0  0  0  0
    2.6854  -14.1049   30.1723 H   0  0  0  0  0  0  0  0  0  0  0  0
    4.0008  -14.4271   31.1905 H   0  0  0  0  0  0  0  0  0  0  0  0
    2.8242  -13.9855   28.2263 H   0  0  0  0  0  0  0  0  0  0  0  0
    3.6505  -15.6318   28.1202 H   0  0  0  0  0  0  0  0  0  0  0  0
    4.2514  -14.2946   27.2919 H   0  0  0  0  0  0  0  0  0  0  0  0
    6.7789  -14.5871   27.2591 H   0  0  0  0  0  0  0  0  0  0  0  0
    8.4885  -13.4266   25.6099 H   0  0  0  0  0  0  0  0  0  0  0  0
    8.5719  -10.8177   25.9872 H   0  0  0  0  0  0  0  0  0  0  0  0
   -0.8022  -16.1539   29.4586 H   0  0  0  0  0  0  0  0  0  0  0  0
   -5.5676  -19.5882   32.0791 H   0  0  0  0  0  0  0  0  0  0  0  0
   -3.0746  -20.7229   32.3656 H   0  0  0  0  0  0  0  0  0  0  0  0
   -0.6336  -19.8582   31.6386 H   0  0  0  0  0  0  0  0  0  0  0  0
  1  2  1  0
  2  3  1  0
  3  4  1  0
  4  5  1  0
  5  6  1  0
  5  7  1  0
  7  8  2  0
  7  9  1  0
  9 10  2  0
 10 11  1  0
 11 12  2  0
 12 13  1  0
  2 14  1  0
 14 15  2  0
 14 16  1  0
 16 17  1  0
 17 18  2  0
 18 19  1  0
 19 20  2  0
 20 21  1  0
 21 22  2  0
 22 23  1  0
 23 24  1  0
 13  9  1  0
 24 16  2  0
 23 19  1  0
  1 25  1  0
  1 26  1  0
  1 27  1  0
  3 28  1  0
  3 29  1  0
  4 30  1  0
  4 31  1  0
  6 32  1  0
  6 33  1  0
  6 34  1  0
 10 35  1  0
 11 36  1  0
 12 37  1  0
 17 38  1  0
 21 39  1  0
 22 40  1  0
 24 41  1  0
M  END
>  <Energy>  (26) 
182.85212204225741

>  <compound_id>  (26) 
35501

>  <target_id>  (26) 
1

>  <reference_id>  (26) 
76

>  <inspiration_ids>  (26) 
[107, 76]

>  <energy_score>  (26) 
97.14579245977518

>  <distance_score>  (26) 
17.577509613997208

>  <path>  (26) 
/opt/xchem-fragalysis-2/maxwin/BulkDock/SCRATCH/511013/C35501-P76/C35501-P76.minimised.mol

>  <scratch_subdir>  (26) 
/opt/xchem-fragalysis-2/maxwin/BulkDock/SCRATCH/511013/C35501-P76

>  <fragmenstein_runtime>  (26) 
17.40369176864624

>  <fragmenstein_outcome>  (26) 
too moved

>  <fragmenstein_mode>  (26) 
expansion

>  <fragmenstein_error>  (26) 


$$$$
C15778-P107
     RDKit          3D

 34 36  0  0  0  0  0  0  0  0999 V2000
   -0.2839  -14.3785   22.5951 O   0  0  0  0  0  0  0  0  0  0  0  0
    0.0671  -14.0161   23.6878 C   0  0  0  0  0  0  0  0  0  0  0  0
    1.7286  -13.2198   23.9934 N   0  0  0  0  0  0  0  0  0  0  0  0
    3.1078  -12.6831   22.7998 C   0  0  0  0  0  0  0  0  0  0  0  0
    4.1641  -12.5595   21.0978 C   0  0  0  0  0  0  0  0  0  0  0  0
    5.9551  -11.5441   20.7789 S   0  0  0  0  0  0  0  0  0  0  0  0
    6.7976  -12.6826   20.5865 O   0  0  0  0  0  0  0  0  0  0  0  0
    6.1738  -11.0183   22.1364 O   0  0  0  0  0  0  0  0  0  0  0  0
    7.2538  -10.1449   19.5049 C   0  0  0  0  0  0  0  0  0  0  0  0
    8.4069   -9.0524   18.9833 C   0  0  0  0  0  0  0  0  0  0  0  0
    7.3115   -7.3392   19.2527 C   0  0  0  0  0  0  0  0  0  0  0  0
    8.1023   -6.7780   20.3264 C   0  0  0  0  0  0  0  0  0  0  0  0
    6.6741   -7.8463   19.8960 S   0  0  0  0  0  0  0  0  0  0  0  0
   -1.3733  -14.1958   25.0790 C   0  0  0  0  0  0  0  0  0  0  0  0
   -2.6631  -15.2759   24.8470 C   0  0  0  0  0  0  0  0  0  0  0  0
   -3.5475  -15.5466   25.8107 C   0  0  0  0  0  0  0  0  0  0  0  0
   -3.4223  -14.8675   26.9890 N   0  0  0  0  0  0  0  0  0  0  0  0
   -4.1678  -15.0129   28.1310 C   0  0  0  0  0  0  0  0  0  0  0  0
   -3.7015  -14.0409   28.9741 C   0  0  0  0  0  0  0  0  0  0  0  0
   -2.7056  -13.3068   28.3662 N   0  0  0  0  0  0  0  0  0  0  0  0
   -2.5110  -13.8147   27.1565 C   0  0  0  0  0  0  0  0  0  0  0  0
   -1.5568  -13.4337   26.1963 N   0  0  0  0  0  0  0  0  0  0  0  0
    1.7797  -12.9168   24.9676 H   0  0  0  0  0  0  0  0  0  0  0  0
    3.6970  -12.9094   23.6319 H   0  0  0  0  0  0  0  0  0  0  0  0
    2.8773  -11.6584   22.9220 H   0  0  0  0  0  0  0  0  0  0  0  0
    4.7594  -13.4294   20.9724 H   0  0  0  0  0  0  0  0  0  0  0  0
    3.7927  -12.8288   20.1409 H   0  0  0  0  0  0  0  0  0  0  0  0
    9.3523   -8.8307   19.5340 H   0  0  0  0  0  0  0  0  0  0  0  0
    6.9712   -6.6707   18.2801 H   0  0  0  0  0  0  0  0  0  0  0  0
    8.0916   -5.7866   20.7555 H   0  0  0  0  0  0  0  0  0  0  0  0
   -2.9214  -15.5215   23.8417 H   0  0  0  0  0  0  0  0  0  0  0  0
   -4.4052  -16.1919   25.6787 H   0  0  0  0  0  0  0  0  0  0  0  0
   -4.9332  -15.7672   28.2391 H   0  0  0  0  0  0  0  0  0  0  0  0
   -4.0232  -13.8171   29.9832 H   0  0  0  0  0  0  0  0  0  0  0  0
  1  2  2  0
  2  3  1  0
  3  4  1  0
  4  5  1  0
  5  6  1  0
  6  7  2  0
  6  8  2  0
  6  9  1  0
  9 10  2  0
 10 11  1  0
 11 12  2  0
 12 13  1  0
  2 14  1  0
 14 15  1  0
 15 16  2  0
 16 17  1  0
 17 18  1  0
 18 19  2  0
 19 20  1  0
 20 21  2  0
 21 22  1  0
 13  9  1  0
 22 14  2  0
 21 17  1  0
  3 23  1  0
  4 24  1  0
  4 25  1  0
  5 26  1  0
  5 27  1  0
 10 28  1  0
 11 29  1  0
 12 30  1  0
 15 31  1  0
 16 32  1  0
 18 33  1  0
 19 34  1  0
M  END
>  <Energy>  (27) 
1063.7509707185668

>  <compound_id>  (27) 
15778

>  <target_id>  (27) 
1

>  <reference_id>  (27) 
107

>  <inspiration_ids>  (27) 
[107, 76]

>  <energy_score>  (27) 
936.6081004134984

>  <distance_score>  (27) 
11.879845000083295

>  <path>  (27) 
/opt/xchem-fragalysis-2/maxwin/BulkDock/SCRATCH/511013/C15778-P107/C15778-P107.minimised.mol

>  <scratch_subdir>  (27) 
/opt/xchem-fragalysis-2/maxwin/BulkDock/SCRATCH/511013/C15778-P107

>  <fragmenstein_runtime>  (27) 
14.309650421142578

>  <fragmenstein_outcome>  (27) 
too moved

>  <fragmenstein_mode>  (27) 
expansion

>  <fragmenstein_error>  (27) 


$$$$
C15778-P76
     RDKit          3D

 34 36  0  0  0  0  0  0  0  0999 V2000
   -3.1586  -12.7172   19.6660 O   0  0  0  0  0  0  0  0  0  0  0  0
   -3.0098  -13.7739   19.1097 C   0  0  0  0  0  0  0  0  0  0  0  0
   -1.9662  -14.2256   18.1824 N   0  0  0  0  0  0  0  0  0  0  0  0
   -0.4794  -13.4354   17.6359 C   0  0  0  0  0  0  0  0  0  0  0  0
    1.4357  -14.0720   17.5869 C   0  0  0  0  0  0  0  0  0  0  0  0
    3.4912  -13.8851   18.5871 S   0  0  0  0  0  0  0  0  0  0  0  0
    4.4163  -14.8649   18.0603 O   0  0  0  0  0  0  0  0  0  0  0  0
    2.6392  -14.4620   19.6600 O   0  0  0  0  0  0  0  0  0  0  0  0
    4.8783  -12.2504   19.6273 C   0  0  0  0  0  0  0  0  0  0  0  0
    6.2770  -11.6862   20.1322 C   0  0  0  0  0  0  0  0  0  0  0  0
    7.1805  -10.1019   19.4656 C   0  0  0  0  0  0  0  0  0  0  0  0
    6.7416   -8.2362   19.8523 C   0  0  0  0  0  0  0  0  0  0  0  0
    6.0784  -10.4334   19.0293 S   0  0  0  0  0  0  0  0  0  0  0  0
   -4.1161  -14.8594   19.6036 C   0  0  0  0  0  0  0  0  0  0  0  0
   -5.3933  -14.2443   20.1646 C   0  0  0  0  0  0  0  0  0  0  0  0
   -6.1708  -15.0110   20.9476 C   0  0  0  0  0  0  0  0  0  0  0  0
   -5.8196  -16.3286   21.1632 N   0  0  0  0  0  0  0  0  0  0  0  0
   -6.4308  -17.2787   21.9470 C   0  0  0  0  0  0  0  0  0  0  0  0
   -5.6746  -18.4100   21.7841 C   0  0  0  0  0  0  0  0  0  0  0  0
   -4.6243  -18.1678   20.9266 N   0  0  0  0  0  0  0  0  0  0  0  0
   -4.7049  -16.8993   20.5448 C   0  0  0  0  0  0  0  0  0  0  0  0
   -3.8492  -16.1424   19.7376 N   0  0  0  0  0  0  0  0  0  0  0  0
   -2.2032  -15.1557   17.8428 H   0  0  0  0  0  0  0  0  0  0  0  0
   -0.7247  -12.4550   18.0371 H   0  0  0  0  0  0  0  0  0  0  0  0
   -0.1897  -14.0025   18.3947 H   0  0  0  0  0  0  0  0  0  0  0  0
    1.4764  -13.9346   16.5420 H   0  0  0  0  0  0  0  0  0  0  0  0
    1.3607  -13.4691   18.4232 H   0  0  0  0  0  0  0  0  0  0  0  0
    6.8438  -12.4614   20.6316 H   0  0  0  0  0  0  0  0  0  0  0  0
    8.1752  -10.1683   18.9200 H   0  0  0  0  0  0  0  0  0  0  0  0
    7.2769   -7.3897   19.4342 H   0  0  0  0  0  0  0  0  0  0  0  0
   -5.5880  -13.1976   19.9699 H   0  0  0  0  0  0  0  0  0  0  0  0
   -7.0665  -14.6429   21.4295 H   0  0  0  0  0  0  0  0  0  0  0  0
   -7.3221  -17.0688   22.5165 H   0  0  0  0  0  0  0  0  0  0  0  0
   -5.8221  -19.3893   22.2203 H   0  0  0  0  0  0  0  0  0  0  0  0
  1  2  2  0
  2  3  1  0
  3  4  1  0
  4  5  1  0
  5  6  1  0
  6  7  2  0
  6  8  2  0
  6  9  1  0
  9 10  2  0
 10 11  1  0
 11 12  2  0
 12 13  1  0
  2 14  1  0
 14 15  1  0
 15 16  2  0
 16 17  1  0
 17 18  1  0
 18 19  2  0
 19 20  1  0
 20 21  2  0
 21 22  1  0
 13  9  1  0
 22 14  2  0
 21 17  1  0
  3 23  1  0
  4 24  1  0
  4 25  1  0
  5 26  1  0
  5 27  1  0
 10 28  1  0
 11 29  1  0
 12 30  1  0
 15 31  1  0
 16 32  1  0
 18 33  1  0
 19 34  1  0
M  END
>  <Energy>  (28) 
1273.583555305172

>  <compound_id>  (28) 
15778

>  <target_id>  (28) 
1

>  <reference_id>  (28) 
76

>  <inspiration_ids>  (28) 
[107, 76]

>  <energy_score>  (28) 
1146.440685000096

>  <distance_score>  (28) 
13.119765651769965

>  <path>  (28) 
/opt/xchem-fragalysis-2/maxwin/BulkDock/SCRATCH/511013/C15778-P76/C15778-P76.minimised.mol

>  <scratch_subdir>  (28) 
/opt/xchem-fragalysis-2/maxwin/BulkDock/SCRATCH/511013/C15778-P76

>  <fragmenstein_runtime>  (28) 
12.690107345581055

>  <fragmenstein_outcome>  (28) 
too moved

>  <fragmenstein_mode>  (28) 
expansion

>  <fragmenstein_error>  (28) 


$$$$
C35504-P107
     RDKit          3D

 39 41  0  0  0  0  0  0  0  0999 V2000
   -5.6308   -9.7082   22.4390 O   0  0  0  0  0  0  0  0  0  0  0  0
   -4.8214   -9.9027   23.3034 C   0  0  0  0  0  0  0  0  0  0  0  0
   -3.5204   -9.2844   23.5419 N   0  0  0  0  0  0  0  0  0  0  0  0
   -2.8130   -8.1178   22.8285 C   0  0  0  0  0  0  0  0  0  0  0  0
   -1.4834   -8.2295   21.8763 C   0  0  0  0  0  0  0  0  0  0  0  0
   -0.3419   -7.5718   22.4804 O   0  0  0  0  0  0  0  0  0  0  0  0
   -1.7085   -7.5481   20.4988 C   0  0  0  0  0  0  0  0  0  0  0  0
   -0.4928   -7.0401   19.8739 N   0  0  0  0  0  0  0  0  0  0  0  0
   -0.0541   -7.0666   18.5066 C   0  0  0  0  0  0  0  0  0  0  0  0
   -0.5380   -7.5827   17.5423 O   0  0  0  0  0  0  0  0  0  0  0  0
    1.1820   -6.2663   18.3024 C   0  0  0  0  0  0  0  0  0  0  0  0
    2.1364   -6.4151   17.3010 C   0  0  0  0  0  0  0  0  0  0  0  0
    3.1628   -5.4234   17.3435 C   0  0  0  0  0  0  0  0  0  0  0  0
    2.9441   -4.5263   18.3615 C   0  0  0  0  0  0  0  0  0  0  0  0
    1.5549   -4.9024   19.2768 S   0  0  0  0  0  0  0  0  0  0  0  0
   -5.3330  -11.0149   24.3449 C   0  0  0  0  0  0  0  0  0  0  0  0
   -6.6313  -11.7691   23.9487 C   0  0  0  0  0  0  0  0  0  0  0  0
   -7.2410  -12.7535   24.5465 N   0  0  0  0  0  0  0  0  0  0  0  0
   -6.6939  -13.1879   25.7092 C   0  0  0  0  0  0  0  0  0  0  0  0
   -7.0975  -14.1573   26.5101 N   0  0  0  0  0  0  0  0  0  0  0  0
   -6.2137  -14.1768   27.5532 C   0  0  0  0  0  0  0  0  0  0  0  0
   -5.2471  -13.2101   27.3848 C   0  0  0  0  0  0  0  0  0  0  0  0
   -5.5428  -12.5736   26.1975 N   0  0  0  0  0  0  0  0  0  0  0  0
   -4.8767  -11.5129   25.5232 C   0  0  0  0  0  0  0  0  0  0  0  0
   -3.1444   -9.6326   24.4126 H   0  0  0  0  0  0  0  0  0  0  0  0
   -3.6121   -7.6773   22.2217 H   0  0  0  0  0  0  0  0  0  0  0  0
   -2.5835   -7.4131   23.6358 H   0  0  0  0  0  0  0  0  0  0  0  0
   -1.2300   -9.2862   21.7402 H   0  0  0  0  0  0  0  0  0  0  0  0
    0.4414   -8.0675   22.1688 H   0  0  0  0  0  0  0  0  0  0  0  0
   -2.2219   -8.2240   19.8076 H   0  0  0  0  0  0  0  0  0  0  0  0
   -2.3423   -6.6632   20.6249 H   0  0  0  0  0  0  0  0  0  0  0  0
    0.1240   -6.4341   20.4076 H   0  0  0  0  0  0  0  0  0  0  0  0
    2.0788   -7.2095   16.5654 H   0  0  0  0  0  0  0  0  0  0  0  0
    3.9903   -5.3642   16.6493 H   0  0  0  0  0  0  0  0  0  0  0  0
    3.5125   -3.6525   18.6374 H   0  0  0  0  0  0  0  0  0  0  0  0
   -7.0886  -11.4186   23.0076 H   0  0  0  0  0  0  0  0  0  0  0  0
   -6.3180  -14.8815   28.3689 H   0  0  0  0  0  0  0  0  0  0  0  0
   -4.4022  -12.9262   27.9937 H   0  0  0  0  0  0  0  0  0  0  0  0
   -3.9820  -11.1469   26.0071 H   0  0  0  0  0  0  0  0  0  0  0  0
  1  2  2  0
  2  3  1  0
  3  4  1  0
  4  5  1  0
  5  6  1  0
  5  7  1  0
  7  8  1  0
  8  9  1  0
  9 10  2  0
  9 11  1  0
 11 12  2  0
 12 13  1  0
 13 14  2  0
 14 15  1  0
  2 16  1  0
 16 17  1  0
 17 18  2  0
 18 19  1  0
 19 20  2  0
 20 21  1  0
 21 22  2  0
 22 23  1  0
 23 24  1  0
 15 11  1  0
 24 16  2  0
 23 19  1  0
  3 25  1  0
  4 26  1  0
  4 27  1  0
  5 28  1  0
  6 29  1  0
  7 30  1  0
  7 31  1  0
  8 32  1  0
 12 33  1  0
 13 34  1  0
 14 35  1  0
 17 36  1  0
 21 37  1  0
 22 38  1  0
 24 39  1  0
M  END
>  <Energy>  (29) 
62.266074450226895

>  <compound_id>  (29) 
35504

>  <target_id>  (29) 
1

>  <reference_id>  (29) 
107

>  <inspiration_ids>  (29) 
[107, 76]

>  <energy_score>  (29) 
-1.903577886242033

>  <distance_score>  (29) 
15.196861245993778

>  <path>  (29) 
/opt/xchem-fragalysis-2/maxwin/BulkDock/SCRATCH/511013/C35504-P107/C35504-P107.minimised.mol

>  <scratch_subdir>  (29) 
/opt/xchem-fragalysis-2/maxwin/BulkDock/SCRATCH/511013/C35504-P107

>  <fragmenstein_runtime>  (29) 
19.135103940963745

>  <fragmenstein_outcome>  (29) 
too moved

>  <fragmenstein_mode>  (29) 
expansion

>  <fragmenstein_error>  (29) 


$$$$
C35504-P76
     RDKit          3D

 39 41  0  0  0  0  0  0  0  0999 V2000
   -0.0674  -19.7960   19.1898 O   0  0  0  0  0  0  0  0  0  0  0  0
   -0.5619  -18.7127   19.3560 C   0  0  0  0  0  0  0  0  0  0  0  0
   -0.3768  -17.4600   18.6246 N   0  0  0  0  0  0  0  0  0  0  0  0
    0.4077  -17.1547   17.3777 C   0  0  0  0  0  0  0  0  0  0  0  0
    1.6311  -16.1085   17.1553 C   0  0  0  0  0  0  0  0  0  0  0  0
    1.1313  -14.7639   17.0365 O   0  0  0  0  0  0  0  0  0  0  0  0
    2.3407  -16.5497   15.7998 C   0  0  0  0  0  0  0  0  0  0  0  0
    3.2983  -15.6450   15.1594 N   0  0  0  0  0  0  0  0  0  0  0  0
    4.2374  -15.8663   14.0896 C   0  0  0  0  0  0  0  0  0  0  0  0
    4.5298  -16.8678   13.5044 O   0  0  0  0  0  0  0  0  0  0  0  0
    4.9317  -14.6139   13.6538 C   0  0  0  0  0  0  0  0  0  0  0  0
    6.2797  -14.4531   13.3433 C   0  0  0  0  0  0  0  0  0  0  0  0
    6.6100  -13.1495   12.8530 C   0  0  0  0  0  0  0  0  0  0  0  0
    5.4977  -12.3438   12.7750 C   0  0  0  0  0  0  0  0  0  0  0  0
    4.0844  -13.1517   13.3234 S   0  0  0  0  0  0  0  0  0  0  0  0
   -1.6459  -18.7292   20.4774 C   0  0  0  0  0  0  0  0  0  0  0  0
   -3.0602  -18.2024   20.3771 C   0  0  0  0  0  0  0  0  0  0  0  0
   -4.0527  -18.3488   21.2198 N   0  0  0  0  0  0  0  0  0  0  0  0
   -3.7818  -19.0569   22.3591 C   0  0  0  0  0  0  0  0  0  0  0  0
   -4.5223  -19.2489   23.4385 N   0  0  0  0  0  0  0  0  0  0  0  0
   -3.7817  -20.0573   24.2668 C   0  0  0  0  0  0  0  0  0  0  0  0
   -2.5780  -20.3752   23.6892 C   0  0  0  0  0  0  0  0  0  0  0  0
   -2.5475  -19.6834   22.4996 N   0  0  0  0  0  0  0  0  0  0  0  0
   -1.5203  -19.5427   21.5580 C   0  0  0  0  0  0  0  0  0  0  0  0
   -0.8924  -16.7235   19.0933 H   0  0  0  0  0  0  0  0  0  0  0  0
    0.7858  -18.1390   17.0747 H   0  0  0  0  0  0  0  0  0  0  0  0
   -0.3708  -16.8728   16.6577 H   0  0  0  0  0  0  0  0  0  0  0  0
    2.3345  -16.1502   17.9921 H   0  0  0  0  0  0  0  0  0  0  0  0
    1.7224  -14.3238   16.3928 H   0  0  0  0  0  0  0  0  0  0  0  0
    1.5659  -16.7019   15.0383 H   0  0  0  0  0  0  0  0  0  0  0  0
    2.8422  -17.5137   15.9398 H   0  0  0  0  0  0  0  0  0  0  0  0
    3.3713  -14.6746   15.4704 H   0  0  0  0  0  0  0  0  0  0  0  0
    6.9935  -15.2622   13.4513 H   0  0  0  0  0  0  0  0  0  0  0  0
    7.6035  -12.8374   12.5577 H   0  0  0  0  0  0  0  0  0  0  0  0
    5.4378  -11.3185   12.4367 H   0  0  0  0  0  0  0  0  0  0  0  0
   -3.2655  -17.6386   19.4516 H   0  0  0  0  0  0  0  0  0  0  0  0
   -4.1481  -20.3714   25.2345 H   0  0  0  0  0  0  0  0  0  0  0  0
   -1.7404  -20.9682   24.0248 H   0  0  0  0  0  0  0  0  0  0  0  0
   -0.6112  -20.0980   21.7548 H   0  0  0  0  0  0  0  0  0  0  0  0
  1  2  2  0
  2  3  1  0
  3  4  1  0
  4  5  1  0
  5  6  1  0
  5  7  1  0
  7  8  1  0
  8  9  1  0
  9 10  2  0
  9 11  1  0
 11 12  2  0
 12 13  1  0
 13 14  2  0
 14 15  1  0
  2 16  1  0
 16 17  1  0
 17 18  2  0
 18 19  1  0
 19 20  2  0
 20 21  1  0
 21 22  2  0
 22 23  1  0
 23 24  1  0
 15 11  1  0
 24 16  2  0
 23 19  1  0
  3 25  1  0
  4 26  1  0
  4 27  1  0
  5 28  1  0
  6 29  1  0
  7 30  1  0
  7 31  1  0
  8 32  1  0
 12 33  1  0
 13 34  1  0
 14 35  1  0
 17 36  1  0
 21 37  1  0
 22 38  1  0
 24 39  1  0
M  END
>  <Energy>  (30) 
64.513452136994928

>  <compound_id>  (30) 
35504

>  <target_id>  (30) 
1

>  <reference_id>  (30) 
76

>  <inspiration_ids>  (30) 
[107, 76]

>  <energy_score>  (30) 
0.3437998005253462

>  <distance_score>  (30) 
16.280965096791256

>  <path>  (30) 
/opt/xchem-fragalysis-2/maxwin/BulkDock/SCRATCH/511013/C35504-P76/C35504-P76.minimised.mol

>  <scratch_subdir>  (30) 
/opt/xchem-fragalysis-2/maxwin/BulkDock/SCRATCH/511013/C35504-P76

>  <fragmenstein_runtime>  (30) 
14.339974403381348

>  <fragmenstein_outcome>  (30) 
too moved

>  <fragmenstein_mode>  (30) 
expansion

>  <fragmenstein_error>  (30) 


$$$$
C35505-P107
     RDKit          3D

 41 43  0  0  0  0  0  0  0  0999 V2000
    6.9231  -11.0857   21.6015 C   0  0  0  0  0  0  0  0  0  0  0  0
    6.2778  -10.4462   22.8482 C   0  0  0  0  0  0  0  0  0  0  0  0
    6.4817   -8.3339   22.5352 C   0  0  0  0  0  0  0  0  0  0  0  0
    6.4823   -6.4145   21.5969 C   0  0  0  0  0  0  0  0  0  0  0  0
    8.0902   -5.2051   21.6641 N   0  0  0  0  0  0  0  0  0  0  0  0
    9.8288   -5.1966   20.5276 C   0  0  0  0  0  0  0  0  0  0  0  0
    9.8510   -5.9305   19.6031 O   0  0  0  0  0  0  0  0  0  0  0  0
   11.6106   -4.4206   20.7556 C   0  0  0  0  0  0  0  0  0  0  0  0
   12.7037   -4.5551   19.8348 C   0  0  0  0  0  0  0  0  0  0  0  0
   13.9555   -4.0616   20.2809 C   0  0  0  0  0  0  0  0  0  0  0  0
   13.9252   -3.7794   21.6179 C   0  0  0  0  0  0  0  0  0  0  0  0
   12.4363   -4.1960   22.3328 S   0  0  0  0  0  0  0  0  0  0  0  0
    5.2027  -11.7626   23.9823 N   0  0  0  0  0  0  0  0  0  0  0  0
    3.2182  -12.4108   23.8421 C   0  0  0  0  0  0  0  0  0  0  0  0
    2.7426  -11.9936   22.8560 O   0  0  0  0  0  0  0  0  0  0  0  0
    1.6750  -13.3225   24.9827 C   0  0  0  0  0  0  0  0  0  0  0  0
   -0.1389  -14.2091   24.4485 C   0  0  0  0  0  0  0  0  0  0  0  0
   -1.5948  -14.7631   25.0468 N   0  0  0  0  0  0  0  0  0  0  0  0
   -1.8131  -14.9005   26.7389 C   0  0  0  0  0  0  0  0  0  0  0  0
   -2.2604  -15.9315   27.5614 N   0  0  0  0  0  0  0  0  0  0  0  0
   -1.8035  -15.9992   28.8159 C   0  0  0  0  0  0  0  0  0  0  0  0
   -0.5622  -15.4787   28.7892 C   0  0  0  0  0  0  0  0  0  0  0  0
   -0.4075  -14.4465   27.4186 N   0  0  0  0  0  0  0  0  0  0  0  0
    1.0829  -13.7199   26.4389 C   0  0  0  0  0  0  0  0  0  0  0  0
    7.5171  -11.9643   21.8706 H   0  0  0  0  0  0  0  0  0  0  0  0
    6.1786  -11.3766   20.8572 H   0  0  0  0  0  0  0  0  0  0  0  0
    7.6033  -10.3737   21.1234 H   0  0  0  0  0  0  0  0  0  0  0  0
    7.0779  -10.4461   23.6080 H   0  0  0  0  0  0  0  0  0  0  0  0
    7.5740   -8.3418   22.6822 H   0  0  0  0  0  0  0  0  0  0  0  0
    6.0292   -8.0165   23.4871 H   0  0  0  0  0  0  0  0  0  0  0  0
    5.7668   -5.8410   22.1930 H   0  0  0  0  0  0  0  0  0  0  0  0
    6.1898   -6.5581   20.5498 H   0  0  0  0  0  0  0  0  0  0  0  0
    8.1536   -4.4860   22.3677 H   0  0  0  0  0  0  0  0  0  0  0  0
   12.5520   -4.8782   18.8157 H   0  0  0  0  0  0  0  0  0  0  0  0
   14.8397   -3.9623   19.6645 H   0  0  0  0  0  0  0  0  0  0  0  0
   14.7351   -3.4171   22.2354 H   0  0  0  0  0  0  0  0  0  0  0  0
    5.5786  -12.0684   24.8988 H   0  0  0  0  0  0  0  0  0  0  0  0
   -0.7873  -13.5969   25.2298 H   0  0  0  0  0  0  0  0  0  0  0  0
   -2.2541  -16.6374   29.5633 H   0  0  0  0  0  0  0  0  0  0  0  0
    0.3094  -15.5777   29.4234 H   0  0  0  0  0  0  0  0  0  0  0  0
    2.0366  -13.8561   26.9618 H   0  0  0  0  0  0  0  0  0  0  0  0
  1  2  1  0
  2  3  1  0
  3  4  1  0
  4  5  1  0
  5  6  1  0
  6  7  2  0
  6  8  1  0
  8  9  2  0
  9 10  1  0
 10 11  2  0
 11 12  1  0
  2 13  1  0
 13 14  1  0
 14 15  2  0
 14 16  1  0
 16 17  1  0
 17 18  2  0
 18 19  1  0
 19 20  2  0
 20 21  1  0
 21 22  2  0
 22 23  1  0
 23 24  1  0
 12  8  1  0
 24 16  2  0
 23 19  1  0
  1 25  1  0
  1 26  1  0
  1 27  1  0
  2 28  1  0
  3 29  1  0
  3 30  1  0
  4 31  1  0
  4 32  1  0
  5 33  1  0
  9 34  1  0
 10 35  1  0
 11 36  1  0
 13 37  1  0
 17 38  1  0
 21 39  1  0
 22 40  1  0
 24 41  1  0
M  END
>  <Energy>  (31) 
1553.6162292860008

>  <compound_id>  (31) 
35505

>  <target_id>  (31) 
1

>  <reference_id>  (31) 
107

>  <inspiration_ids>  (31) 
[107, 76]

>  <energy_score>  (31) 
1527.0677768101111

>  <distance_score>  (31) 
12.975598398887746

>  <path>  (31) 
/opt/xchem-fragalysis-2/maxwin/BulkDock/SCRATCH/511013/C35505-P107/C35505-P107.minimised.mol

>  <scratch_subdir>  (31) 
/opt/xchem-fragalysis-2/maxwin/BulkDock/SCRATCH/511013/C35505-P107

>  <fragmenstein_runtime>  (31) 
15.754595518112183

>  <fragmenstein_outcome>  (31) 
too moved

>  <fragmenstein_mode>  (31) 
expansion

>  <fragmenstein_error>  (31) 


$$$$
C35505-P76
     RDKit          3D

 41 43  0  0  0  0  0  0  0  0999 V2000
    4.8348   -5.9251   28.3656 C   0  0  0  0  0  0  0  0  0  0  0  0
    3.8817   -5.8479   27.1682 C   0  0  0  0  0  0  0  0  0  0  0  0
    4.7720   -5.6387   25.7485 C   0  0  0  0  0  0  0  0  0  0  0  0
    5.7773   -4.3829   25.7740 C   0  0  0  0  0  0  0  0  0  0  0  0
    6.6652   -3.9999   24.6182 N   0  0  0  0  0  0  0  0  0  0  0  0
    7.8274   -3.0714   24.5509 C   0  0  0  0  0  0  0  0  0  0  0  0
    8.3874   -2.4641   25.4171 O   0  0  0  0  0  0  0  0  0  0  0  0
    8.4434   -2.9132   23.1596 C   0  0  0  0  0  0  0  0  0  0  0  0
    7.9951   -3.2597   21.7858 C   0  0  0  0  0  0  0  0  0  0  0  0
    9.3502   -3.6483   20.4926 C   0  0  0  0  0  0  0  0  0  0  0  0
   11.2415   -3.4109   20.8625 C   0  0  0  0  0  0  0  0  0  0  0  0
   10.7244   -2.9556   23.1369 S   0  0  0  0  0  0  0  0  0  0  0  0
    2.7305   -6.9179   27.3694 N   0  0  0  0  0  0  0  0  0  0  0  0
    2.5980   -8.0384   28.3482 C   0  0  0  0  0  0  0  0  0  0  0  0
    3.3736   -8.4525   29.1729 O   0  0  0  0  0  0  0  0  0  0  0  0
    1.1966   -8.8370   28.4425 C   0  0  0  0  0  0  0  0  0  0  0  0
   -0.2010   -8.3585   28.1168 C   0  0  0  0  0  0  0  0  0  0  0  0
   -1.3325   -9.0123   28.1959 N   0  0  0  0  0  0  0  0  0  0  0  0
   -1.2976  -10.2957   28.6707 C   0  0  0  0  0  0  0  0  0  0  0  0
   -2.2753  -11.1719   28.8284 N   0  0  0  0  0  0  0  0  0  0  0  0
   -1.6963  -12.3009   29.3516 C   0  0  0  0  0  0  0  0  0  0  0  0
   -0.3390  -12.1188   29.5003 C   0  0  0  0  0  0  0  0  0  0  0  0
   -0.0787  -10.8381   29.0553 N   0  0  0  0  0  0  0  0  0  0  0  0
    1.1298  -10.1106   28.9462 C   0  0  0  0  0  0  0  0  0  0  0  0
    5.4872   -5.0509   28.4257 H   0  0  0  0  0  0  0  0  0  0  0  0
    5.4616   -6.8206   28.3051 H   0  0  0  0  0  0  0  0  0  0  0  0
    4.2798   -5.9586   29.3093 H   0  0  0  0  0  0  0  0  0  0  0  0
    3.3213   -4.9081   27.2623 H   0  0  0  0  0  0  0  0  0  0  0  0
    4.0613   -5.5183   24.9236 H   0  0  0  0  0  0  0  0  0  0  0  0
    5.3410   -6.5572   25.5675 H   0  0  0  0  0  0  0  0  0  0  0  0
    5.1880   -3.4848   25.9915 H   0  0  0  0  0  0  0  0  0  0  0  0
    6.4732   -4.5087   26.6087 H   0  0  0  0  0  0  0  0  0  0  0  0
    6.5059   -4.4006   23.7016 H   0  0  0  0  0  0  0  0  0  0  0  0
    7.0177   -3.6756   21.5527 H   0  0  0  0  0  0  0  0  0  0  0  0
    8.9810   -4.5466   19.9936 H   0  0  0  0  0  0  0  0  0  0  0  0
   12.0717   -4.1294   20.7959 H   0  0  0  0  0  0  0  0  0  0  0  0
    1.8502   -6.7945   26.8840 H   0  0  0  0  0  0  0  0  0  0  0  0
   -0.2496   -7.3163   27.7591 H   0  0  0  0  0  0  0  0  0  0  0  0
   -2.2843  -13.1792   29.5870 H   0  0  0  0  0  0  0  0  0  0  0  0
    0.4443  -12.7667   29.8658 H   0  0  0  0  0  0  0  0  0  0  0  0
    2.0164  -10.6326   29.2902 H   0  0  0  0  0  0  0  0  0  0  0  0
  1  2  1  0
  2  3  1  0
  3  4  1  0
  4  5  1  0
  5  6  1  0
  6  7  2  0
  6  8  1  0
  8  9  2  0
  9 10  1  0
 10 11  2  0
 11 12  1  0
  2 13  1  0
 13 14  1  0
 14 15  2  0
 14 16  1  0
 16 17  1  0
 17 18  2  0
 18 19  1  0
 19 20  2  0
 20 21  1  0
 21 22  2  0
 22 23  1  0
 23 24  1  0
 12  8  1  0
 24 16  2  0
 23 19  1  0
  1 25  1  0
  1 26  1  0
  1 27  1  0
  2 28  1  0
  3 29  1  0
  3 30  1  0
  4 31  1  0
  4 32  1  0
  5 33  1  0
  9 34  1  0
 10 35  1  0
 11 36  1  0
 13 37  1  0
 17 38  1  0
 21 39  1  0
 22 40  1  0
 24 41  1  0
M  END
>  <Energy>  (32) 
357.79403584019951

>  <compound_id>  (32) 
35505

>  <target_id>  (32) 
1

>  <reference_id>  (32) 
76

>  <inspiration_ids>  (32) 
[107, 76]

>  <energy_score>  (32) 
331.2455833642954

>  <distance_score>  (32) 
15.287537822797834

>  <path>  (32) 
/opt/xchem-fragalysis-2/maxwin/BulkDock/SCRATCH/511013/C35505-P76/C35505-P76.minimised.mol

>  <scratch_subdir>  (32) 
/opt/xchem-fragalysis-2/maxwin/BulkDock/SCRATCH/511013/C35505-P76

>  <fragmenstein_runtime>  (32) 
15.695782899856567

>  <fragmenstein_outcome>  (32) 
too moved

>  <fragmenstein_mode>  (32) 
expansion

>  <fragmenstein_error>  (32) 


$$$$
C35506-P107
     RDKit          3D

 38 40  0  0  0  0  0  0  0  0999 V2000
    2.6725  -19.6331   26.3831 C   0  0  0  0  0  0  0  0  0  0  0  0
    1.8972  -19.4783   28.0806 N   0  0  0  0  0  0  0  0  0  0  0  0
    2.8764  -19.0568   27.1001 C   0  0  0  0  0  0  0  0  0  0  0  0
    4.3660  -18.0326   27.2846 C   0  0  0  0  0  0  0  0  0  0  0  0
    4.7978  -17.0401   26.2811 N   0  0  0  0  0  0  0  0  0  0  0  0
    5.4493  -15.7407   26.4402 C   0  0  0  0  0  0  0  0  0  0  0  0
    5.7217  -15.1244   27.4290 O   0  0  0  0  0  0  0  0  0  0  0  0
    5.8862  -15.0859   25.1340 C   0  0  0  0  0  0  0  0  0  0  0  0
    5.6199  -15.3229   23.7893 C   0  0  0  0  0  0  0  0  0  0  0  0
    6.2200  -14.3739   22.8850 C   0  0  0  0  0  0  0  0  0  0  0  0
    6.9737  -13.4338   23.5419 C   0  0  0  0  0  0  0  0  0  0  0  0
    6.9578  -13.6903   25.2297 S   0  0  0  0  0  0  0  0  0  0  0  0
    0.8866  -20.4695   28.1690 C   0  0  0  0  0  0  0  0  0  0  0  0
    1.1226  -21.5871   28.6067 O   0  0  0  0  0  0  0  0  0  0  0  0
   -0.5009  -20.1237   27.8358 C   0  0  0  0  0  0  0  0  0  0  0  0
   -1.1251  -18.8903   27.7870 C   0  0  0  0  0  0  0  0  0  0  0  0
   -2.4623  -18.9758   27.4899 N   0  0  0  0  0  0  0  0  0  0  0  0
   -2.7394  -20.2574   27.4275 C   0  0  0  0  0  0  0  0  0  0  0  0
   -3.9363  -20.8509   27.1250 N   0  0  0  0  0  0  0  0  0  0  0  0
   -3.9512  -22.1459   27.1540 C   0  0  0  0  0  0  0  0  0  0  0  0
   -2.8135  -23.0320   27.5070 C   0  0  0  0  0  0  0  0  0  0  0  0
   -1.6564  -22.4037   27.7562 C   0  0  0  0  0  0  0  0  0  0  0  0
   -1.5857  -21.0107   27.6967 N   0  0  0  0  0  0  0  0  0  0  0  0
    2.2577  -19.0597   25.4187 H   0  0  0  0  0  0  0  0  0  0  0  0
    3.5326  -20.4616   26.1881 H   0  0  0  0  0  0  0  0  0  0  0  0
    1.9272  -20.4770   26.0695 H   0  0  0  0  0  0  0  0  0  0  0  0
    2.3931  -17.9881   27.2216 H   0  0  0  0  0  0  0  0  0  0  0  0
    3.5447  -19.5336   27.9837 H   0  0  0  0  0  0  0  0  0  0  0  0
    4.2820  -17.5133   28.2492 H   0  0  0  0  0  0  0  0  0  0  0  0
    5.2139  -18.7306   27.3466 H   0  0  0  0  0  0  0  0  0  0  0  0
    4.8032  -17.2940   25.3040 H   0  0  0  0  0  0  0  0  0  0  0  0
    4.9891  -16.1282   23.4404 H   0  0  0  0  0  0  0  0  0  0  0  0
    6.0933  -14.3935   21.8091 H   0  0  0  0  0  0  0  0  0  0  0  0
    7.5338  -12.6120   23.1174 H   0  0  0  0  0  0  0  0  0  0  0  0
   -0.6653  -17.9299   27.9717 H   0  0  0  0  0  0  0  0  0  0  0  0
   -4.8870  -22.6683   26.9014 H   0  0  0  0  0  0  0  0  0  0  0  0
   -2.9364  -24.1034   27.5363 H   0  0  0  0  0  0  0  0  0  0  0  0
   -0.7515  -22.9428   28.0068 H   0  0  0  0  0  0  0  0  0  0  0  0
  1  2  1  0
  2  3  1  0
  3  4  1  0
  4  5  1  0
  5  6  1  0
  6  7  2  0
  6  8  1  0
  8  9  2  0
  9 10  1  0
 10 11  2  0
 11 12  1  0
  2 13  1  0
 13 14  2  0
 13 15  1  0
 15 16  2  0
 16 17  1  0
 17 18  2  0
 18 19  1  0
 19 20  2  0
 20 21  1  0
 21 22  2  0
 22 23  1  0
 12  8  1  0
 23 15  1  0
 23 18  1  0
  1 24  1  0
  1 25  1  0
  1 26  1  0
  3 27  1  0
  3 28  1  0
  4 29  1  0
  4 30  1  0
  5 31  1  0
  9 32  1  0
 10 33  1  0
 11 34  1  0
 16 35  1  0
 20 36  1  0
 21 37  1  0
 22 38  1  0
M  END
>  <Energy>  (33) 
584.82785243881528

>  <compound_id>  (33) 
35506

>  <target_id>  (33) 
1

>  <reference_id>  (33) 
107

>  <inspiration_ids>  (33) 
[107, 76]

>  <energy_score>  (33) 
552.644769641156

>  <distance_score>  (33) 
17.49015898517484

>  <path>  (33) 
/opt/xchem-fragalysis-2/maxwin/BulkDock/SCRATCH/511013/C35506-P107/C35506-P107.minimised.mol

>  <scratch_subdir>  (33) 
/opt/xchem-fragalysis-2/maxwin/BulkDock/SCRATCH/511013/C35506-P107

>  <fragmenstein_runtime>  (33) 
23.045774698257446

>  <fragmenstein_outcome>  (33) 
too moved

>  <fragmenstein_mode>  (33) 
expansion

>  <fragmenstein_error>  (33) 


$$$$
C35506-P76
     RDKit          3D

 38 40  0  0  0  0  0  0  0  0999 V2000
    1.8401  -12.0215   23.9710 C   0  0  0  0  0  0  0  0  0  0  0  0
    1.5239  -13.3782   23.9520 N   0  0  0  0  0  0  0  0  0  0  0  0
    3.2108  -14.0914   23.9573 C   0  0  0  0  0  0  0  0  0  0  0  0
    4.1031  -13.8644   22.6261 C   0  0  0  0  0  0  0  0  0  0  0  0
    4.8961  -12.7059   22.2951 N   0  0  0  0  0  0  0  0  0  0  0  0
    6.3125  -12.5491   22.1438 C   0  0  0  0  0  0  0  0  0  0  0  0
    7.2063  -13.3198   22.3329 O   0  0  0  0  0  0  0  0  0  0  0  0
    6.6912  -11.2378   21.5620 C   0  0  0  0  0  0  0  0  0  0  0  0
    7.8951  -10.9705   20.9190 C   0  0  0  0  0  0  0  0  0  0  0  0
    7.8857   -9.7420   20.2099 C   0  0  0  0  0  0  0  0  0  0  0  0
    6.7053   -9.0602   20.3848 C   0  0  0  0  0  0  0  0  0  0  0  0
    5.6569   -9.8805   21.4554 S   0  0  0  0  0  0  0  0  0  0  0  0
   -0.2064  -14.1932   23.9114 C   0  0  0  0  0  0  0  0  0  0  0  0
   -0.5260  -14.3400   22.7385 O   0  0  0  0  0  0  0  0  0  0  0  0
   -1.7309  -14.7182   25.0429 C   0  0  0  0  0  0  0  0  0  0  0  0
   -2.4556  -15.9565   25.4193 C   0  0  0  0  0  0  0  0  0  0  0  0
   -2.2463  -15.7869   27.1477 N   0  0  0  0  0  0  0  0  0  0  0  0
   -3.0160  -16.7684   26.9338 C   0  0  0  0  0  0  0  0  0  0  0  0
   -4.5437  -17.2694   27.6353 N   0  0  0  0  0  0  0  0  0  0  0  0
   -5.9476  -17.0733   27.0775 C   0  0  0  0  0  0  0  0  0  0  0  0
   -6.4571  -15.8743   25.5130 C   0  0  0  0  0  0  0  0  0  0  0  0
   -5.0088  -15.6721   24.6004 C   0  0  0  0  0  0  0  0  0  0  0  0
   -3.2481  -15.7998   25.1994 N   0  0  0  0  0  0  0  0  0  0  0  0
    1.1361  -11.6060   23.2518 H   0  0  0  0  0  0  0  0  0  0  0  0
    2.7775  -11.9349   23.4769 H   0  0  0  0  0  0  0  0  0  0  0  0
    1.6895  -11.7645   24.9838 H   0  0  0  0  0  0  0  0  0  0  0  0
    3.7672  -13.6414   24.7699 H   0  0  0  0  0  0  0  0  0  0  0  0
    3.4613  -15.1082   23.9458 H   0  0  0  0  0  0  0  0  0  0  0  0
    4.8766  -14.6474   22.6916 H   0  0  0  0  0  0  0  0  0  0  0  0
    3.5721  -14.1326   21.7115 H   0  0  0  0  0  0  0  0  0  0  0  0
    4.4361  -11.8704   21.9658 H   0  0  0  0  0  0  0  0  0  0  0  0
    8.7065  -11.6905   20.8850 H   0  0  0  0  0  0  0  0  0  0  0  0
    8.7046   -9.3935   19.6037 H   0  0  0  0  0  0  0  0  0  0  0  0
    6.4152   -8.1036   19.9694 H   0  0  0  0  0  0  0  0  0  0  0  0
   -2.1580  -17.1621   25.2549 H   0  0  0  0  0  0  0  0  0  0  0  0
   -6.8339  -17.4507   27.6187 H   0  0  0  0  0  0  0  0  0  0  0  0
   -7.4899  -15.7873   25.2141 H   0  0  0  0  0  0  0  0  0  0  0  0
   -4.9061  -15.1767   23.6518 H   0  0  0  0  0  0  0  0  0  0  0  0
  1  2  1  0
  2  3  1  0
  3  4  1  0
  4  5  1  0
  5  6  1  0
  6  7  2  0
  6  8  1  0
  8  9  2  0
  9 10  1  0
 10 11  2  0
 11 12  1  0
  2 13  1  0
 13 14  2  0
 13 15  1  0
 15 16  2  0
 16 17  1  0
 17 18  2  0
 18 19  1  0
 19 20  2  0
 20 21  1  0
 21 22  2  0
 22 23  1  0
 12  8  1  0
 23 15  1  0
 23 18  1  0
  1 24  1  0
  1 25  1  0
  1 26  1  0
  3 27  1  0
  3 28  1  0
  4 29  1  0
  4 30  1  0
  5 31  1  0
  9 32  1  0
 10 33  1  0
 11 34  1  0
 16 35  1  0
 20 36  1  0
 21 37  1  0
 22 38  1  0
M  END
>  <Energy>  (34) 
1101.0266154088833

>  <compound_id>  (34) 
35506

>  <target_id>  (34) 
1

>  <reference_id>  (34) 
76

>  <inspiration_ids>  (34) 
[107, 76]

>  <energy_score>  (34) 
1068.8435326112276

>  <distance_score>  (34) 
14.83681336270542

>  <path>  (34) 
/opt/xchem-fragalysis-2/maxwin/BulkDock/SCRATCH/511013/C35506-P76/C35506-P76.minimised.mol

>  <scratch_subdir>  (34) 
/opt/xchem-fragalysis-2/maxwin/BulkDock/SCRATCH/511013/C35506-P76

>  <fragmenstein_runtime>  (34) 
10.279950141906738

>  <fragmenstein_outcome>  (34) 
too moved

>  <fragmenstein_mode>  (34) 
expansion

>  <fragmenstein_error>  (34) 


$$$$
C35508-P107
     RDKit          3D

 38 41  0  0  0  0  0  0  0  0999 V2000
    6.2938  -10.8516   19.5844 O   0  0  0  0  0  0  0  0  0  0  0  0
    7.2860  -11.3749   19.2498 C   0  0  0  0  0  0  0  0  0  0  0  0
    8.7763   -9.9282   18.9842 C   0  0  0  0  0  0  0  0  0  0  0  0
    9.7206   -8.2268   19.9099 C   0  0  0  0  0  0  0  0  0  0  0  0
   10.9508   -8.2764   21.0258 C   0  0  0  0  0  0  0  0  0  0  0  0
   12.1599   -7.2774   21.1684 C   0  0  0  0  0  0  0  0  0  0  0  0
   12.0324   -6.0563   20.5042 C   0  0  0  0  0  0  0  0  0  0  0  0
   10.0823   -5.8453   19.8804 S   0  0  0  0  0  0  0  0  0  0  0  0
    7.2209  -13.2381   19.0854 N   0  0  0  0  0  0  0  0  0  0  0  0
    5.8441  -14.5142   19.4847 C   0  0  0  0  0  0  0  0  0  0  0  0
    5.0850  -14.0833   21.1634 C   0  0  0  0  0  0  0  0  0  0  0  0
    4.1418  -15.2908   22.6880 C   0  0  0  0  0  0  0  0  0  0  0  0
    4.1106  -17.3091   22.6560 C   0  0  0  0  0  0  0  0  0  0  0  0
    3.3542  -18.4422   23.4636 C   0  0  0  0  0  0  0  0  0  0  0  0
    2.5456  -19.4043   22.8538 C   0  0  0  0  0  0  0  0  0  0  0  0
    1.7502  -19.9591   23.8434 N   0  0  0  0  0  0  0  0  0  0  0  0
    0.6141  -20.7706   23.7528 C   0  0  0  0  0  0  0  0  0  0  0  0
   -0.0486  -21.1227   24.8654 C   0  0  0  0  0  0  0  0  0  0  0  0
    0.5593  -20.6178   26.1274 C   0  0  0  0  0  0  0  0  0  0  0  0
    1.6269  -19.8814   26.2322 N   0  0  0  0  0  0  0  0  0  0  0  0
    2.2354  -19.4917   25.0592 C   0  0  0  0  0  0  0  0  0  0  0  0
    3.1875  -18.5772   24.8409 N   0  0  0  0  0  0  0  0  0  0  0  0
    4.9783  -17.7780   20.9242 C   0  0  0  0  0  0  0  0  0  0  0  0
    5.7486  -16.4534   19.6535 C   0  0  0  0  0  0  0  0  0  0  0  0
    8.5727   -9.7019   17.9555 H   0  0  0  0  0  0  0  0  0  0  0  0
    9.6182  -10.6076   18.6750 H   0  0  0  0  0  0  0  0  0  0  0  0
   11.1483   -9.1437   21.6271 H   0  0  0  0  0  0  0  0  0  0  0  0
   13.0101   -7.5217   21.7979 H   0  0  0  0  0  0  0  0  0  0  0  0
   12.5932   -5.1337   20.4454 H   0  0  0  0  0  0  0  0  0  0  0  0
    8.1542  -13.5721   18.8749 H   0  0  0  0  0  0  0  0  0  0  0  0
    4.6210  -13.0460   20.9614 H   0  0  0  0  0  0  0  0  0  0  0  0
    3.4909  -14.7957   23.4242 H   0  0  0  0  0  0  0  0  0  0  0  0
    2.3485  -19.6095   21.8118 H   0  0  0  0  0  0  0  0  0  0  0  0
    0.2989  -21.0630   22.7595 H   0  0  0  0  0  0  0  0  0  0  0  0
   -0.9394  -21.7320   24.8942 H   0  0  0  0  0  0  0  0  0  0  0  0
    0.0417  -20.9283   27.0505 H   0  0  0  0  0  0  0  0  0  0  0  0
    5.0881  -18.8368   20.6802 H   0  0  0  0  0  0  0  0  0  0  0  0
    6.3234  -16.9534   18.8578 H   0  0  0  0  0  0  0  0  0  0  0  0
  1  2  2  0
  2  3  1  0
  3  4  1  0
  4  5  2  0
  5  6  1  0
  6  7  2  0
  7  8  1  0
  2  9  1  0
  9 10  1  0
 10 11  2  0
 11 12  1  0
 12 13  2  0
 13 14  1  0
 14 15  2  0
 15 16  1  0
 16 17  1  0
 17 18  2  0
 18 19  1  0
 19 20  2  0
 20 21  1  0
 21 22  2  0
 13 23  1  0
 23 24  2  0
  8  4  1  0
 24 10  1  0
 22 14  1  0
 21 16  1  0
  3 25  1  0
  3 26  1  0
  5 27  1  0
  6 28  1  0
  7 29  1  0
  9 30  1  0
 11 31  1  0
 12 32  1  0
 15 33  1  0
 17 34  1  0
 18 35  1  0
 19 36  1  0
 23 37  1  0
 24 38  1  0
M  END
>  <Energy>  (35) 
1379.865406517278

>  <compound_id>  (35) 
35508

>  <target_id>  (35) 
1

>  <reference_id>  (35) 
107

>  <inspiration_ids>  (35) 
[107, 76]

>  <energy_score>  (35) 
1290.3061643726369

>  <distance_score>  (35) 
14.283866963170146

>  <path>  (35) 
/opt/xchem-fragalysis-2/maxwin/BulkDock/SCRATCH/511013/C35508-P107/C35508-P107.minimised.mol

>  <scratch_subdir>  (35) 
/opt/xchem-fragalysis-2/maxwin/BulkDock/SCRATCH/511013/C35508-P107

>  <fragmenstein_runtime>  (35) 
18.851131439208984

>  <fragmenstein_outcome>  (35) 
too moved

>  <fragmenstein_mode>  (35) 
expansion

>  <fragmenstein_error>  (35) 


$$$$
C35508-P76
     RDKit          3D

 38 41  0  0  0  0  0  0  0  0999 V2000
    4.1674  -17.3070   18.6852 O   0  0  0  0  0  0  0  0  0  0  0  0
    3.3275  -16.5783   18.2261 C   0  0  0  0  0  0  0  0  0  0  0  0
    3.7242  -15.4459   17.1873 C   0  0  0  0  0  0  0  0  0  0  0  0
    4.9270  -14.4983   17.4257 C   0  0  0  0  0  0  0  0  0  0  0  0
    4.9358  -13.1065   17.3431 C   0  0  0  0  0  0  0  0  0  0  0  0
    6.2335  -12.5167   17.4640 C   0  0  0  0  0  0  0  0  0  0  0  0
    7.2028  -13.4746   17.6251 C   0  0  0  0  0  0  0  0  0  0  0  0
    6.5418  -15.0593   17.6180 S   0  0  0  0  0  0  0  0  0  0  0  0
    1.8507  -16.5861   18.3843 N   0  0  0  0  0  0  0  0  0  0  0  0
    1.0023  -17.3944   19.1955 C   0  0  0  0  0  0  0  0  0  0  0  0
   -0.3654  -17.0850   19.2042 C   0  0  0  0  0  0  0  0  0  0  0  0
   -1.3021  -17.7855   20.0358 C   0  0  0  0  0  0  0  0  0  0  0  0
   -0.9162  -18.8187   20.9066 C   0  0  0  0  0  0  0  0  0  0  0  0
   -1.9224  -19.5530   21.7477 C   0  0  0  0  0  0  0  0  0  0  0  0
   -1.6860  -20.3027   22.8909 C   0  0  0  0  0  0  0  0  0  0  0  0
   -2.8460  -21.0104   23.1358 N   0  0  0  0  0  0  0  0  0  0  0  0
   -3.0913  -22.0543   24.0266 C   0  0  0  0  0  0  0  0  0  0  0  0
   -4.2328  -22.7499   23.9242 C   0  0  0  0  0  0  0  0  0  0  0  0
   -5.1548  -22.2796   22.8487 C   0  0  0  0  0  0  0  0  0  0  0  0
   -4.9942  -21.2375   22.0909 N   0  0  0  0  0  0  0  0  0  0  0  0
   -3.7879  -20.5975   22.1968 C   0  0  0  0  0  0  0  0  0  0  0  0
   -3.2706  -19.6563   21.4227 N   0  0  0  0  0  0  0  0  0  0  0  0
    0.4560  -19.1446   20.8596 C   0  0  0  0  0  0  0  0  0  0  0  0
    1.3957  -18.4549   20.0124 C   0  0  0  0  0  0  0  0  0  0  0  0
    2.8573  -14.7949   17.0194 H   0  0  0  0  0  0  0  0  0  0  0  0
    3.8981  -15.9661   16.2355 H   0  0  0  0  0  0  0  0  0  0  0  0
    4.0448  -12.5147   17.1881 H   0  0  0  0  0  0  0  0  0  0  0  0
    6.4274  -11.4517   17.4273 H   0  0  0  0  0  0  0  0  0  0  0  0
    8.2686  -13.3333   17.7338 H   0  0  0  0  0  0  0  0  0  0  0  0
    1.4499  -15.8765   17.7895 H   0  0  0  0  0  0  0  0  0  0  0  0
   -0.7572  -16.2949   18.5687 H   0  0  0  0  0  0  0  0  0  0  0  0
   -2.3535  -17.5035   19.9866 H   0  0  0  0  0  0  0  0  0  0  0  0
   -0.7875  -20.4789   23.4632 H   0  0  0  0  0  0  0  0  0  0  0  0
   -2.3108  -22.2973   24.7357 H   0  0  0  0  0  0  0  0  0  0  0  0
   -4.5076  -23.5967   24.5365 H   0  0  0  0  0  0  0  0  0  0  0  0
   -6.0721  -22.8812   22.7273 H   0  0  0  0  0  0  0  0  0  0  0  0
    0.8403  -19.9527   21.4783 H   0  0  0  0  0  0  0  0  0  0  0  0
    2.4391  -18.7605   20.0385 H   0  0  0  0  0  0  0  0  0  0  0  0
  1  2  2  0
  2  3  1  0
  3  4  1  0
  4  5  2  0
  5  6  1  0
  6  7  2  0
  7  8  1  0
  2  9  1  0
  9 10  1  0
 10 11  2  0
 11 12  1  0
 12 13  2  0
 13 14  1  0
 14 15  2  0
 15 16  1  0
 16 17  1  0
 17 18  2  0
 18 19  1  0
 19 20  2  0
 20 21  1  0
 21 22  2  0
 13 23  1  0
 23 24  2  0
  8  4  1  0
 24 10  1  0
 22 14  1  0
 21 16  1  0
  3 25  1  0
  3 26  1  0
  5 27  1  0
  6 28  1  0
  7 29  1  0
  9 30  1  0
 11 31  1  0
 12 32  1  0
 15 33  1  0
 17 34  1  0
 18 35  1  0
 19 36  1  0
 23 37  1  0
 24 38  1  0
M  END
>  <Energy>  (36) 
72.904179401094879

>  <compound_id>  (36) 
35508

>  <target_id>  (36) 
1

>  <reference_id>  (36) 
76

>  <inspiration_ids>  (36) 
[107, 76]

>  <energy_score>  (36) 
-16.65506274358313

>  <distance_score>  (36) 
15.616728142880941

>  <path>  (36) 
/opt/xchem-fragalysis-2/maxwin/BulkDock/SCRATCH/511013/C35508-P76/C35508-P76.minimised.mol

>  <scratch_subdir>  (36) 
/opt/xchem-fragalysis-2/maxwin/BulkDock/SCRATCH/511013/C35508-P76

>  <fragmenstein_runtime>  (36) 
11.365721225738525

>  <fragmenstein_outcome>  (36) 
too moved

>  <fragmenstein_mode>  (36) 
expansion

>  <fragmenstein_error>  (36) 


$$$$
C35511-P107
     RDKit          3D

 34 36  0  0  0  0  0  0  0  0999 V2000
   -0.8301  -15.3908   28.2539 O   0  0  0  0  0  0  0  0  0  0  0  0
   -1.8285  -14.9003   27.7346 C   0  0  0  0  0  0  0  0  0  0  0  0
   -1.4481  -14.0983   25.8021 C   0  0  0  0  0  0  0  0  0  0  0  0
    0.6435  -13.5213   25.8376 C   0  0  0  0  0  0  0  0  0  0  0  0
    1.9082  -13.0741   24.3746 N   0  0  0  0  0  0  0  0  0  0  0  0
    3.6202  -13.6332   23.4502 S   0  0  0  0  0  0  0  0  0  0  0  0
    3.3606  -12.3903   22.7403 O   0  0  0  0  0  0  0  0  0  0  0  0
    4.2857  -14.1602   24.6256 O   0  0  0  0  0  0  0  0  0  0  0  0
    5.3646  -12.9181   23.0037 C   0  0  0  0  0  0  0  0  0  0  0  0
    6.4182  -12.5608   23.9181 C   0  0  0  0  0  0  0  0  0  0  0  0
    7.4899  -11.9528   23.2883 C   0  0  0  0  0  0  0  0  0  0  0  0
    7.2736  -11.8391   21.5964 S   0  0  0  0  0  0  0  0  0  0  0  0
    5.7514  -12.6297   21.6940 C   0  0  0  0  0  0  0  0  0  0  0  0
   -2.6074  -14.8096   29.4844 C   0  0  0  0  0  0  0  0  0  0  0  0
   -1.7673  -14.7877   30.6845 C   0  0  0  0  0  0  0  0  0  0  0  0
   -2.3136  -14.6373   31.9166 N   0  0  0  0  0  0  0  0  0  0  0  0
   -3.5171  -15.0867   31.8065 C   0  0  0  0  0  0  0  0  0  0  0  0
   -4.3577  -15.3307   32.8623 N   0  0  0  0  0  0  0  0  0  0  0  0
   -5.3787  -16.0928   32.6573 C   0  0  0  0  0  0  0  0  0  0  0  0
   -5.7708  -16.6313   31.3606 C   0  0  0  0  0  0  0  0  0  0  0  0
   -4.9867  -16.2539   30.3452 C   0  0  0  0  0  0  0  0  0  0  0  0
   -3.7725  -15.4834   30.4812 N   0  0  0  0  0  0  0  0  0  0  0  0
   -1.6919  -14.8587   25.0335 H   0  0  0  0  0  0  0  0  0  0  0  0
   -2.0808  -13.2132   25.5418 H   0  0  0  0  0  0  0  0  0  0  0  0
    1.2921  -14.1369   26.4208 H   0  0  0  0  0  0  0  0  0  0  0  0
    0.8616  -12.5971   26.3569 H   0  0  0  0  0  0  0  0  0  0  0  0
    1.7916  -12.0785   24.1988 H   0  0  0  0  0  0  0  0  0  0  0  0
    6.3701  -12.7185   24.9886 H   0  0  0  0  0  0  0  0  0  0  0  0
    8.3929  -11.5736   23.7461 H   0  0  0  0  0  0  0  0  0  0  0  0
    5.1807  -12.7918   20.7916 H   0  0  0  0  0  0  0  0  0  0  0  0
   -0.6885  -14.8672   30.6646 H   0  0  0  0  0  0  0  0  0  0  0  0
   -6.0452  -16.3404   33.4998 H   0  0  0  0  0  0  0  0  0  0  0  0
   -6.6588  -17.2343   31.2651 H   0  0  0  0  0  0  0  0  0  0  0  0
   -5.3307  -16.5547   29.3843 H   0  0  0  0  0  0  0  0  0  0  0  0
  1  2  2  0
  2  3  1  0
  3  4  1  0
  4  5  1  0
  5  6  1  0
  6  7  2  0
  6  8  2  0
  6  9  1  0
  9 10  1  0
 10 11  2  0
 11 12  1  0
 12 13  1  0
  2 14  1  0
 14 15  2  0
 15 16  1  0
 16 17  2  0
 17 18  1  0
 18 19  2  0
 19 20  1  0
 20 21  2  0
 21 22  1  0
 13  9  2  0
 22 14  1  0
 22 17  1  0
  3 23  1  0
  3 24  1  0
  4 25  1  0
  4 26  1  0
  5 27  1  0
 10 28  1  0
 11 29  1  0
 13 30  1  0
 15 31  1  0
 19 32  1  0
 20 33  1  0
 21 34  1  0
M  END
>  <Energy>  (37) 
617.224808707796

>  <compound_id>  (37) 
35511

>  <target_id>  (37) 
1

>  <reference_id>  (37) 
107

>  <inspiration_ids>  (37) 
[107, 76]

>  <energy_score>  (37) 
599.9290947650668

>  <distance_score>  (37) 
12.794524321200784

>  <path>  (37) 
/opt/xchem-fragalysis-2/maxwin/BulkDock/SCRATCH/511013/C35511-P107/C35511-P107.minimised.mol

>  <scratch_subdir>  (37) 
/opt/xchem-fragalysis-2/maxwin/BulkDock/SCRATCH/511013/C35511-P107

>  <fragmenstein_runtime>  (37) 
14.502137184143066

>  <fragmenstein_outcome>  (37) 
too moved

>  <fragmenstein_mode>  (37) 
expansion

>  <fragmenstein_error>  (37) 


$$$$
C35511-P76
     RDKit          3D

 34 36  0  0  0  0  0  0  0  0999 V2000
   -3.4175  -16.3107   28.1185 O   0  0  0  0  0  0  0  0  0  0  0  0
   -3.5779  -17.0877   27.1919 C   0  0  0  0  0  0  0  0  0  0  0  0
   -2.6688  -16.2004   25.5127 C   0  0  0  0  0  0  0  0  0  0  0  0
   -1.3193  -14.7752   24.6909 C   0  0  0  0  0  0  0  0  0  0  0  0
    0.5568  -14.1155   23.9175 N   0  0  0  0  0  0  0  0  0  0  0  0
    2.8496  -13.5595   23.8193 S   0  0  0  0  0  0  0  0  0  0  0  0
    3.6623  -13.7938   25.0060 O   0  0  0  0  0  0  0  0  0  0  0  0
    3.1641  -14.7139   23.0107 O   0  0  0  0  0  0  0  0  0  0  0  0
    4.3080  -12.6836   22.7285 C   0  0  0  0  0  0  0  0  0  0  0  0
    4.6782  -11.3361   22.2587 C   0  0  0  0  0  0  0  0  0  0  0  0
    5.9360  -11.2057   21.6948 C   0  0  0  0  0  0  0  0  0  0  0  0
    6.8397  -12.6192   21.9118 S   0  0  0  0  0  0  0  0  0  0  0  0
    5.5370  -13.3650   22.7449 C   0  0  0  0  0  0  0  0  0  0  0  0
   -5.1385  -18.2681   27.6242 C   0  0  0  0  0  0  0  0  0  0  0  0
   -6.2030  -18.1014   28.6533 C   0  0  0  0  0  0  0  0  0  0  0  0
   -7.3270  -18.7755   28.3705 N   0  0  0  0  0  0  0  0  0  0  0  0
   -6.9696  -19.7962   27.6296 C   0  0  0  0  0  0  0  0  0  0  0  0
   -7.6552  -21.0441   27.5892 N   0  0  0  0  0  0  0  0  0  0  0  0
   -7.2858  -22.2738   27.4129 C   0  0  0  0  0  0  0  0  0  0  0  0
   -5.9632  -22.6614   26.9338 C   0  0  0  0  0  0  0  0  0  0  0  0
   -5.2294  -21.5440   26.9319 C   0  0  0  0  0  0  0  0  0  0  0  0
   -5.7273  -19.8280   27.1229 N   0  0  0  0  0  0  0  0  0  0  0  0
   -2.2928  -17.1886   25.2909 H   0  0  0  0  0  0  0  0  0  0  0  0
   -3.4375  -15.8188   24.8556 H   0  0  0  0  0  0  0  0  0  0  0  0
   -1.6367  -14.8868   23.6508 H   0  0  0  0  0  0  0  0  0  0  0  0
   -1.0690  -15.6873   24.4476 H   0  0  0  0  0  0  0  0  0  0  0  0
    0.0551  -13.2779   23.6431 H   0  0  0  0  0  0  0  0  0  0  0  0
    4.0720  -10.4372   22.3243 H   0  0  0  0  0  0  0  0  0  0  0  0
    6.3686  -10.3273   21.2361 H   0  0  0  0  0  0  0  0  0  0  0  0
    5.7238  -14.3139   23.2268 H   0  0  0  0  0  0  0  0  0  0  0  0
   -6.2339  -17.3293   29.4199 H   0  0  0  0  0  0  0  0  0  0  0  0
   -8.0857  -23.0111   27.5053 H   0  0  0  0  0  0  0  0  0  0  0  0
   -5.8678  -23.2642   26.0392 H   0  0  0  0  0  0  0  0  0  0  0  0
   -4.8268  -21.9153   27.8897 H   0  0  0  0  0  0  0  0  0  0  0  0
  1  2  2  0
  2  3  1  0
  3  4  1  0
  4  5  1  0
  5  6  1  0
  6  7  2  0
  6  8  2  0
  6  9  1  0
  9 10  1  0
 10 11  2  0
 11 12  1  0
 12 13  1  0
  2 14  1  0
 14 15  2  0
 15 16  1  0
 16 17  2  0
 17 18  1  0
 18 19  2  0
 19 20  1  0
 20 21  2  0
 21 22  1  0
 13  9  2  0
 22 14  1  0
 22 17  1  0
  3 23  1  0
  3 24  1  0
  4 25  1  0
  4 26  1  0
  5 27  1  0
 10 28  1  0
 11 29  1  0
 13 30  1  0
 15 31  1  0
 19 32  1  0
 20 33  1  0
 21 34  1  0
M  END
>  <Energy>  (38) 
1001.3658070558174

>  <compound_id>  (38) 
35511

>  <target_id>  (38) 
1

>  <reference_id>  (38) 
76

>  <inspiration_ids>  (38) 
[107, 76]

>  <energy_score>  (38) 
984.0700931130964

>  <distance_score>  (38) 
10.935900236926061

>  <path>  (38) 
/opt/xchem-fragalysis-2/maxwin/BulkDock/SCRATCH/511013/C35511-P76/C35511-P76.minimised.mol

>  <scratch_subdir>  (38) 
/opt/xchem-fragalysis-2/maxwin/BulkDock/SCRATCH/511013/C35511-P76

>  <fragmenstein_runtime>  (38) 
9.141282081604004

>  <fragmenstein_outcome>  (38) 
too moved

>  <fragmenstein_mode>  (38) 
expansion

>  <fragmenstein_error>  (38) 


$$$$
C35514-P107
     RDKit          3D

 32 34  0  0  0  0  0  0  0  0999 V2000
   -7.1621   -5.2872   21.9621 C   0  0  0  0  0  0  0  0  0  0  0  0
   -7.1993   -6.3222   20.9297 N   0  0  0  0  0  0  0  0  0  0  0  0
   -6.6103   -5.7491   19.6201 C   0  0  0  0  0  0  0  0  0  0  0  0
   -5.0715   -5.4275   19.4755 C   0  0  0  0  0  0  0  0  0  0  0  0
   -4.0766   -6.3046   18.8740 C   0  0  0  0  0  0  0  0  0  0  0  0
   -2.8554   -5.7056   18.6219 C   0  0  0  0  0  0  0  0  0  0  0  0
   -2.8702   -4.0545   19.0487 S   0  0  0  0  0  0  0  0  0  0  0  0
   -4.4770   -4.1816   19.6636 C   0  0  0  0  0  0  0  0  0  0  0  0
   -8.6457   -6.8667   20.7909 C   0  0  0  0  0  0  0  0  0  0  0  0
   -9.3084   -7.9484   21.8398 C   0  0  0  0  0  0  0  0  0  0  0  0
   -9.5674   -7.9320   23.2114 C   0  0  0  0  0  0  0  0  0  0  0  0
  -10.1998   -9.1196   23.5473 N   0  0  0  0  0  0  0  0  0  0  0  0
  -10.6335   -9.6156   24.7814 C   0  0  0  0  0  0  0  0  0  0  0  0
  -11.3483  -10.7516   24.8340 C   0  0  0  0  0  0  0  0  0  0  0  0
  -11.6175  -11.3750   23.5123 C   0  0  0  0  0  0  0  0  0  0  0  0
  -11.1690  -10.9653   22.3633 N   0  0  0  0  0  0  0  0  0  0  0  0
  -10.4342   -9.8055   22.3628 C   0  0  0  0  0  0  0  0  0  0  0  0
   -9.8757   -9.1527   21.3506 N   0  0  0  0  0  0  0  0  0  0  0  0
   -7.6085   -5.6287   22.9000 H   0  0  0  0  0  0  0  0  0  0  0  0
   -7.7005   -4.3841   21.6528 H   0  0  0  0  0  0  0  0  0  0  0  0
   -6.1279   -5.0116   22.1930 H   0  0  0  0  0  0  0  0  0  0  0  0
   -7.1698   -4.8411   19.3574 H   0  0  0  0  0  0  0  0  0  0  0  0
   -6.8295   -6.4783   18.8284 H   0  0  0  0  0  0  0  0  0  0  0  0
   -4.2798   -7.3297   18.5926 H   0  0  0  0  0  0  0  0  0  0  0  0
   -1.9795   -6.1523   18.1728 H   0  0  0  0  0  0  0  0  0  0  0  0
   -4.9463   -3.2929   20.0620 H   0  0  0  0  0  0  0  0  0  0  0  0
   -8.6848   -7.3972   19.8302 H   0  0  0  0  0  0  0  0  0  0  0  0
   -9.3469   -6.0251   20.7250 H   0  0  0  0  0  0  0  0  0  0  0  0
   -9.3261   -7.1960   23.9638 H   0  0  0  0  0  0  0  0  0  0  0  0
  -10.3959   -9.0219   25.6550 H   0  0  0  0  0  0  0  0  0  0  0  0
  -11.7576  -11.1922   25.7306 H   0  0  0  0  0  0  0  0  0  0  0  0
  -12.2433  -12.2829   23.5434 H   0  0  0  0  0  0  0  0  0  0  0  0
  1  2  1  0
  2  3  1  0
  3  4  1  0
  4  5  1  0
  5  6  2  0
  6  7  1  0
  7  8  1  0
  2  9  1  0
  9 10  1  0
 10 11  2  0
 11 12  1  0
 12 13  1  0
 13 14  2  0
 14 15  1  0
 15 16  2  0
 16 17  1  0
 17 18  2  0
  8  4  2  0
 18 10  1  0
 17 12  1  0
  1 19  1  0
  1 20  1  0
  1 21  1  0
  3 22  1  0
  3 23  1  0
  5 24  1  0
  6 25  1  0
  8 26  1  0
  9 27  1  0
  9 28  1  0
 11 29  1  0
 13 30  1  0
 14 31  1  0
 15 32  1  0
M  END
>  <Energy>  (39) 
75.609888338286737

>  <compound_id>  (39) 
35514

>  <target_id>  (39) 
1

>  <reference_id>  (39) 
107

>  <inspiration_ids>  (39) 
[107, 76]

>  <energy_score>  (39) 
-12.17694252229444

>  <distance_score>  (39) 
16.878524563553878

>  <path>  (39) 
/opt/xchem-fragalysis-2/maxwin/BulkDock/SCRATCH/511013/C35514-P107/C35514-P107.minimised.mol

>  <scratch_subdir>  (39) 
/opt/xchem-fragalysis-2/maxwin/BulkDock/SCRATCH/511013/C35514-P107

>  <fragmenstein_runtime>  (39) 
15.127507209777832

>  <fragmenstein_outcome>  (39) 
too moved

>  <fragmenstein_mode>  (39) 
expansion

>  <fragmenstein_error>  (39) 


$$$$
C35514-P76
     RDKit          3D

 32 34  0  0  0  0  0  0  0  0999 V2000
   -2.5853  -10.9004   20.2913 C   0  0  0  0  0  0  0  0  0  0  0  0
   -2.8626  -10.3226   21.6203 N   0  0  0  0  0  0  0  0  0  0  0  0
   -2.3716   -8.7937   21.5942 C   0  0  0  0  0  0  0  0  0  0  0  0
   -1.1240   -8.2601   20.8365 C   0  0  0  0  0  0  0  0  0  0  0  0
    0.1602   -7.9737   21.4353 C   0  0  0  0  0  0  0  0  0  0  0  0
    1.0872   -7.3988   20.5885 C   0  0  0  0  0  0  0  0  0  0  0  0
    0.4002   -7.0509   19.0699 S   0  0  0  0  0  0  0  0  0  0  0  0
   -1.1223   -7.6997   19.5600 C   0  0  0  0  0  0  0  0  0  0  0  0
   -4.6046  -10.4567   21.8336 C   0  0  0  0  0  0  0  0  0  0  0  0
   -6.0362  -11.5368   22.9204 C   0  0  0  0  0  0  0  0  0  0  0  0
   -6.7349  -11.2988   24.0736 C   0  0  0  0  0  0  0  0  0  0  0  0
   -6.2073  -12.3113   24.7812 N   0  0  0  0  0  0  0  0  0  0  0  0
   -6.8125  -12.6140   26.0734 C   0  0  0  0  0  0  0  0  0  0  0  0
   -7.3338  -13.7524   26.5341 C   0  0  0  0  0  0  0  0  0  0  0  0
   -7.5177  -14.7964   25.3449 C   0  0  0  0  0  0  0  0  0  0  0  0
   -6.8645  -14.7650   24.1457 N   0  0  0  0  0  0  0  0  0  0  0  0
   -5.9817  -13.3597   23.7011 C   0  0  0  0  0  0  0  0  0  0  0  0
   -6.3036  -12.7209   22.5955 N   0  0  0  0  0  0  0  0  0  0  0  0
   -3.1865  -11.7829   20.0731 H   0  0  0  0  0  0  0  0  0  0  0  0
   -2.7367  -10.1947   19.4710 H   0  0  0  0  0  0  0  0  0  0  0  0
   -1.5770  -11.2820   20.2944 H   0  0  0  0  0  0  0  0  0  0  0  0
   -2.1953   -8.5708   22.6459 H   0  0  0  0  0  0  0  0  0  0  0  0
   -3.1818   -8.1299   21.2821 H   0  0  0  0  0  0  0  0  0  0  0  0
    0.3836   -8.1786   22.4699 H   0  0  0  0  0  0  0  0  0  0  0  0
    2.1145   -7.1444   20.8101 H   0  0  0  0  0  0  0  0  0  0  0  0
   -1.9533   -7.6510   18.8689 H   0  0  0  0  0  0  0  0  0  0  0  0
   -4.4402   -9.4740   22.2766 H   0  0  0  0  0  0  0  0  0  0  0  0
   -4.7562  -10.9435   20.8617 H   0  0  0  0  0  0  0  0  0  0  0  0
   -7.2538  -10.4856   24.5746 H   0  0  0  0  0  0  0  0  0  0  0  0
   -7.5599  -11.9233   26.1263 H   0  0  0  0  0  0  0  0  0  0  0  0
   -8.0483  -13.8422   27.3481 H   0  0  0  0  0  0  0  0  0  0  0  0
   -8.2436  -15.6099   25.5619 H   0  0  0  0  0  0  0  0  0  0  0  0
  1  2  1  0
  2  3  1  0
  3  4  1  0
  4  5  1  0
  5  6  2  0
  6  7  1  0
  7  8  1  0
  2  9  1  0
  9 10  1  0
 10 11  2  0
 11 12  1  0
 12 13  1  0
 13 14  2  0
 14 15  1  0
 15 16  2  0
 16 17  1  0
 17 18  2  0
  8  4  2  0
 18 10  1  0
 17 12  1  0
  1 19  1  0
  1 20  1  0
  1 21  1  0
  3 22  1  0
  3 23  1  0
  5 24  1  0
  6 25  1  0
  8 26  1  0
  9 27  1  0
  9 28  1  0
 11 29  1  0
 13 30  1  0
 14 31  1  0
 15 32  1  0
M  END
>  <Energy>  (40) 
393.42874059098176

>  <compound_id>  (40) 
35514

>  <target_id>  (40) 
1

>  <reference_id>  (40) 
76

>  <inspiration_ids>  (40) 
[107, 76]

>  <energy_score>  (40) 
305.64190973039786

>  <distance_score>  (40) 
14.378047969706282

>  <path>  (40) 
/opt/xchem-fragalysis-2/maxwin/BulkDock/SCRATCH/511013/C35514-P76/C35514-P76.minimised.mol

>  <scratch_subdir>  (40) 
/opt/xchem-fragalysis-2/maxwin/BulkDock/SCRATCH/511013/C35514-P76

>  <fragmenstein_runtime>  (40) 
9.713861465454102

>  <fragmenstein_outcome>  (40) 
too moved

>  <fragmenstein_mode>  (40) 
expansion

>  <fragmenstein_error>  (40) 


$$$$
C35515-P107
     RDKit          3D

 38 40  0  0  0  0  0  0  0  0999 V2000
   -7.5977  -12.0586   22.1810 O   0  0  0  0  0  0  0  0  0  0  0  0
   -6.4371  -11.8832   22.4032 C   0  0  0  0  0  0  0  0  0  0  0  0
   -5.4782  -10.7828   21.6670 N   0  0  0  0  0  0  0  0  0  0  0  0
   -5.7346   -9.8647   20.5583 C   0  0  0  0  0  0  0  0  0  0  0  0
   -4.5321   -8.7446   20.3726 C   0  0  0  0  0  0  0  0  0  0  0  0
   -5.1015   -7.5933   19.5346 C   0  0  0  0  0  0  0  0  0  0  0  0
   -5.4785   -8.0623   18.2460 O   0  0  0  0  0  0  0  0  0  0  0  0
   -3.1283   -9.2084   19.7477 C   0  0  0  0  0  0  0  0  0  0  0  0
   -1.9534   -8.1905   19.5931 C   0  0  0  0  0  0  0  0  0  0  0  0
   -1.4332   -7.7178   18.3238 C   0  0  0  0  0  0  0  0  0  0  0  0
   -0.2828   -6.9598   18.4335 C   0  0  0  0  0  0  0  0  0  0  0  0
    0.2016   -6.7759   20.0588 S   0  0  0  0  0  0  0  0  0  0  0  0
   -1.1301   -7.7204   20.6098 C   0  0  0  0  0  0  0  0  0  0  0  0
   -5.7353  -13.1810   23.6642 C   0  0  0  0  0  0  0  0  0  0  0  0
   -4.8706  -14.7999   23.6442 C   0  0  0  0  0  0  0  0  0  0  0  0
   -4.9124  -15.6751   25.2491 N   0  0  0  0  0  0  0  0  0  0  0  0
   -3.9774  -16.8234   26.7300 C   0  0  0  0  0  0  0  0  0  0  0  0
   -4.2311  -16.3928   28.3706 C   0  0  0  0  0  0  0  0  0  0  0  0
   -6.0651  -15.4730   28.7291 C   0  0  0  0  0  0  0  0  0  0  0  0
   -6.7676  -14.3126   27.8198 N   0  0  0  0  0  0  0  0  0  0  0  0
   -6.4754  -14.4352   25.9868 C   0  0  0  0  0  0  0  0  0  0  0  0
   -6.4797  -13.1011   25.2506 N   0  0  0  0  0  0  0  0  0  0  0  0
   -4.5696  -10.7953   22.1074 H   0  0  0  0  0  0  0  0  0  0  0  0
   -6.6904   -9.3718   20.7607 H   0  0  0  0  0  0  0  0  0  0  0  0
   -5.8285  -10.4616   19.6462 H   0  0  0  0  0  0  0  0  0  0  0  0
   -4.3121   -8.3480   21.3724 H   0  0  0  0  0  0  0  0  0  0  0  0
   -5.9900   -7.1721   20.0170 H   0  0  0  0  0  0  0  0  0  0  0  0
   -4.3721   -6.7857   19.4171 H   0  0  0  0  0  0  0  0  0  0  0  0
   -5.7153   -7.2780   17.7204 H   0  0  0  0  0  0  0  0  0  0  0  0
   -3.3243   -9.6470   18.7606 H   0  0  0  0  0  0  0  0  0  0  0  0
   -2.7526  -10.0302   20.3726 H   0  0  0  0  0  0  0  0  0  0  0  0
   -1.8732   -7.9752   17.3683 H   0  0  0  0  0  0  0  0  0  0  0  0
    0.2994   -6.5219   17.6360 H   0  0  0  0  0  0  0  0  0  0  0  0
   -1.2140   -7.9252   21.6688 H   0  0  0  0  0  0  0  0  0  0  0  0
   -3.8379  -15.0845   23.4918 H   0  0  0  0  0  0  0  0  0  0  0  0
   -2.8930  -17.0896   26.5032 H   0  0  0  0  0  0  0  0  0  0  0  0
   -3.7665  -16.4387   29.3567 H   0  0  0  0  0  0  0  0  0  0  0  0
   -6.3243  -15.4612   29.8070 H   0  0  0  0  0  0  0  0  0  0  0  0
  1  2  2  0
  2  3  1  0
  3  4  1  0
  4  5  1  0
  5  6  1  0
  6  7  1  0
  5  8  1  0
  8  9  1  0
  9 10  1  0
 10 11  2  0
 11 12  1  0
 12 13  1  0
  2 14  1  0
 14 15  2  0
 15 16  1  0
 16 17  1  0
 17 18  2  0
 18 19  1  0
 19 20  2  0
 20 21  1  0
 21 22  2  0
 13  9  2  0
 22 14  1  0
 21 16  1  0
  3 23  1  0
  4 24  1  0
  4 25  1  0
  5 26  1  0
  6 27  1  0
  6 28  1  0
  7 29  1  0
  8 30  1  0
  8 31  1  0
 10 32  1  0
 11 33  1  0
 13 34  1  0
 15 35  1  0
 17 36  1  0
 18 37  1  0
 19 38  1  0
M  END
>  <Energy>  (41) 
1009.2096052437444

>  <compound_id>  (41) 
35515

>  <target_id>  (41) 
1

>  <reference_id>  (41) 
107

>  <inspiration_ids>  (41) 
[107, 76]

>  <energy_score>  (41) 
908.4882691283135

>  <distance_score>  (41) 
13.716592758426998

>  <path>  (41) 
/opt/xchem-fragalysis-2/maxwin/BulkDock/SCRATCH/511013/C35515-P107/C35515-P107.minimised.mol

>  <scratch_subdir>  (41) 
/opt/xchem-fragalysis-2/maxwin/BulkDock/SCRATCH/511013/C35515-P107

>  <fragmenstein_runtime>  (41) 
23.211255073547363

>  <fragmenstein_outcome>  (41) 
too moved

>  <fragmenstein_mode>  (41) 
expansion

>  <fragmenstein_error>  (41) 


$$$$
C35515-P76
     RDKit          3D

 38 40  0  0  0  0  0  0  0  0999 V2000
   -2.7862  -19.5762   17.2650 O   0  0  0  0  0  0  0  0  0  0  0  0
   -3.5261  -18.6913   17.5862 C   0  0  0  0  0  0  0  0  0  0  0  0
   -3.5274  -17.2874   17.2299 N   0  0  0  0  0  0  0  0  0  0  0  0
   -2.6596  -16.5059   16.2635 C   0  0  0  0  0  0  0  0  0  0  0  0
   -1.1456  -16.1092   16.6575 C   0  0  0  0  0  0  0  0  0  0  0  0
   -1.0032  -16.3605   18.1476 C   0  0  0  0  0  0  0  0  0  0  0  0
    0.3333  -16.6310   18.4677 O   0  0  0  0  0  0  0  0  0  0  0  0
   -0.7033  -14.6058   16.2126 C   0  0  0  0  0  0  0  0  0  0  0  0
    0.7590  -14.0608   16.1309 C   0  0  0  0  0  0  0  0  0  0  0  0
    1.0895  -12.8403   15.3980 C   0  0  0  0  0  0  0  0  0  0  0  0
    2.4166  -12.4640   15.4763 C   0  0  0  0  0  0  0  0  0  0  0  0
    3.3170  -13.5557   16.4248 S   0  0  0  0  0  0  0  0  0  0  0  0
    1.9247  -14.5350   16.7096 C   0  0  0  0  0  0  0  0  0  0  0  0
   -4.6382  -19.0708   18.5793 C   0  0  0  0  0  0  0  0  0  0  0  0
   -4.7985  -20.3366   19.1408 C   0  0  0  0  0  0  0  0  0  0  0  0
   -5.8969  -20.2933   19.9615 N   0  0  0  0  0  0  0  0  0  0  0  0
   -6.4963  -21.3053   20.7096 C   0  0  0  0  0  0  0  0  0  0  0  0
   -7.5864  -21.0291   21.4356 C   0  0  0  0  0  0  0  0  0  0  0  0
   -8.0317  -19.6084   21.3600 C   0  0  0  0  0  0  0  0  0  0  0  0
   -7.4984  -18.6533   20.6559 N   0  0  0  0  0  0  0  0  0  0  0  0
   -6.3877  -18.9889   19.9207 C   0  0  0  0  0  0  0  0  0  0  0  0
   -5.6475  -18.2442   19.0960 N   0  0  0  0  0  0  0  0  0  0  0  0
   -4.3565  -16.8469   17.6226 H   0  0  0  0  0  0  0  0  0  0  0  0
   -3.2205  -15.5943   16.0315 H   0  0  0  0  0  0  0  0  0  0  0  0
   -2.6168  -17.1059   15.3474 H   0  0  0  0  0  0  0  0  0  0  0  0
   -0.4822  -16.7959   16.1147 H   0  0  0  0  0  0  0  0  0  0  0  0
   -1.3635  -15.5157   18.7311 H   0  0  0  0  0  0  0  0  0  0  0  0
   -1.5446  -17.2438   18.4837 H   0  0  0  0  0  0  0  0  0  0  0  0
    0.3038  -16.9359   19.3927 H   0  0  0  0  0  0  0  0  0  0  0  0
   -1.1121  -14.4755   15.2002 H   0  0  0  0  0  0  0  0  0  0  0  0
   -1.2561  -13.9067   16.8553 H   0  0  0  0  0  0  0  0  0  0  0  0
    0.3562  -12.2617   14.8476 H   0  0  0  0  0  0  0  0  0  0  0  0
    2.8909  -11.6026   15.0259 H   0  0  0  0  0  0  0  0  0  0  0  0
    2.0511  -15.4222   17.3126 H   0  0  0  0  0  0  0  0  0  0  0  0
   -4.2233  -21.2418   19.0077 H   0  0  0  0  0  0  0  0  0  0  0  0
   -6.0398  -22.2856   20.6723 H   0  0  0  0  0  0  0  0  0  0  0  0
   -8.1178  -21.7484   22.0395 H   0  0  0  0  0  0  0  0  0  0  0  0
   -8.9227  -19.3704   21.9631 H   0  0  0  0  0  0  0  0  0  0  0  0
  1  2  2  0
  2  3  1  0
  3  4  1  0
  4  5  1  0
  5  6  1  0
  6  7  1  0
  5  8  1  0
  8  9  1  0
  9 10  1  0
 10 11  2  0
 11 12  1  0
 12 13  1  0
  2 14  1  0
 14 15  2  0
 15 16  1  0
 16 17  1  0
 17 18  2  0
 18 19  1  0
 19 20  2  0
 20 21  1  0
 21 22  2  0
 13  9  2  0
 22 14  1  0
 21 16  1  0
  3 23  1  0
  4 24  1  0
  4 25  1  0
  5 26  1  0
  6 27  1  0
  6 28  1  0
  7 29  1  0
  8 30  1  0
  8 31  1  0
 10 32  1  0
 11 33  1  0
 13 34  1  0
 15 35  1  0
 17 36  1  0
 18 37  1  0
 19 38  1  0
M  END
>  <Energy>  (42) 
66.290738034592252

>  <compound_id>  (42) 
35515

>  <target_id>  (42) 
1

>  <reference_id>  (42) 
76

>  <inspiration_ids>  (42) 
[107, 76]

>  <energy_score>  (42) 
-34.43059808087571

>  <distance_score>  (42) 
14.128500693650528

>  <path>  (42) 
/opt/xchem-fragalysis-2/maxwin/BulkDock/SCRATCH/511013/C35515-P76/C35515-P76.minimised.mol

>  <scratch_subdir>  (42) 
/opt/xchem-fragalysis-2/maxwin/BulkDock/SCRATCH/511013/C35515-P76

>  <fragmenstein_runtime>  (42) 
21.254051446914673

>  <fragmenstein_outcome>  (42) 
too moved

>  <fragmenstein_mode>  (42) 
expansion

>  <fragmenstein_error>  (42) 


$$$$
C35516-P107
     RDKit          3D

 35 38  0  0  0  0  0  0  0  0999 V2000
   -2.8461  -14.9886   23.1218 O   0  0  0  0  0  0  0  0  0  0  0  0
   -1.7396  -15.2856   24.2936 C   0  0  0  0  0  0  0  0  0  0  0  0
   -0.8589  -14.4375   24.0262 N   0  0  0  0  0  0  0  0  0  0  0  0
   -0.3322  -13.0100   22.6516 C   0  0  0  0  0  0  0  0  0  0  0  0
   -1.4609  -12.3085   21.2239 C   0  0  0  0  0  0  0  0  0  0  0  0
   -1.8710  -11.0538   20.5669 C   0  0  0  0  0  0  0  0  0  0  0  0
   -1.1870   -9.8846   20.8379 C   0  0  0  0  0  0  0  0  0  0  0  0
   -1.1454   -8.8041   19.6929 C   0  0  0  0  0  0  0  0  0  0  0  0
    0.0669   -8.1119   19.2137 C   0  0  0  0  0  0  0  0  0  0  0  0
    0.0196   -7.5025   17.9818 C   0  0  0  0  0  0  0  0  0  0  0  0
   -1.5169   -7.7390   17.2937 S   0  0  0  0  0  0  0  0  0  0  0  0
   -2.0243   -8.7402   18.6187 C   0  0  0  0  0  0  0  0  0  0  0  0
   -0.0913  -10.1176   21.7809 C   0  0  0  0  0  0  0  0  0  0  0  0
    0.4191  -11.5021   22.6456 C   0  0  0  0  0  0  0  0  0  0  0  0
   -2.4779  -16.7127   25.5088 C   0  0  0  0  0  0  0  0  0  0  0  0
   -2.0981  -16.9717   27.1675 C   0  0  0  0  0  0  0  0  0  0  0  0
   -1.0109  -17.8129   27.4319 N   0  0  0  0  0  0  0  0  0  0  0  0
   -1.4812  -19.0787   27.7413 C   0  0  0  0  0  0  0  0  0  0  0  0
   -1.5247  -19.9005   28.7804 N   0  0  0  0  0  0  0  0  0  0  0  0
   -2.8490  -20.2156   28.9063 C   0  0  0  0  0  0  0  0  0  0  0  0
   -3.5316  -19.6521   27.8530 C   0  0  0  0  0  0  0  0  0  0  0  0
   -2.5162  -19.1952   26.9443 N   0  0  0  0  0  0  0  0  0  0  0  0
   -2.2391  -18.1026   25.7463 C   0  0  0  0  0  0  0  0  0  0  0  0
   -0.0022  -13.8989   24.1827 H   0  0  0  0  0  0  0  0  0  0  0  0
   -2.0201  -13.1182   20.7008 H   0  0  0  0  0  0  0  0  0  0  0  0
   -2.5956  -11.1275   19.7623 H   0  0  0  0  0  0  0  0  0  0  0  0
    0.9131   -8.0963   19.8519 H   0  0  0  0  0  0  0  0  0  0  0  0
    0.7935   -6.9401   17.4805 H   0  0  0  0  0  0  0  0  0  0  0  0
   -2.9609   -9.2457   18.5079 H   0  0  0  0  0  0  0  0  0  0  0  0
    0.5900   -9.2604   21.7851 H   0  0  0  0  0  0  0  0  0  0  0  0
    1.3801  -11.6576   23.1577 H   0  0  0  0  0  0  0  0  0  0  0  0
   -3.0263  -16.9078   27.7817 H   0  0  0  0  0  0  0  0  0  0  0  0
   -3.2339  -20.7647   29.7550 H   0  0  0  0  0  0  0  0  0  0  0  0
   -4.5822  -19.6223   27.6192 H   0  0  0  0  0  0  0  0  0  0  0  0
   -1.7886  -18.7751   25.1640 H   0  0  0  0  0  0  0  0  0  0  0  0
  1  2  2  0
  2  3  1  0
  3  4  1  0
  4  5  2  0
  5  6  1  0
  6  7  2  0
  7  8  1  0
  8  9  1  0
  9 10  2  0
 10 11  1  0
 11 12  1  0
  7 13  1  0
 13 14  2  0
  2 15  1  0
 15 16  1  0
 16 17  2  0
 17 18  1  0
 18 19  2  0
 19 20  1  0
 20 21  2  0
 21 22  1  0
 22 23  1  0
 14  4  1  0
 23 15  2  0
 12  8  2  0
 22 18  1  0
  3 24  1  0
  5 25  1  0
  6 26  1  0
  9 27  1  0
 10 28  1  0
 12 29  1  0
 13 30  1  0
 14 31  1  0
 16 32  1  0
 20 33  1  0
 21 34  1  0
 23 35  1  0
M  END
>  <Energy>  (43) 
881.33847702268997

>  <compound_id>  (43) 
35516

>  <target_id>  (43) 
1

>  <reference_id>  (43) 
107

>  <inspiration_ids>  (43) 
[107, 76]

>  <energy_score>  (43) 
816.3637969831871

>  <distance_score>  (43) 
13.655440337321911

>  <path>  (43) 
/opt/xchem-fragalysis-2/maxwin/BulkDock/SCRATCH/511013/C35516-P107/C35516-P107.minimised.mol

>  <scratch_subdir>  (43) 
/opt/xchem-fragalysis-2/maxwin/BulkDock/SCRATCH/511013/C35516-P107

>  <fragmenstein_runtime>  (43) 
20.090652465820312

>  <fragmenstein_outcome>  (43) 
too moved

>  <fragmenstein_mode>  (43) 
expansion

>  <fragmenstein_error>  (43) 


$$$$
C35516-P76
     RDKit          3D

 35 38  0  0  0  0  0  0  0  0999 V2000
    1.1655  -11.7059   23.5707 O   0  0  0  0  0  0  0  0  0  0  0  0
    2.0038  -12.2963   24.0825 C   0  0  0  0  0  0  0  0  0  0  0  0
    3.3089  -12.4096   23.6197 N   0  0  0  0  0  0  0  0  0  0  0  0
    4.1882  -11.5988   22.2095 C   0  0  0  0  0  0  0  0  0  0  0  0
    5.3869  -10.5029   22.6871 C   0  0  0  0  0  0  0  0  0  0  0  0
    6.7036   -9.9542   22.0788 C   0  0  0  0  0  0  0  0  0  0  0  0
    7.1161  -10.1876   20.7557 C   0  0  0  0  0  0  0  0  0  0  0  0
    7.7390   -8.8755   19.9191 C   0  0  0  0  0  0  0  0  0  0  0  0
    6.7744   -7.9233   19.3607 C   0  0  0  0  0  0  0  0  0  0  0  0
    7.1104   -6.5727   19.1136 C   0  0  0  0  0  0  0  0  0  0  0  0
    9.4230   -6.0064   19.2654 S   0  0  0  0  0  0  0  0  0  0  0  0
    9.1011   -8.2736   19.9245 C   0  0  0  0  0  0  0  0  0  0  0  0
    6.3098  -11.3041   20.2423 C   0  0  0  0  0  0  0  0  0  0  0  0
    4.9965  -12.0626   20.9203 C   0  0  0  0  0  0  0  0  0  0  0  0
    1.3583  -13.0053   25.8824 C   0  0  0  0  0  0  0  0  0  0  0  0
    0.0194  -12.4066   26.6990 C   0  0  0  0  0  0  0  0  0  0  0  0
   -0.7929  -12.6962   27.6774 N   0  0  0  0  0  0  0  0  0  0  0  0
   -0.2926  -13.5886   28.5313 C   0  0  0  0  0  0  0  0  0  0  0  0
   -0.7464  -14.0094   29.6913 N   0  0  0  0  0  0  0  0  0  0  0  0
    0.2955  -14.6938   30.2550 C   0  0  0  0  0  0  0  0  0  0  0  0
    1.3921  -14.6806   29.4221 C   0  0  0  0  0  0  0  0  0  0  0  0
    1.0135  -13.9533   28.3121 N   0  0  0  0  0  0  0  0  0  0  0  0
    1.7512  -13.5998   27.1319 C   0  0  0  0  0  0  0  0  0  0  0  0
    3.7776  -13.0349   24.2056 H   0  0  0  0  0  0  0  0  0  0  0  0
    5.2714   -9.9121   23.5820 H   0  0  0  0  0  0  0  0  0  0  0  0
    7.1464   -9.1410   22.6505 H   0  0  0  0  0  0  0  0  0  0  0  0
    5.7665   -8.2467   19.1717 H   0  0  0  0  0  0  0  0  0  0  0  0
    6.4800   -5.7081   18.9002 H   0  0  0  0  0  0  0  0  0  0  0  0
    9.9980   -8.6468   20.3974 H   0  0  0  0  0  0  0  0  0  0  0  0
    6.4947  -11.6320   19.2124 H   0  0  0  0  0  0  0  0  0  0  0  0
    4.6129  -12.8926   20.3362 H   0  0  0  0  0  0  0  0  0  0  0  0
   -0.1054  -11.3710   26.5403 H   0  0  0  0  0  0  0  0  0  0  0  0
    0.2014  -15.1611   31.2269 H   0  0  0  0  0  0  0  0  0  0  0  0
    2.3779  -15.1107   29.5156 H   0  0  0  0  0  0  0  0  0  0  0  0
    2.7871  -13.8929   27.3099 H   0  0  0  0  0  0  0  0  0  0  0  0
  1  2  2  0
  2  3  1  0
  3  4  1  0
  4  5  2  0
  5  6  1  0
  6  7  2  0
  7  8  1  0
  8  9  1  0
  9 10  2  0
 10 11  1  0
 11 12  1  0
  7 13  1  0
 13 14  2  0
  2 15  1  0
 15 16  1  0
 16 17  2  0
 17 18  1  0
 18 19  2  0
 19 20  1  0
 20 21  2  0
 21 22  1  0
 22 23  1  0
 14  4  1  0
 23 15  2  0
 12  8  2  0
 22 18  1  0
  3 24  1  0
  5 25  1  0
  6 26  1  0
  9 27  1  0
 10 28  1  0
 12 29  1  0
 13 30  1  0
 14 31  1  0
 16 32  1  0
 20 33  1  0
 21 34  1  0
 23 35  1  0
M  END
>  <Energy>  (44) 
561.67469038386787

>  <compound_id>  (44) 
35516

>  <target_id>  (44) 
1

>  <reference_id>  (44) 
76

>  <inspiration_ids>  (44) 
[107, 76]

>  <energy_score>  (44) 
496.70001034435336

>  <distance_score>  (44) 
13.89644735813576

>  <path>  (44) 
/opt/xchem-fragalysis-2/maxwin/BulkDock/SCRATCH/511013/C35516-P76/C35516-P76.minimised.mol

>  <scratch_subdir>  (44) 
/opt/xchem-fragalysis-2/maxwin/BulkDock/SCRATCH/511013/C35516-P76

>  <fragmenstein_runtime>  (44) 
14.587595224380493

>  <fragmenstein_outcome>  (44) 
too moved

>  <fragmenstein_mode>  (44) 
expansion

>  <fragmenstein_error>  (44) 


$$$$
C35517-P107
     RDKit          3D

 36 39  0  0  0  0  0  0  0  0999 V2000
  -11.5190  -22.1438   29.6529 C   0  0  0  0  0  0  0  0  0  0  0  0
  -11.2996  -22.2117   28.2141 C   0  0  0  0  0  0  0  0  0  0  0  0
  -10.5367  -21.4308   27.5238 N   0  0  0  0  0  0  0  0  0  0  0  0
   -9.6616  -20.4501   28.1140 C   0  0  0  0  0  0  0  0  0  0  0  0
   -8.7385  -18.9388   28.0876 N   0  0  0  0  0  0  0  0  0  0  0  0
   -9.1129  -17.1783   27.7797 C   0  0  0  0  0  0  0  0  0  0  0  0
   -8.4273  -15.4922   26.6249 C   0  0  0  0  0  0  0  0  0  0  0  0
   -7.0700  -14.0581   25.8387 N   0  0  0  0  0  0  0  0  0  0  0  0
   -6.2308  -12.6570   24.6664 C   0  0  0  0  0  0  0  0  0  0  0  0
   -4.6393  -11.8912   24.4105 C   0  0  0  0  0  0  0  0  0  0  0  0
   -3.8435  -10.5216   23.3385 C   0  0  0  0  0  0  0  0  0  0  0  0
   -4.4502  -10.2504   21.8025 C   0  0  0  0  0  0  0  0  0  0  0  0
   -3.7971   -9.5257   20.6926 C   0  0  0  0  0  0  0  0  0  0  0  0
   -4.4254   -8.6364   19.7549 C   0  0  0  0  0  0  0  0  0  0  0  0
   -3.6186   -8.2710   18.6988 C   0  0  0  0  0  0  0  0  0  0  0  0
   -2.1212   -9.0588   18.7650 S   0  0  0  0  0  0  0  0  0  0  0  0
   -2.4853   -9.7479   20.3085 C   0  0  0  0  0  0  0  0  0  0  0  0
   -5.8423  -11.1321   21.6764 C   0  0  0  0  0  0  0  0  0  0  0  0
   -6.5631  -12.0904   23.0184 C   0  0  0  0  0  0  0  0  0  0  0  0
  -10.3795  -17.9437   28.8613 C   0  0  0  0  0  0  0  0  0  0  0  0
  -10.4802  -19.9498   29.3189 N   0  0  0  0  0  0  0  0  0  0  0  0
  -11.1481  -20.9652   30.1549 C   0  0  0  0  0  0  0  0  0  0  0  0
  -11.9944  -22.9439   30.2012 H   0  0  0  0  0  0  0  0  0  0  0  0
  -11.8842  -22.9804   27.6822 H   0  0  0  0  0  0  0  0  0  0  0  0
   -8.9523  -15.7201   25.6883 H   0  0  0  0  0  0  0  0  0  0  0  0
   -9.0246  -14.7558   27.1839 H   0  0  0  0  0  0  0  0  0  0  0  0
   -6.8531  -13.5037   26.6934 H   0  0  0  0  0  0  0  0  0  0  0  0
   -3.7600  -12.2043   25.0236 H   0  0  0  0  0  0  0  0  0  0  0  0
   -3.1157   -9.7770   23.6823 H   0  0  0  0  0  0  0  0  0  0  0  0
   -5.4504   -8.2995   19.8417 H   0  0  0  0  0  0  0  0  0  0  0  0
   -3.8655   -7.6214   17.8713 H   0  0  0  0  0  0  0  0  0  0  0  0
   -1.7410  -10.3674   20.7855 H   0  0  0  0  0  0  0  0  0  0  0  0
   -6.4118  -11.0669   20.7476 H   0  0  0  0  0  0  0  0  0  0  0  0
   -7.5656  -12.1571   22.5970 H   0  0  0  0  0  0  0  0  0  0  0  0
  -11.3587  -17.4921   29.0387 H   0  0  0  0  0  0  0  0  0  0  0  0
  -11.2758  -20.7772   31.2150 H   0  0  0  0  0  0  0  0  0  0  0  0
  1  2  1  0
  2  3  2  0
  3  4  1  0
  4  5  2  0
  5  6  1  0
  6  7  1  0
  7  8  1  0
  8  9  1  0
  9 10  2  0
 10 11  1  0
 11 12  2  0
 12 13  1  0
 13 14  1  0
 14 15  2  0
 15 16  1  0
 16 17  1  0
 12 18  1  0
 18 19  2  0
  6 20  2  0
 20 21  1  0
 21 22  1  0
 22  1  2  0
 21  4  1  0
 19  9  1  0
 17 13  2  0
  1 23  1  0
  2 24  1  0
  7 25  1  0
  7 26  1  0
  8 27  1  0
 10 28  1  0
 11 29  1  0
 14 30  1  0
 15 31  1  0
 17 32  1  0
 18 33  1  0
 19 34  1  0
 20 35  1  0
 22 36  1  0
M  END
>  <Energy>  (45) 
1409.96331266894

>  <compound_id>  (45) 
35517

>  <target_id>  (45) 
1

>  <reference_id>  (45) 
107

>  <inspiration_ids>  (45) 
[107, 76]

>  <energy_score>  (45) 
1312.4562858206573

>  <distance_score>  (45) 
12.20274333935656

>  <path>  (45) 
/opt/xchem-fragalysis-2/maxwin/BulkDock/SCRATCH/511013/C35517-P107/C35517-P107.minimised.mol

>  <scratch_subdir>  (45) 
/opt/xchem-fragalysis-2/maxwin/BulkDock/SCRATCH/511013/C35517-P107

>  <fragmenstein_runtime>  (45) 
16.726784706115723

>  <fragmenstein_outcome>  (45) 
too moved

>  <fragmenstein_mode>  (45) 
expansion

>  <fragmenstein_error>  (45) 


$$$$
C35517-P76
     RDKit          3D

 36 39  0  0  0  0  0  0  0  0999 V2000
   -2.5502  -12.0313   28.5441 C   0  0  0  0  0  0  0  0  0  0  0  0
   -1.3352  -12.6346   28.0306 C   0  0  0  0  0  0  0  0  0  0  0  0
   -1.2024  -12.9652   26.7985 N   0  0  0  0  0  0  0  0  0  0  0  0
   -2.2007  -12.5931   25.9565 C   0  0  0  0  0  0  0  0  0  0  0  0
   -2.4353  -11.4382   25.3623 N   0  0  0  0  0  0  0  0  0  0  0  0
   -3.6292  -11.1507   24.0941 C   0  0  0  0  0  0  0  0  0  0  0  0
   -3.4668   -9.7941   22.7570 C   0  0  0  0  0  0  0  0  0  0  0  0
   -3.1207  -10.2259   21.3311 N   0  0  0  0  0  0  0  0  0  0  0  0
   -2.2498   -9.4678   20.5366 C   0  0  0  0  0  0  0  0  0  0  0  0
   -2.4066   -9.2465   19.1406 C   0  0  0  0  0  0  0  0  0  0  0  0
   -1.4053   -8.5802   18.3112 C   0  0  0  0  0  0  0  0  0  0  0  0
   -0.1799   -8.1395   18.8585 C   0  0  0  0  0  0  0  0  0  0  0  0
    0.9484   -7.5315   18.0696 C   0  0  0  0  0  0  0  0  0  0  0  0
    1.7591   -8.1757   17.0666 C   0  0  0  0  0  0  0  0  0  0  0  0
    2.7998   -7.4001   16.5912 C   0  0  0  0  0  0  0  0  0  0  0  0
    2.8171   -5.8549   17.3108 S   0  0  0  0  0  0  0  0  0  0  0  0
    1.4516   -6.2534   18.2837 C   0  0  0  0  0  0  0  0  0  0  0  0
   -0.0692   -8.4214   20.2643 C   0  0  0  0  0  0  0  0  0  0  0  0
   -1.0557   -9.0351   21.0680 C   0  0  0  0  0  0  0  0  0  0  0  0
   -4.2640  -12.1398   24.6943 C   0  0  0  0  0  0  0  0  0  0  0  0
   -3.4353  -12.3605   26.2562 N   0  0  0  0  0  0  0  0  0  0  0  0
   -3.5518  -12.0489   27.6282 C   0  0  0  0  0  0  0  0  0  0  0  0
   -2.6821  -11.8495   29.5932 H   0  0  0  0  0  0  0  0  0  0  0  0
   -0.5438  -12.8584   28.7623 H   0  0  0  0  0  0  0  0  0  0  0  0
   -2.6085   -9.2346   23.1515 H   0  0  0  0  0  0  0  0  0  0  0  0
   -4.1257   -8.9693   22.6080 H   0  0  0  0  0  0  0  0  0  0  0  0
   -3.9883  -10.4661   20.8641 H   0  0  0  0  0  0  0  0  0  0  0  0
   -3.3044   -9.6100   18.6475 H   0  0  0  0  0  0  0  0  0  0  0  0
   -1.5989   -8.4617   17.2498 H   0  0  0  0  0  0  0  0  0  0  0  0
    1.6050   -9.1914   16.7356 H   0  0  0  0  0  0  0  0  0  0  0  0
    3.5461   -7.6767   15.8595 H   0  0  0  0  0  0  0  0  0  0  0  0
    1.1084   -5.5042   18.9794 H   0  0  0  0  0  0  0  0  0  0  0  0
    0.7681   -8.1444   20.8662 H   0  0  0  0  0  0  0  0  0  0  0  0
   -0.7850   -9.2188   22.0969 H   0  0  0  0  0  0  0  0  0  0  0  0
   -5.3402  -12.3360   24.5376 H   0  0  0  0  0  0  0  0  0  0  0  0
   -4.5644  -11.9364   27.9247 H   0  0  0  0  0  0  0  0  0  0  0  0
  1  2  1  0
  2  3  2  0
  3  4  1  0
  4  5  2  0
  5  6  1  0
  6  7  1  0
  7  8  1  0
  8  9  1  0
  9 10  2  0
 10 11  1  0
 11 12  2  0
 12 13  1  0
 13 14  1  0
 14 15  2  0
 15 16  1  0
 16 17  1  0
 12 18  1  0
 18 19  2  0
  6 20  2  0
 20 21  1  0
 21 22  1  0
 22  1  2  0
 21  4  1  0
 19  9  1  0
 17 13  2  0
  1 23  1  0
  2 24  1  0
  7 25  1  0
  7 26  1  0
  8 27  1  0
 10 28  1  0
 11 29  1  0
 14 30  1  0
 15 31  1  0
 17 32  1  0
 18 33  1  0
 19 34  1  0
 20 35  1  0
 22 36  1  0
M  END
>  <Energy>  (46) 
338.63545302446681

>  <compound_id>  (46) 
35517

>  <target_id>  (46) 
1

>  <reference_id>  (46) 
76

>  <inspiration_ids>  (46) 
[107, 76]

>  <energy_score>  (46) 
241.12842617617764

>  <distance_score>  (46) 
14.515440315447592

>  <path>  (46) 
/opt/xchem-fragalysis-2/maxwin/BulkDock/SCRATCH/511013/C35517-P76/C35517-P76.minimised.mol

>  <scratch_subdir>  (46) 
/opt/xchem-fragalysis-2/maxwin/BulkDock/SCRATCH/511013/C35517-P76

>  <fragmenstein_runtime>  (46) 
15.54318356513977

>  <fragmenstein_outcome>  (46) 
too moved

>  <fragmenstein_mode>  (46) 
expansion

>  <fragmenstein_error>  (46) 


$$$$
C35518-P107
     RDKit          3D

 40 42  0  0  0  0  0  0  0  0999 V2000
   -2.2878  -17.7920   25.4158 O   0  0  0  0  0  0  0  0  0  0  0  0
   -2.6592  -16.9296   26.1070 C   0  0  0  0  0  0  0  0  0  0  0  0
   -2.0783  -15.1729   25.8372 N   0  0  0  0  0  0  0  0  0  0  0  0
   -1.0347  -14.4617   24.5129 C   0  0  0  0  0  0  0  0  0  0  0  0
    0.7588  -14.0973   24.1583 C   0  0  0  0  0  0  0  0  0  0  0  0
    2.7228  -12.9459   23.6983 S   0  0  0  0  0  0  0  0  0  0  0  0
    3.7498  -12.6746   21.6555 C   0  0  0  0  0  0  0  0  0  0  0  0
    5.2292  -12.8184   20.5209 C   0  0  0  0  0  0  0  0  0  0  0  0
    6.5461  -12.0124   20.3362 C   0  0  0  0  0  0  0  0  0  0  0  0
    7.5314  -11.5757   21.3020 C   0  0  0  0  0  0  0  0  0  0  0  0
    8.6219  -10.9430   20.7383 C   0  0  0  0  0  0  0  0  0  0  0  0
    8.5431  -10.9505   19.0425 S   0  0  0  0  0  0  0  0  0  0  0  0
    7.0328  -11.7310   19.0574 C   0  0  0  0  0  0  0  0  0  0  0  0
   -3.8353  -17.0008   27.2647 N   0  0  0  0  0  0  0  0  0  0  0  0
   -4.9791  -18.2795   27.6752 C   0  0  0  0  0  0  0  0  0  0  0  0
   -6.1992  -17.2285   29.0390 C   0  0  0  0  0  0  0  0  0  0  0  0
   -7.7355  -17.7029   28.7275 N   0  0  0  0  0  0  0  0  0  0  0  0
   -8.2353  -19.3472   28.2407 C   0  0  0  0  0  0  0  0  0  0  0  0
   -9.3847  -20.5758   27.8458 N   0  0  0  0  0  0  0  0  0  0  0  0
   -8.5787  -22.2416   28.0110 C   0  0  0  0  0  0  0  0  0  0  0  0
   -7.3237  -21.9882   27.5121 C   0  0  0  0  0  0  0  0  0  0  0  0
   -7.0655  -20.3717   27.3629 N   0  0  0  0  0  0  0  0  0  0  0  0
   -5.5499  -19.6173   26.8570 C   0  0  0  0  0  0  0  0  0  0  0  0
   -2.4318  -14.5956   26.5699 H   0  0  0  0  0  0  0  0  0  0  0  0
   -1.2728  -14.7238   23.4584 H   0  0  0  0  0  0  0  0  0  0  0  0
   -1.1539  -15.5010   24.3468 H   0  0  0  0  0  0  0  0  0  0  0  0
    0.9947  -13.8045   25.2486 H   0  0  0  0  0  0  0  0  0  0  0  0
    1.2795  -14.7011   23.4421 H   0  0  0  0  0  0  0  0  0  0  0  0
    3.1651  -13.3080   21.0518 H   0  0  0  0  0  0  0  0  0  0  0  0
    3.9212  -11.6573   21.9644 H   0  0  0  0  0  0  0  0  0  0  0  0
    4.7617  -12.8454   19.5272 H   0  0  0  0  0  0  0  0  0  0  0  0
    5.6885  -13.7998   20.6485 H   0  0  0  0  0  0  0  0  0  0  0  0
    7.4466  -11.6866   22.3743 H   0  0  0  0  0  0  0  0  0  0  0  0
    9.4680  -10.5052   21.2481 H   0  0  0  0  0  0  0  0  0  0  0  0
    6.5473  -11.9614   18.1174 H   0  0  0  0  0  0  0  0  0  0  0  0
   -3.8688  -16.1533   27.7537 H   0  0  0  0  0  0  0  0  0  0  0  0
   -5.9552  -16.2124   29.3732 H   0  0  0  0  0  0  0  0  0  0  0  0
   -9.2726  -23.0761   28.1457 H   0  0  0  0  0  0  0  0  0  0  0  0
   -6.4517  -22.5722   27.2370 H   0  0  0  0  0  0  0  0  0  0  0  0
   -5.0229  -20.1507   26.0665 H   0  0  0  0  0  0  0  0  0  0  0  0
  1  2  2  0
  2  3  1  0
  3  4  1  0
  4  5  1  0
  5  6  1  0
  6  7  1  0
  7  8  1  0
  8  9  1  0
  9 10  1  0
 10 11  2  0
 11 12  1  0
 12 13  1  0
  2 14  1  0
 14 15  1  0
 15 16  1  0
 16 17  2  0
 17 18  1  0
 18 19  2  0
 19 20  1  0
 20 21  2  0
 21 22  1  0
 22 23  1  0
 13  9  2  0
 23 15  2  0
 22 18  1  0
  3 24  1  0
  4 25  1  0
  4 26  1  0
  5 27  1  0
  5 28  1  0
  7 29  1  0
  7 30  1  0
  8 31  1  0
  8 32  1  0
 10 33  1  0
 11 34  1  0
 13 35  1  0
 14 36  1  0
 16 37  1  0
 20 38  1  0
 21 39  1  0
 23 40  1  0
M  END
>  <Energy>  (47) 
1023.6124667273263

>  <compound_id>  (47) 
35518

>  <target_id>  (47) 
1

>  <reference_id>  (47) 
107

>  <inspiration_ids>  (47) 
[107, 76]

>  <energy_score>  (47) 
973.247373230132

>  <distance_score>  (47) 
9.667891495633706

>  <path>  (47) 
/opt/xchem-fragalysis-2/maxwin/BulkDock/SCRATCH/511013/C35518-P107/C35518-P107.minimised.mol

>  <scratch_subdir>  (47) 
/opt/xchem-fragalysis-2/maxwin/BulkDock/SCRATCH/511013/C35518-P107

>  <fragmenstein_runtime>  (47) 
26.554535150527954

>  <fragmenstein_outcome>  (47) 
too moved

>  <fragmenstein_mode>  (47) 
expansion

>  <fragmenstein_error>  (47) 


$$$$
C35518-P76
     RDKit          3D

 40 42  0  0  0  0  0  0  0  0999 V2000
   -2.4718  -17.4437   25.2222 O   0  0  0  0  0  0  0  0  0  0  0  0
   -2.7172  -16.5968   25.9488 C   0  0  0  0  0  0  0  0  0  0  0  0
   -2.0245  -14.8244   25.5840 N   0  0  0  0  0  0  0  0  0  0  0  0
   -0.8379  -14.1332   24.0851 C   0  0  0  0  0  0  0  0  0  0  0  0
   -0.3480  -12.5253   22.7281 C   0  0  0  0  0  0  0  0  0  0  0  0
   -0.9931  -10.4136   21.7138 S   0  0  0  0  0  0  0  0  0  0  0  0
    0.3872   -9.0172   20.8870 C   0  0  0  0  0  0  0  0  0  0  0  0
    0.7156   -8.2928   19.2088 C   0  0  0  0  0  0  0  0  0  0  0  0
    1.5292   -8.4264   17.6428 C   0  0  0  0  0  0  0  0  0  0  0  0
    2.9326   -8.6600   17.3051 C   0  0  0  0  0  0  0  0  0  0  0  0
    3.2986   -8.4094   15.9982 C   0  0  0  0  0  0  0  0  0  0  0  0
    1.9729   -7.9009   15.0782 S   0  0  0  0  0  0  0  0  0  0  0  0
    0.9119   -8.1002   16.4207 C   0  0  0  0  0  0  0  0  0  0  0  0
   -3.9103  -16.8190   27.3198 N   0  0  0  0  0  0  0  0  0  0  0  0
   -5.0261  -18.1680   27.7167 C   0  0  0  0  0  0  0  0  0  0  0  0
   -6.2709  -17.1715   29.1125 C   0  0  0  0  0  0  0  0  0  0  0  0
   -7.8233  -17.6390   28.7801 N   0  0  0  0  0  0  0  0  0  0  0  0
   -8.3187  -19.2809   28.2542 C   0  0  0  0  0  0  0  0  0  0  0  0
   -9.3721  -20.5671   27.7929 N   0  0  0  0  0  0  0  0  0  0  0  0
   -8.5519  -22.1754   27.9708 C   0  0  0  0  0  0  0  0  0  0  0  0
   -7.2985  -21.9169   27.5752 C   0  0  0  0  0  0  0  0  0  0  0  0
   -7.1022  -20.2829   27.4051 N   0  0  0  0  0  0  0  0  0  0  0  0
   -5.6149  -19.5138   26.9104 C   0  0  0  0  0  0  0  0  0  0  0  0
   -2.2565  -14.2102   26.3570 H   0  0  0  0  0  0  0  0  0  0  0  0
    0.1680  -14.2842   24.4425 H   0  0  0  0  0  0  0  0  0  0  0  0
   -1.1964  -14.8368   23.3526 H   0  0  0  0  0  0  0  0  0  0  0  0
   -1.2349  -12.2774   21.6983 H   0  0  0  0  0  0  0  0  0  0  0  0
    0.5384  -11.8119   22.9399 H   0  0  0  0  0  0  0  0  0  0  0  0
    1.3196   -9.2663   21.3428 H   0  0  0  0  0  0  0  0  0  0  0  0
    0.0470   -8.1503   21.4562 H   0  0  0  0  0  0  0  0  0  0  0  0
   -0.2954   -8.4281   18.8035 H   0  0  0  0  0  0  0  0  0  0  0  0
    1.5187   -9.0258   19.2902 H   0  0  0  0  0  0  0  0  0  0  0  0
    3.7147   -8.9639   17.9653 H   0  0  0  0  0  0  0  0  0  0  0  0
    4.2850   -8.4999   15.5628 H   0  0  0  0  0  0  0  0  0  0  0  0
   -0.1347   -7.8753   16.2648 H   0  0  0  0  0  0  0  0  0  0  0  0
   -3.9138  -16.0109   27.8869 H   0  0  0  0  0  0  0  0  0  0  0  0
   -6.0515  -16.1552   29.4688 H   0  0  0  0  0  0  0  0  0  0  0  0
   -9.2231  -23.0232   28.1275 H   0  0  0  0  0  0  0  0  0  0  0  0
   -6.3806  -22.4621   27.3723 H   0  0  0  0  0  0  0  0  0  0  0  0
   -5.0966  -20.0762   26.1341 H   0  0  0  0  0  0  0  0  0  0  0  0
  1  2  2  0
  2  3  1  0
  3  4  1  0
  4  5  1  0
  5  6  1  0
  6  7  1  0
  7  8  1  0
  8  9  1  0
  9 10  1  0
 10 11  2  0
 11 12  1  0
 12 13  1  0
  2 14  1  0
 14 15  1  0
 15 16  1  0
 16 17  2  0
 17 18  1  0
 18 19  2  0
 19 20  1  0
 20 21  2  0
 21 22  1  0
 22 23  1  0
 13  9  2  0
 23 15  2  0
 22 18  1  0
  3 24  1  0
  4 25  1  0
  4 26  1  0
  5 27  1  0
  5 28  1  0
  7 29  1  0
  7 30  1  0
  8 31  1  0
  8 32  1  0
 10 33  1  0
 11 34  1  0
 13 35  1  0
 14 36  1  0
 16 37  1  0
 20 38  1  0
 21 39  1  0
 23 40  1  0
M  END
>  <Energy>  (48) 
1285.4569786070949

>  <compound_id>  (48) 
35518

>  <target_id>  (48) 
1

>  <reference_id>  (48) 
76

>  <inspiration_ids>  (48) 
[107, 76]

>  <energy_score>  (48) 
1235.0918851099182

>  <distance_score>  (48) 
10.277098035566821

>  <path>  (48) 
/opt/xchem-fragalysis-2/maxwin/BulkDock/SCRATCH/511013/C35518-P76/C35518-P76.minimised.mol

>  <scratch_subdir>  (48) 
/opt/xchem-fragalysis-2/maxwin/BulkDock/SCRATCH/511013/C35518-P76

>  <fragmenstein_runtime>  (48) 
16.648767471313477

>  <fragmenstein_outcome>  (48) 
too moved

>  <fragmenstein_mode>  (48) 
expansion

>  <fragmenstein_error>  (48) 


$$$$
C35519-P107
     RDKit          3D

 38 40  0  0  0  0  0  0  0  0999 V2000
    4.8856  -17.8509   22.5591 C   0  0  0  0  0  0  0  0  0  0  0  0
    3.8077  -17.4431   21.5921 N   0  0  0  0  0  0  0  0  0  0  0  0
    3.1213  -18.7419   22.1616 C   0  0  0  0  0  0  0  0  0  0  0  0
    1.7424  -19.0805   21.4826 C   0  0  0  0  0  0  0  0  0  0  0  0
    0.7265  -19.6458   22.4020 N   0  0  0  0  0  0  0  0  0  0  0  0
    0.5461  -20.9832   22.9045 C   0  0  0  0  0  0  0  0  0  0  0  0
    1.2176  -21.9637   22.7700 O   0  0  0  0  0  0  0  0  0  0  0  0
   -0.6918  -21.1049   23.7809 C   0  0  0  0  0  0  0  0  0  0  0  0
   -1.2428  -22.2859   24.2684 C   0  0  0  0  0  0  0  0  0  0  0  0
   -2.2880  -21.9382   25.0846 N   0  0  0  0  0  0  0  0  0  0  0  0
   -3.1415  -22.7323   25.8402 C   0  0  0  0  0  0  0  0  0  0  0  0
   -4.0508  -22.1445   26.6272 C   0  0  0  0  0  0  0  0  0  0  0  0
   -4.0350  -20.6539   26.6010 C   0  0  0  0  0  0  0  0  0  0  0  0
   -3.2848  -19.8993   25.8567 N   0  0  0  0  0  0  0  0  0  0  0  0
   -2.3683  -20.5490   25.0789 C   0  0  0  0  0  0  0  0  0  0  0  0
   -1.4393  -20.0367   24.2839 N   0  0  0  0  0  0  0  0  0  0  0  0
    4.3796  -17.1725   20.2992 C   0  0  0  0  0  0  0  0  0  0  0  0
    4.5570  -17.8991   19.3580 O   0  0  0  0  0  0  0  0  0  0  0  0
    4.9244  -15.7578   20.1771 C   0  0  0  0  0  0  0  0  0  0  0  0
    4.7376  -14.6135   21.0403 C   0  0  0  0  0  0  0  0  0  0  0  0
    5.4463  -13.4904   20.6520 C   0  0  0  0  0  0  0  0  0  0  0  0
    6.3299  -13.7558   19.2195 S   0  0  0  0  0  0  0  0  0  0  0  0
    5.7714  -15.3766   19.1341 C   0  0  0  0  0  0  0  0  0  0  0  0
    5.4437  -18.7497   22.2566 H   0  0  0  0  0  0  0  0  0  0  0  0
    4.5969  -17.8319   23.6192 H   0  0  0  0  0  0  0  0  0  0  0  0
    5.6496  -17.0616   22.5030 H   0  0  0  0  0  0  0  0  0  0  0  0
    3.7237  -19.6447   21.9727 H   0  0  0  0  0  0  0  0  0  0  0  0
    2.8893  -18.6182   23.2301 H   0  0  0  0  0  0  0  0  0  0  0  0
    1.9000  -19.8062   20.6777 H   0  0  0  0  0  0  0  0  0  0  0  0
    1.3010  -18.1777   21.0484 H   0  0  0  0  0  0  0  0  0  0  0  0
   -0.0857  -19.0892   22.6451 H   0  0  0  0  0  0  0  0  0  0  0  0
   -0.9480  -23.3150   24.1173 H   0  0  0  0  0  0  0  0  0  0  0  0
   -3.0265  -23.8053   25.7583 H   0  0  0  0  0  0  0  0  0  0  0  0
   -4.7673  -22.6705   27.2339 H   0  0  0  0  0  0  0  0  0  0  0  0
   -4.7510  -20.1630   27.2783 H   0  0  0  0  0  0  0  0  0  0  0  0
    4.1013  -14.6264   21.9187 H   0  0  0  0  0  0  0  0  0  0  0  0
    5.4741  -12.5299   21.1460 H   0  0  0  0  0  0  0  0  0  0  0  0
    6.1018  -16.0020   18.3146 H   0  0  0  0  0  0  0  0  0  0  0  0
  1  2  1  0
  2  3  1  0
  3  4  1  0
  4  5  1  0
  5  6  1  0
  6  7  2  0
  6  8  1  0
  8  9  2  0
  9 10  1  0
 10 11  1  0
 11 12  2  0
 12 13  1  0
 13 14  2  0
 14 15  1  0
 15 16  2  0
  2 17  1  0
 17 18  2  0
 17 19  1  0
 19 20  1  0
 20 21  2  0
 21 22  1  0
 22 23  1  0
 16  8  1  0
 23 19  2  0
 15 10  1  0
  1 24  1  0
  1 25  1  0
  1 26  1  0
  3 27  1  0
  3 28  1  0
  4 29  1  0
  4 30  1  0
  5 31  1  0
  9 32  1  0
 11 33  1  0
 12 34  1  0
 13 35  1  0
 20 36  1  0
 21 37  1  0
 23 38  1  0
M  END
>  <Energy>  (49) 
111.31555439060575

>  <compound_id>  (49) 
35519

>  <target_id>  (49) 
1

>  <reference_id>  (49) 
107

>  <inspiration_ids>  (49) 
[107, 76]

>  <energy_score>  (49) 
27.296154225531012

>  <distance_score>  (49) 
16.98943869220385

>  <path>  (49) 
/opt/xchem-fragalysis-2/maxwin/BulkDock/SCRATCH/511013/C35519-P107/C35519-P107.minimised.mol

>  <scratch_subdir>  (49) 
/opt/xchem-fragalysis-2/maxwin/BulkDock/SCRATCH/511013/C35519-P107

>  <fragmenstein_runtime>  (49) 
28.56293821334839

>  <fragmenstein_outcome>  (49) 
too moved

>  <fragmenstein_mode>  (49) 
expansion

>  <fragmenstein_error>  (49) 


$$$$
C35519-P76
     RDKit          3D

 38 40  0  0  0  0  0  0  0  0999 V2000
    5.0943  -14.9852   25.7713 C   0  0  0  0  0  0  0  0  0  0  0  0
    6.1325  -14.8567   26.7977 N   0  0  0  0  0  0  0  0  0  0  0  0
    5.0166  -15.5980   27.6928 C   0  0  0  0  0  0  0  0  0  0  0  0
    4.5848  -17.1339   27.6014 C   0  0  0  0  0  0  0  0  0  0  0  0
    3.1592  -17.5033   27.9225 N   0  0  0  0  0  0  0  0  0  0  0  0
    2.4626  -17.5900   29.1890 C   0  0  0  0  0  0  0  0  0  0  0  0
    2.8223  -17.3128   30.2967 O   0  0  0  0  0  0  0  0  0  0  0  0
    1.0318  -18.1608   29.0767 C   0  0  0  0  0  0  0  0  0  0  0  0
    0.1818  -18.3974   30.1584 C   0  0  0  0  0  0  0  0  0  0  0  0
   -0.9990  -18.8910   29.6613 N   0  0  0  0  0  0  0  0  0  0  0  0
   -2.1675  -19.2633   30.3205 C   0  0  0  0  0  0  0  0  0  0  0  0
   -3.2194  -19.6923   29.6105 C   0  0  0  0  0  0  0  0  0  0  0  0
   -3.0022  -19.7345   28.1385 C   0  0  0  0  0  0  0  0  0  0  0  0
   -1.9167  -19.3957   27.5034 N   0  0  0  0  0  0  0  0  0  0  0  0
   -0.8670  -18.9556   28.2764 C   0  0  0  0  0  0  0  0  0  0  0  0
    0.3472  -18.5423   27.9135 N   0  0  0  0  0  0  0  0  0  0  0  0
    6.6232  -13.4927   26.8402 C   0  0  0  0  0  0  0  0  0  0  0  0
    6.2564  -12.5519   27.4948 O   0  0  0  0  0  0  0  0  0  0  0  0
    7.7002  -13.1576   25.8308 C   0  0  0  0  0  0  0  0  0  0  0  0
    8.0917  -11.7812   25.5110 C   0  0  0  0  0  0  0  0  0  0  0  0
    8.9825  -11.6686   24.4655 C   0  0  0  0  0  0  0  0  0  0  0  0
    9.3971  -13.2009   23.8456 S   0  0  0  0  0  0  0  0  0  0  0  0
    8.3838  -14.0104   24.9821 C   0  0  0  0  0  0  0  0  0  0  0  0
    4.9510  -16.0081   25.4209 H   0  0  0  0  0  0  0  0  0  0  0  0
    5.4945  -14.5030   24.8660 H   0  0  0  0  0  0  0  0  0  0  0  0
    4.2065  -14.3895   25.9604 H   0  0  0  0  0  0  0  0  0  0  0  0
    5.5089  -15.5310   28.6767 H   0  0  0  0  0  0  0  0  0  0  0  0
    4.1519  -14.9355   27.8643 H   0  0  0  0  0  0  0  0  0  0  0  0
    5.1966  -17.6869   28.3243 H   0  0  0  0  0  0  0  0  0  0  0  0
    4.7912  -17.5696   26.6214 H   0  0  0  0  0  0  0  0  0  0  0  0
    2.5164  -17.7462   27.1741 H   0  0  0  0  0  0  0  0  0  0  0  0
    0.3350  -18.2415   31.2171 H   0  0  0  0  0  0  0  0  0  0  0  0
   -2.1831  -19.1685   31.3991 H   0  0  0  0  0  0  0  0  0  0  0  0
   -4.1696  -19.9675   30.0408 H   0  0  0  0  0  0  0  0  0  0  0  0
   -3.8655  -20.0912   27.5524 H   0  0  0  0  0  0  0  0  0  0  0  0
    7.6897  -10.9226   26.0367 H   0  0  0  0  0  0  0  0  0  0  0  0
    9.4051  -10.7669   24.0444 H   0  0  0  0  0  0  0  0  0  0  0  0
    8.3174  -15.0891   24.9448 H   0  0  0  0  0  0  0  0  0  0  0  0
  1  2  1  0
  2  3  1  0
  3  4  1  0
  4  5  1  0
  5  6  1  0
  6  7  2  0
  6  8  1  0
  8  9  2  0
  9 10  1  0
 10 11  1  0
 11 12  2  0
 12 13  1  0
 13 14  2  0
 14 15  1  0
 15 16  2  0
  2 17  1  0
 17 18  2  0
 17 19  1  0
 19 20  1  0
 20 21  2  0
 21 22  1  0
 22 23  1  0
 16  8  1  0
 23 19  2  0
 15 10  1  0
  1 24  1  0
  1 25  1  0
  1 26  1  0
  3 27  1  0
  3 28  1  0
  4 29  1  0
  4 30  1  0
  5 31  1  0
  9 32  1  0
 11 33  1  0
 12 34  1  0
 13 35  1  0
 20 36  1  0
 21 37  1  0
 23 38  1  0
M  END
>  <Energy>  (50) 
128.24867947173357

>  <compound_id>  (50) 
35519

>  <target_id>  (50) 
1

>  <reference_id>  (50) 
76

>  <inspiration_ids>  (50) 
[107, 76]

>  <energy_score>  (50) 
44.22927930666117

>  <distance_score>  (50) 
16.637339172956384

>  <path>  (50) 
/opt/xchem-fragalysis-2/maxwin/BulkDock/SCRATCH/511013/C35519-P76/C35519-P76.minimised.mol

>  <scratch_subdir>  (50) 
/opt/xchem-fragalysis-2/maxwin/BulkDock/SCRATCH/511013/C35519-P76

>  <fragmenstein_runtime>  (50) 
14.673463344573975

>  <fragmenstein_outcome>  (50) 
too moved

>  <fragmenstein_mode>  (50) 
expansion

>  <fragmenstein_error>  (50) 


$$$$
C35521-P107
     RDKit          3D

 43 45  0  0  0  0  0  0  0  0999 V2000
   -1.6297   -3.7247   17.3090 C   0  0  0  0  0  0  0  0  0  0  0  0
   -0.7481   -4.7857   17.9560 C   0  0  0  0  0  0  0  0  0  0  0  0
   -1.4275   -6.1821   17.8738 C   0  0  0  0  0  0  0  0  0  0  0  0
   -1.0389   -7.4585   19.2290 C   0  0  0  0  0  0  0  0  0  0  0  0
   -1.9280   -8.4361   19.4973 N   0  0  0  0  0  0  0  0  0  0  0  0
   -0.3326   -7.2904   19.5385 C   0  0  0  0  0  0  0  0  0  0  0  0
    1.0902   -7.2248   18.4364 C   0  0  0  0  0  0  0  0  0  0  0  0
    2.0311   -6.1103   18.4780 C   0  0  0  0  0  0  0  0  0  0  0  0
    3.0053   -6.1787   17.5037 C   0  0  0  0  0  0  0  0  0  0  0  0
    2.8608   -7.5998   16.5690 S   0  0  0  0  0  0  0  0  0  0  0  0
    1.4631   -8.1085   17.4384 C   0  0  0  0  0  0  0  0  0  0  0  0
   -2.5693   -9.1187   20.8823 C   0  0  0  0  0  0  0  0  0  0  0  0
   -2.3200   -8.9809   22.0044 O   0  0  0  0  0  0  0  0  0  0  0  0
   -3.6234  -10.2114   20.6411 C   0  0  0  0  0  0  0  0  0  0  0  0
   -3.8849  -10.9927   19.5177 C   0  0  0  0  0  0  0  0  0  0  0  0
   -3.2948  -10.8826   18.1600 C   0  0  0  0  0  0  0  0  0  0  0  0
   -4.7662  -12.0327   19.7725 N   0  0  0  0  0  0  0  0  0  0  0  0
   -5.1187  -11.9463   21.0297 C   0  0  0  0  0  0  0  0  0  0  0  0
   -5.9277  -12.8062   21.7351 N   0  0  0  0  0  0  0  0  0  0  0  0
   -6.1473  -12.5083   22.9755 C   0  0  0  0  0  0  0  0  0  0  0  0
   -5.6078  -11.3193   23.6809 C   0  0  0  0  0  0  0  0  0  0  0  0
   -4.8038  -10.5188   22.9552 C   0  0  0  0  0  0  0  0  0  0  0  0
   -4.5068  -10.8194   21.6138 N   0  0  0  0  0  0  0  0  0  0  0  0
   -1.8298   -3.9683   16.2606 H   0  0  0  0  0  0  0  0  0  0  0  0
   -1.1354   -2.7487   17.3441 H   0  0  0  0  0  0  0  0  0  0  0  0
   -2.5875   -3.6384   17.8320 H   0  0  0  0  0  0  0  0  0  0  0  0
   -0.5665   -4.5056   18.9976 H   0  0  0  0  0  0  0  0  0  0  0  0
    0.1961   -4.7861   17.4105 H   0  0  0  0  0  0  0  0  0  0  0  0
   -1.1831   -6.6440   16.9052 H   0  0  0  0  0  0  0  0  0  0  0  0
   -2.5238   -6.0901   17.8945 H   0  0  0  0  0  0  0  0  0  0  0  0
   -1.9944   -6.7957   19.7332 H   0  0  0  0  0  0  0  0  0  0  0  0
   -1.1096   -8.1354   18.1913 H   0  0  0  0  0  0  0  0  0  0  0  0
   -0.2366   -6.3562   20.3623 H   0  0  0  0  0  0  0  0  0  0  0  0
    0.2920   -8.0000   20.3247 H   0  0  0  0  0  0  0  0  0  0  0  0
    1.9669   -5.2906   19.1852 H   0  0  0  0  0  0  0  0  0  0  0  0
    3.7987   -5.4716   17.3115 H   0  0  0  0  0  0  0  0  0  0  0  0
    0.9679   -9.0233   17.1461 H   0  0  0  0  0  0  0  0  0  0  0  0
   -3.5227   -9.9086   17.7169 H   0  0  0  0  0  0  0  0  0  0  0  0
   -2.2103  -11.0146   18.1967 H   0  0  0  0  0  0  0  0  0  0  0  0
   -3.7015  -11.6527   17.4964 H   0  0  0  0  0  0  0  0  0  0  0  0
   -6.7880  -13.1677   23.5841 H   0  0  0  0  0  0  0  0  0  0  0  0
   -5.8848  -11.1447   24.7111 H   0  0  0  0  0  0  0  0  0  0  0  0
   -4.3583   -9.6201   23.3631 H   0  0  0  0  0  0  0  0  0  0  0  0
  1  2  1  0
  2  3  1  0
  3  4  1  0
  4  5  1  0
  5  6  1  0
  6  7  1  0
  7  8  1  0
  8  9  2  0
  9 10  1  0
 10 11  1  0
  5 12  1  0
 12 13  2  0
 12 14  1  0
 14 15  2  0
 15 16  1  0
 15 17  1  0
 17 18  2  0
 18 19  1  0
 19 20  2  0
 20 21  1  0
 21 22  2  0
 22 23  1  0
 11  7  2  0
 23 14  1  0
 23 18  1  0
  1 24  1  0
  1 25  1  0
  1 26  1  0
  2 27  1  0
  2 28  1  0
  3 29  1  0
  3 30  1  0
  4 31  1  0
  4 32  1  0
  6 33  1  0
  6 34  1  0
  8 35  1  0
  9 36  1  0
 11 37  1  0
 16 38  1  0
 16 39  1  0
 16 40  1  0
 20 41  1  0
 21 42  1  0
 22 43  1  0
M  END
>  <Energy>  (51) 
793.92058938133539

>  <compound_id>  (51) 
35521

>  <target_id>  (51) 
1

>  <reference_id>  (51) 
107

>  <inspiration_ids>  (51) 
[107, 76]

>  <energy_score>  (51) 
742.152188200514

>  <distance_score>  (51) 
16.338272176822805

>  <path>  (51) 
/opt/xchem-fragalysis-2/maxwin/BulkDock/SCRATCH/511013/C35521-P107/C35521-P107.minimised.mol

>  <scratch_subdir>  (51) 
/opt/xchem-fragalysis-2/maxwin/BulkDock/SCRATCH/511013/C35521-P107

>  <fragmenstein_runtime>  (51) 
19.367796421051025

>  <fragmenstein_outcome>  (51) 
too moved

>  <fragmenstein_mode>  (51) 
expansion

>  <fragmenstein_error>  (51) 


$$$$
C35521-P76
     RDKit          3D

 43 45  0  0  0  0  0  0  0  0999 V2000
    2.7410   -3.3965   19.2922 C   0  0  0  0  0  0  0  0  0  0  0  0
    1.5294   -4.0676   18.6760 C   0  0  0  0  0  0  0  0  0  0  0  0
    1.1442   -5.3610   19.4331 C   0  0  0  0  0  0  0  0  0  0  0  0
   -0.4233   -6.0504   18.8633 C   0  0  0  0  0  0  0  0  0  0  0  0
   -1.2402   -7.7581   19.4111 N   0  0  0  0  0  0  0  0  0  0  0  0
   -0.5371   -6.8030   18.7522 C   0  0  0  0  0  0  0  0  0  0  0  0
    0.7178   -7.3012   17.4034 C   0  0  0  0  0  0  0  0  0  0  0  0
    0.9059   -6.5200   16.1898 C   0  0  0  0  0  0  0  0  0  0  0  0
    2.0664   -6.8403   15.5140 C   0  0  0  0  0  0  0  0  0  0  0  0
    2.9386   -8.0834   16.2919 S   0  0  0  0  0  0  0  0  0  0  0  0
    1.7457   -8.2253   17.5178 C   0  0  0  0  0  0  0  0  0  0  0  0
   -2.1462   -8.8883   18.6610 C   0  0  0  0  0  0  0  0  0  0  0  0
   -2.4528   -9.0243   17.5454 O   0  0  0  0  0  0  0  0  0  0  0  0
   -2.8063   -9.9796   19.5681 C   0  0  0  0  0  0  0  0  0  0  0  0
   -3.0193  -11.3069   19.1189 C   0  0  0  0  0  0  0  0  0  0  0  0
   -2.5702  -11.9217   17.8392 C   0  0  0  0  0  0  0  0  0  0  0  0
   -3.8269  -12.0603   19.9376 N   0  0  0  0  0  0  0  0  0  0  0  0
   -4.2358  -11.2452   20.8707 C   0  0  0  0  0  0  0  0  0  0  0  0
   -5.1368  -11.5386   21.8660 N   0  0  0  0  0  0  0  0  0  0  0  0
   -5.3050  -10.6286   22.7664 C   0  0  0  0  0  0  0  0  0  0  0  0
   -4.6123   -9.3135   22.7915 C   0  0  0  0  0  0  0  0  0  0  0  0
   -3.7792   -9.0505   21.7659 C   0  0  0  0  0  0  0  0  0  0  0  0
   -3.5644   -9.9980   20.7670 N   0  0  0  0  0  0  0  0  0  0  0  0
    3.6107   -4.0539   19.2388 H   0  0  0  0  0  0  0  0  0  0  0  0
    2.5608   -3.1423   20.3411 H   0  0  0  0  0  0  0  0  0  0  0  0
    2.9800   -2.4737   18.7546 H   0  0  0  0  0  0  0  0  0  0  0  0
    0.6811   -3.3746   18.7033 H   0  0  0  0  0  0  0  0  0  0  0  0
    1.7316   -4.2892   17.6251 H   0  0  0  0  0  0  0  0  0  0  0  0
    1.9391   -6.0913   19.2992 H   0  0  0  0  0  0  0  0  0  0  0  0
    1.0158   -5.1684   20.5048 H   0  0  0  0  0  0  0  0  0  0  0  0
   -0.9279   -5.2851   17.9769 H   0  0  0  0  0  0  0  0  0  0  0  0
   -1.0300   -5.3747   19.7150 H   0  0  0  0  0  0  0  0  0  0  0  0
   -1.2329   -7.1221   17.7508 H   0  0  0  0  0  0  0  0  0  0  0  0
    0.3248   -7.5544   19.3088 H   0  0  0  0  0  0  0  0  0  0  0  0
    0.2421   -5.7277   15.8652 H   0  0  0  0  0  0  0  0  0  0  0  0
    2.4424   -6.3995   14.6009 H   0  0  0  0  0  0  0  0  0  0  0  0
    1.9031   -8.9340   18.3105 H   0  0  0  0  0  0  0  0  0  0  0  0
   -1.5729  -11.5820   17.5520 H   0  0  0  0  0  0  0  0  0  0  0  0
   -2.5391  -13.0124   17.9263 H   0  0  0  0  0  0  0  0  0  0  0  0
   -3.2690  -11.6681   17.0359 H   0  0  0  0  0  0  0  0  0  0  0  0
   -6.0126  -10.8058   23.5931 H   0  0  0  0  0  0  0  0  0  0  0  0
   -4.8259   -8.6177   23.5912 H   0  0  0  0  0  0  0  0  0  0  0  0
   -3.2455   -8.1133   21.6628 H   0  0  0  0  0  0  0  0  0  0  0  0
  1  2  1  0
  2  3  1  0
  3  4  1  0
  4  5  1  0
  5  6  1  0
  6  7  1  0
  7  8  1  0
  8  9  2  0
  9 10  1  0
 10 11  1  0
  5 12  1  0
 12 13  2  0
 12 14  1  0
 14 15  2  0
 15 16  1  0
 15 17  1  0
 17 18  2  0
 18 19  1  0
 19 20  2  0
 20 21  1  0
 21 22  2  0
 22 23  1  0
 11  7  2  0
 23 14  1  0
 23 18  1  0
  1 24  1  0
  1 25  1  0
  1 26  1  0
  2 27  1  0
  2 28  1  0
  3 29  1  0
  3 30  1  0
  4 31  1  0
  4 32  1  0
  6 33  1  0
  6 34  1  0
  8 35  1  0
  9 36  1  0
 11 37  1  0
 16 38  1  0
 16 39  1  0
 16 40  1  0
 20 41  1  0
 21 42  1  0
 22 43  1  0
M  END
>  <Energy>  (52) 
813.0658974854116

>  <compound_id>  (52) 
35521

>  <target_id>  (52) 
1

>  <reference_id>  (52) 
76

>  <inspiration_ids>  (52) 
[107, 76]

>  <energy_score>  (52) 
761.2974963045892

>  <distance_score>  (52) 
16.687238421335714

>  <path>  (52) 
/opt/xchem-fragalysis-2/maxwin/BulkDock/SCRATCH/511013/C35521-P76/C35521-P76.minimised.mol

>  <scratch_subdir>  (52) 
/opt/xchem-fragalysis-2/maxwin/BulkDock/SCRATCH/511013/C35521-P76

>  <fragmenstein_runtime>  (52) 
11.239638328552246

>  <fragmenstein_outcome>  (52) 
too moved

>  <fragmenstein_mode>  (52) 
expansion

>  <fragmenstein_error>  (52) 


$$$$
C35522-P107
     RDKit          3D

 40 42  0  0  0  0  0  0  0  0999 V2000
   -5.5977  -19.6659   26.7330 C   0  0  0  0  0  0  0  0  0  0  0  0
   -4.8314  -18.2809   27.5566 C   0  0  0  0  0  0  0  0  0  0  0  0
   -5.2437  -17.0581   29.0637 C   0  0  0  0  0  0  0  0  0  0  0  0
   -3.9191  -16.3796   29.0938 C   0  0  0  0  0  0  0  0  0  0  0  0
   -2.8970  -16.2257   27.8021 N   0  0  0  0  0  0  0  0  0  0  0  0
   -2.0276  -15.1773   27.3324 C   0  0  0  0  0  0  0  0  0  0  0  0
   -2.1277  -15.0486   25.7000 C   0  0  0  0  0  0  0  0  0  0  0  0
   -0.7289  -14.3262   24.5992 C   0  0  0  0  0  0  0  0  0  0  0  0
    0.6309  -14.0942   23.3685 N   0  0  0  0  0  0  0  0  0  0  0  0
    2.4868  -13.6622   23.5614 C   0  0  0  0  0  0  0  0  0  0  0  0
    3.1583  -13.5397   24.5485 O   0  0  0  0  0  0  0  0  0  0  0  0
    3.4238  -13.1955   21.8540 C   0  0  0  0  0  0  0  0  0  0  0  0
    4.8925  -12.8612   20.6192 C   0  0  0  0  0  0  0  0  0  0  0  0
    6.2562  -11.8018   20.5682 C   0  0  0  0  0  0  0  0  0  0  0  0
    6.9207  -11.5615   19.2072 C   0  0  0  0  0  0  0  0  0  0  0  0
    6.2814  -11.3275   17.9446 C   0  0  0  0  0  0  0  0  0  0  0  0
    7.1717  -11.2395   16.8944 C   0  0  0  0  0  0  0  0  0  0  0  0
    8.7872  -11.4193   17.4069 S   0  0  0  0  0  0  0  0  0  0  0  0
    8.3007  -11.5232   19.0409 C   0  0  0  0  0  0  0  0  0  0  0  0
   -2.6577  -16.5504   25.5347 N   0  0  0  0  0  0  0  0  0  0  0  0
   -2.7140  -17.1352   26.8380 C   0  0  0  0  0  0  0  0  0  0  0  0
   -3.1780  -18.2708   27.3597 N   0  0  0  0  0  0  0  0  0  0  0  0
   -6.6552  -19.6256   26.7384 H   0  0  0  0  0  0  0  0  0  0  0  0
   -5.5827  -20.6512   27.2084 H   0  0  0  0  0  0  0  0  0  0  0  0
   -5.1090  -19.9223   25.7858 H   0  0  0  0  0  0  0  0  0  0  0  0
   -6.1335  -17.1670   29.6613 H   0  0  0  0  0  0  0  0  0  0  0  0
   -3.5213  -15.7434   29.8798 H   0  0  0  0  0  0  0  0  0  0  0  0
   -1.3174  -14.8591   28.0514 H   0  0  0  0  0  0  0  0  0  0  0  0
   -1.2729  -14.9174   23.8510 H   0  0  0  0  0  0  0  0  0  0  0  0
   -1.1786  -13.4607   25.0958 H   0  0  0  0  0  0  0  0  0  0  0  0
    0.3687  -14.2094   22.3822 H   0  0  0  0  0  0  0  0  0  0  0  0
    2.9759  -13.6840   21.0149 H   0  0  0  0  0  0  0  0  0  0  0  0
    3.6945  -12.2883   22.4309 H   0  0  0  0  0  0  0  0  0  0  0  0
    5.4808  -13.7119   20.4972 H   0  0  0  0  0  0  0  0  0  0  0  0
    4.4301  -12.8708   19.6136 H   0  0  0  0  0  0  0  0  0  0  0  0
    7.0575  -12.2745   21.1377 H   0  0  0  0  0  0  0  0  0  0  0  0
    6.0826  -10.8644   21.0925 H   0  0  0  0  0  0  0  0  0  0  0  0
    5.2105  -11.2795   17.7933 H   0  0  0  0  0  0  0  0  0  0  0  0
    6.9494  -11.1020   15.8441 H   0  0  0  0  0  0  0  0  0  0  0  0
    9.0578  -11.6323   19.8053 H   0  0  0  0  0  0  0  0  0  0  0  0
  1  2  1  0
  2  3  1  0
  3  4  2  0
  4  5  1  0
  5  6  1  0
  6  7  2  0
  7  8  1  0
  8  9  1  0
  9 10  1  0
 10 11  2  0
 10 12  1  0
 12 13  1  0
 13 14  1  0
 14 15  1  0
 15 16  1  0
 16 17  2  0
 17 18  1  0
 18 19  1  0
  7 20  1  0
 20 21  2  0
 21 22  1  0
 22  2  2  0
 21  5  1  0
 19 15  2  0
  1 23  1  0
  1 24  1  0
  1 25  1  0
  3 26  1  0
  4 27  1  0
  6 28  1  0
  8 29  1  0
  8 30  1  0
  9 31  1  0
 12 32  1  0
 12 33  1  0
 13 34  1  0
 13 35  1  0
 14 36  1  0
 14 37  1  0
 16 38  1  0
 17 39  1  0
 19 40  1  0
M  END
>  <Energy>  (53) 
791.76569726143134

>  <compound_id>  (53) 
35522

>  <target_id>  (53) 
1

>  <reference_id>  (53) 
107

>  <inspiration_ids>  (53) 
[107, 76]

>  <energy_score>  (53) 
737.3378607566779

>  <distance_score>  (53) 
11.438462258542813

>  <path>  (53) 
/opt/xchem-fragalysis-2/maxwin/BulkDock/SCRATCH/511013/C35522-P107/C35522-P107.minimised.mol

>  <scratch_subdir>  (53) 
/opt/xchem-fragalysis-2/maxwin/BulkDock/SCRATCH/511013/C35522-P107

>  <fragmenstein_runtime>  (53) 
18.184555292129517

>  <fragmenstein_outcome>  (53) 
too moved

>  <fragmenstein_mode>  (53) 
expansion

>  <fragmenstein_error>  (53) 


$$$$
C35522-P76
     RDKit          3D

 40 42  0  0  0  0  0  0  0  0999 V2000
  -11.3402  -21.1406   29.6006 C   0  0  0  0  0  0  0  0  0  0  0  0
  -10.6012  -19.8764   29.2873 C   0  0  0  0  0  0  0  0  0  0  0  0
   -8.9940  -19.4605   28.2419 C   0  0  0  0  0  0  0  0  0  0  0  0
   -8.6851  -18.1472   27.8563 C   0  0  0  0  0  0  0  0  0  0  0  0
   -9.4167  -17.0809   26.7998 N   0  0  0  0  0  0  0  0  0  0  0  0
   -8.9463  -15.7470   25.5956 C   0  0  0  0  0  0  0  0  0  0  0  0
   -7.3510  -15.2853   25.4098 C   0  0  0  0  0  0  0  0  0  0  0  0
   -5.4120  -15.3630   24.1941 C   0  0  0  0  0  0  0  0  0  0  0  0
   -3.3557  -15.2010   23.9080 N   0  0  0  0  0  0  0  0  0  0  0  0
   -1.9347  -14.5545   25.0450 C   0  0  0  0  0  0  0  0  0  0  0  0
   -2.1290  -14.2145   26.2156 O   0  0  0  0  0  0  0  0  0  0  0  0
    0.0757  -14.1777   24.3449 C   0  0  0  0  0  0  0  0  0  0  0  0
    1.9006  -13.0166   24.2614 C   0  0  0  0  0  0  0  0  0  0  0  0
    3.2446  -12.2186   23.0395 C   0  0  0  0  0  0  0  0  0  0  0  0
    4.7522  -10.9507   22.5727 C   0  0  0  0  0  0  0  0  0  0  0  0
    5.9108  -11.1843   21.2726 C   0  0  0  0  0  0  0  0  0  0  0  0
    7.0312  -10.3867   21.2316 C   0  0  0  0  0  0  0  0  0  0  0  0
    7.1132   -9.5149   22.6683 S   0  0  0  0  0  0  0  0  0  0  0  0
    5.8362  -10.3818   23.3637 C   0  0  0  0  0  0  0  0  0  0  0  0
   -8.2624  -15.9021   27.1334 N   0  0  0  0  0  0  0  0  0  0  0  0
   -9.7049  -16.6164   28.0042 C   0  0  0  0  0  0  0  0  0  0  0  0
  -10.6167  -18.0642   28.9098 N   0  0  0  0  0  0  0  0  0  0  0  0
  -10.9293  -21.9579   29.0047 H   0  0  0  0  0  0  0  0  0  0  0  0
  -11.2533  -21.3748   30.6633 H   0  0  0  0  0  0  0  0  0  0  0  0
  -12.3892  -21.0415   29.3270 H   0  0  0  0  0  0  0  0  0  0  0  0
   -9.3949  -20.4374   27.7049 H   0  0  0  0  0  0  0  0  0  0  0  0
   -8.0344  -17.6260   28.6024 H   0  0  0  0  0  0  0  0  0  0  0  0
   -9.7002  -15.8626   24.8261 H   0  0  0  0  0  0  0  0  0  0  0  0
   -5.0703  -15.5935   25.1523 H   0  0  0  0  0  0  0  0  0  0  0  0
   -4.5524  -15.8178   24.7194 H   0  0  0  0  0  0  0  0  0  0  0  0
   -2.9739  -15.4920   23.0503 H   0  0  0  0  0  0  0  0  0  0  0  0
   -0.2204  -13.9010   23.3359 H   0  0  0  0  0  0  0  0  0  0  0  0
    0.4998  -13.7798   25.3202 H   0  0  0  0  0  0  0  0  0  0  0  0
    2.8240  -13.4603   24.6787 H   0  0  0  0  0  0  0  0  0  0  0  0
    1.7072  -12.1291   24.8417 H   0  0  0  0  0  0  0  0  0  0  0  0
    3.3412  -12.9204   22.2173 H   0  0  0  0  0  0  0  0  0  0  0  0
    2.5175  -11.4408   22.9704 H   0  0  0  0  0  0  0  0  0  0  0  0
    5.7787  -12.0233   20.5834 H   0  0  0  0  0  0  0  0  0  0  0  0
    7.7976  -10.3432   20.4695 H   0  0  0  0  0  0  0  0  0  0  0  0
    6.1668  -10.6922   24.3368 H   0  0  0  0  0  0  0  0  0  0  0  0
  1  2  1  0
  2  3  1  0
  3  4  2  0
  4  5  1  0
  5  6  1  0
  6  7  2  0
  7  8  1  0
  8  9  1  0
  9 10  1  0
 10 11  2  0
 10 12  1  0
 12 13  1  0
 13 14  1  0
 14 15  1  0
 15 16  1  0
 16 17  2  0
 17 18  1  0
 18 19  1  0
  7 20  1  0
 20 21  2  0
 21 22  1  0
 22  2  2  0
 21  5  1  0
 19 15  2  0
  1 23  1  0
  1 24  1  0
  1 25  1  0
  3 26  1  0
  4 27  1  0
  6 28  1  0
  8 29  1  0
  8 30  1  0
  9 31  1  0
 12 32  1  0
 12 33  1  0
 13 34  1  0
 13 35  1  0
 14 36  1  0
 14 37  1  0
 16 38  1  0
 17 39  1  0
 19 40  1  0
M  END
>  <Energy>  (54) 
2390.3600637399213

>  <compound_id>  (54) 
35522

>  <target_id>  (54) 
1

>  <reference_id>  (54) 
76

>  <inspiration_ids>  (54) 
[107, 76]

>  <energy_score>  (54) 
2335.9322272351255

>  <distance_score>  (54) 
10.397398940770234

>  <path>  (54) 
/opt/xchem-fragalysis-2/maxwin/BulkDock/SCRATCH/511013/C35522-P76/C35522-P76.minimised.mol

>  <scratch_subdir>  (54) 
/opt/xchem-fragalysis-2/maxwin/BulkDock/SCRATCH/511013/C35522-P76

>  <fragmenstein_runtime>  (54) 
22.904266834259033

>  <fragmenstein_outcome>  (54) 
too moved

>  <fragmenstein_mode>  (54) 
expansion

>  <fragmenstein_error>  (54) 


$$$$
C35524-P107
     RDKit          3D

 35 37  0  0  0  0  0  0  0  0999 V2000
   -9.6781  -15.7805   27.3226 C   0  0  0  0  0  0  0  0  0  0  0  0
   -8.5561  -15.0412   26.6527 C   0  0  0  0  0  0  0  0  0  0  0  0
   -7.8580  -14.0545   27.5244 C   0  0  0  0  0  0  0  0  0  0  0  0
   -6.9697  -13.1899   26.9756 C   0  0  0  0  0  0  0  0  0  0  0  0
   -6.6953  -13.0951   25.6306 N   0  0  0  0  0  0  0  0  0  0  0  0
   -6.0172  -12.0653   24.3343 C   0  0  0  0  0  0  0  0  0  0  0  0
   -6.0809  -12.3869   22.7662 C   0  0  0  0  0  0  0  0  0  0  0  0
   -4.9871  -11.5900   21.0967 C   0  0  0  0  0  0  0  0  0  0  0  0
   -3.1323  -11.0090   20.7289 N   0  0  0  0  0  0  0  0  0  0  0  0
   -2.7372   -9.7293   19.1193 S   0  0  0  0  0  0  0  0  0  0  0  0
   -2.9737  -10.6314   17.9985 O   0  0  0  0  0  0  0  0  0  0  0  0
   -3.4435   -8.4866   19.2931 O   0  0  0  0  0  0  0  0  0  0  0  0
   -1.1371   -8.9704   18.8732 C   0  0  0  0  0  0  0  0  0  0  0  0
   -0.4871   -7.8044   18.0622 C   0  0  0  0  0  0  0  0  0  0  0  0
    0.9575   -7.5623   18.1800 C   0  0  0  0  0  0  0  0  0  0  0  0
    1.4301   -6.5452   17.3848 C   0  0  0  0  0  0  0  0  0  0  0  0
    0.1719   -5.8589   16.4648 S   0  0  0  0  0  0  0  0  0  0  0  0
   -1.0076   -6.9293   17.1319 C   0  0  0  0  0  0  0  0  0  0  0  0
   -6.1816  -14.0321   23.5658 N   0  0  0  0  0  0  0  0  0  0  0  0
   -7.0986  -14.5296   24.9145 C   0  0  0  0  0  0  0  0  0  0  0  0
   -8.1558  -15.3125   25.4335 N   0  0  0  0  0  0  0  0  0  0  0  0
   -9.8044  -16.7602   26.8854 H   0  0  0  0  0  0  0  0  0  0  0  0
  -10.5865  -15.1822   27.2235 H   0  0  0  0  0  0  0  0  0  0  0  0
   -9.4714  -15.9189   28.3870 H   0  0  0  0  0  0  0  0  0  0  0  0
   -7.9674  -14.2016   28.5885 H   0  0  0  0  0  0  0  0  0  0  0  0
   -6.3351  -12.5446   27.5375 H   0  0  0  0  0  0  0  0  0  0  0  0
   -4.9844  -12.0276   24.5715 H   0  0  0  0  0  0  0  0  0  0  0  0
   -4.8817  -12.0351   20.0945 H   0  0  0  0  0  0  0  0  0  0  0  0
   -4.7005  -10.6209   21.5459 H   0  0  0  0  0  0  0  0  0  0  0  0
   -2.7489  -11.8636   20.3080 H   0  0  0  0  0  0  0  0  0  0  0  0
   -0.7457   -8.8820   19.8921 H   0  0  0  0  0  0  0  0  0  0  0  0
   -0.8857   -9.6827   18.0726 H   0  0  0  0  0  0  0  0  0  0  0  0
    1.5959   -8.1327   18.8475 H   0  0  0  0  0  0  0  0  0  0  0  0
    2.4432   -6.1780   17.3050 H   0  0  0  0  0  0  0  0  0  0  0  0
   -2.0352   -6.8540   16.8020 H   0  0  0  0  0  0  0  0  0  0  0  0
  1  2  1  0
  2  3  1  0
  3  4  2  0
  4  5  1  0
  5  6  1  0
  6  7  2  0
  7  8  1  0
  8  9  1  0
  9 10  1  0
 10 11  2  0
 10 12  2  0
 10 13  1  0
 13 14  1  0
 14 15  1  0
 15 16  2  0
 16 17  1  0
 17 18  1  0
  7 19  1  0
 19 20  2  0
 20 21  1  0
 21  2  2  0
 20  5  1  0
 18 14  2  0
  1 22  1  0
  1 23  1  0
  1 24  1  0
  3 25  1  0
  4 26  1  0
  6 27  1  0
  8 28  1  0
  8 29  1  0
  9 30  1  0
 13 31  1  0
 13 32  1  0
 15 33  1  0
 16 34  1  0
 18 35  1  0
M  END
>  <Energy>  (55) 
640.06660803686304

>  <compound_id>  (55) 
35524

>  <target_id>  (55) 
1

>  <reference_id>  (55) 
107

>  <inspiration_ids>  (55) 
[107, 76]

>  <energy_score>  (55) 
582.4291158233937

>  <distance_score>  (55) 
13.352390414628669

>  <path>  (55) 
/opt/xchem-fragalysis-2/maxwin/BulkDock/SCRATCH/511013/C35524-P107/C35524-P107.minimised.mol

>  <scratch_subdir>  (55) 
/opt/xchem-fragalysis-2/maxwin/BulkDock/SCRATCH/511013/C35524-P107

>  <fragmenstein_runtime>  (55) 
17.21743416786194

>  <fragmenstein_outcome>  (55) 
too moved

>  <fragmenstein_mode>  (55) 
expansion

>  <fragmenstein_error>  (55) 


$$$$
C35524-P76
     RDKit          3D

 35 37  0  0  0  0  0  0  0  0999 V2000
   -4.1418  -21.8061   27.1171 C   0  0  0  0  0  0  0  0  0  0  0  0
   -3.2296  -21.6741   25.9226 C   0  0  0  0  0  0  0  0  0  0  0  0
   -3.6078  -22.4485   24.6960 C   0  0  0  0  0  0  0  0  0  0  0  0
   -2.7830  -22.2995   23.6491 C   0  0  0  0  0  0  0  0  0  0  0  0
   -1.6725  -21.4645   23.7544 N   0  0  0  0  0  0  0  0  0  0  0  0
   -0.7024  -21.1301   22.8203 C   0  0  0  0  0  0  0  0  0  0  0  0
    0.1779  -20.2407   23.4252 C   0  0  0  0  0  0  0  0  0  0  0  0
    1.5911  -19.6826   22.9534 C   0  0  0  0  0  0  0  0  0  0  0  0
    1.6370  -18.5975   21.8380 N   0  0  0  0  0  0  0  0  0  0  0  0
    3.2626  -17.9398   21.5128 S   0  0  0  0  0  0  0  0  0  0  0  0
    3.9496  -17.9224   22.7864 O   0  0  0  0  0  0  0  0  0  0  0  0
    3.7390  -18.7695   20.4236 O   0  0  0  0  0  0  0  0  0  0  0  0
    3.0739  -16.1546   20.8808 C   0  0  0  0  0  0  0  0  0  0  0  0
    4.3381  -15.3117   20.5482 C   0  0  0  0  0  0  0  0  0  0  0  0
    4.7494  -14.1301   21.2844 C   0  0  0  0  0  0  0  0  0  0  0  0
    5.8142  -13.4541   20.7220 C   0  0  0  0  0  0  0  0  0  0  0  0
    6.3549  -14.2117   19.2946 S   0  0  0  0  0  0  0  0  0  0  0  0
    5.1614  -15.4458   19.4376 C   0  0  0  0  0  0  0  0  0  0  0  0
   -0.2983  -20.0235   24.7344 N   0  0  0  0  0  0  0  0  0  0  0  0
   -1.3699  -20.7870   24.9282 C   0  0  0  0  0  0  0  0  0  0  0  0
   -2.1709  -20.9188   26.0309 N   0  0  0  0  0  0  0  0  0  0  0  0
   -4.9633  -22.4984   26.9282 H   0  0  0  0  0  0  0  0  0  0  0  0
   -3.5554  -22.1777   27.9624 H   0  0  0  0  0  0  0  0  0  0  0  0
   -4.5410  -20.8208   27.3692 H   0  0  0  0  0  0  0  0  0  0  0  0
   -4.4869  -23.0777   24.6913 H   0  0  0  0  0  0  0  0  0  0  0  0
   -2.9411  -22.7980   22.7016 H   0  0  0  0  0  0  0  0  0  0  0  0
   -0.6973  -21.5865   21.8413 H   0  0  0  0  0  0  0  0  0  0  0  0
    2.0697  -19.2734   23.8498 H   0  0  0  0  0  0  0  0  0  0  0  0
    2.1705  -20.5430   22.5988 H   0  0  0  0  0  0  0  0  0  0  0  0
    1.2921  -19.0005   20.9650 H   0  0  0  0  0  0  0  0  0  0  0  0
    2.5086  -15.6612   21.6743 H   0  0  0  0  0  0  0  0  0  0  0  0
    2.4529  -16.2367   19.9828 H   0  0  0  0  0  0  0  0  0  0  0  0
    4.2504  -13.7846   22.1843 H   0  0  0  0  0  0  0  0  0  0  0  0
    6.2905  -12.5532   21.0828 H   0  0  0  0  0  0  0  0  0  0  0  0
    5.1113  -16.2092   18.6720 H   0  0  0  0  0  0  0  0  0  0  0  0
  1  2  1  0
  2  3  1  0
  3  4  2  0
  4  5  1  0
  5  6  1  0
  6  7  2  0
  7  8  1  0
  8  9  1  0
  9 10  1  0
 10 11  2  0
 10 12  2  0
 10 13  1  0
 13 14  1  0
 14 15  1  0
 15 16  2  0
 16 17  1  0
 17 18  1  0
  7 19  1  0
 19 20  2  0
 20 21  1  0
 21  2  2  0
 20  5  1  0
 18 14  2  0
  1 22  1  0
  1 23  1  0
  1 24  1  0
  3 25  1  0
  4 26  1  0
  6 27  1  0
  8 28  1  0
  8 29  1  0
  9 30  1  0
 13 31  1  0
 13 32  1  0
 15 33  1  0
 16 34  1  0
 18 35  1  0
M  END
>  <Energy>  (56) 
18.084621230007908

>  <compound_id>  (56) 
35524

>  <target_id>  (56) 
1

>  <reference_id>  (56) 
76

>  <inspiration_ids>  (56) 
[107, 76]

>  <energy_score>  (56) 
-39.5528709834598

>  <distance_score>  (56) 
13.655276795298334

>  <path>  (56) 
/opt/xchem-fragalysis-2/maxwin/BulkDock/SCRATCH/511013/C35524-P76/C35524-P76.minimised.mol

>  <scratch_subdir>  (56) 
/opt/xchem-fragalysis-2/maxwin/BulkDock/SCRATCH/511013/C35524-P76

>  <fragmenstein_runtime>  (56) 
11.704134225845337

>  <fragmenstein_outcome>  (56) 
too moved

>  <fragmenstein_mode>  (56) 
expansion

>  <fragmenstein_error>  (56) 


$$$$
C35526-P107
     RDKit          3D

 36 38  0  0  0  0  0  0  0  0999 V2000
   -1.1748  -14.8885   22.9787 C   0  0  0  0  0  0  0  0  0  0  0  0
   -1.1239  -15.0659   24.4099 C   0  0  0  0  0  0  0  0  0  0  0  0
    0.7956  -14.1996   24.1811 C   0  0  0  0  0  0  0  0  0  0  0  0
    2.7288  -14.1737   23.4444 C   0  0  0  0  0  0  0  0  0  0  0  0
    3.3950  -12.8871   23.0560 C   0  0  0  0  0  0  0  0  0  0  0  0
    4.6463  -12.8696   22.4738 C   0  0  0  0  0  0  0  0  0  0  0  0
    5.3143  -14.3988   22.5318 S   0  0  0  0  0  0  0  0  0  0  0  0
    3.8700  -15.0181   23.2583 C   0  0  0  0  0  0  0  0  0  0  0  0
   -2.0945  -16.7279   25.0449 N   0  0  0  0  0  0  0  0  0  0  0  0
   -1.5828  -18.0239   26.3169 C   0  0  0  0  0  0  0  0  0  0  0  0
   -0.6210  -17.8969   26.9375 O   0  0  0  0  0  0  0  0  0  0  0  0
   -2.4743  -19.2444   26.3451 N   0  0  0  0  0  0  0  0  0  0  0  0
   -2.4427  -20.3927   27.1251 C   0  0  0  0  0  0  0  0  0  0  0  0
   -1.7607  -20.3951   28.4621 C   0  0  0  0  0  0  0  0  0  0  0  0
   -1.8546  -21.2600   29.4234 N   0  0  0  0  0  0  0  0  0  0  0  0
   -2.5088  -22.3959   29.0966 C   0  0  0  0  0  0  0  0  0  0  0  0
   -2.7239  -23.4741   29.8214 N   0  0  0  0  0  0  0  0  0  0  0  0
   -3.0488  -24.4486   28.9243 C   0  0  0  0  0  0  0  0  0  0  0  0
   -3.1002  -23.9313   27.6497 C   0  0  0  0  0  0  0  0  0  0  0  0
   -2.9414  -22.5871   27.7907 N   0  0  0  0  0  0  0  0  0  0  0  0
   -3.0253  -21.5680   26.8470 C   0  0  0  0  0  0  0  0  0  0  0  0
   -0.4395  -14.1095   22.7982 H   0  0  0  0  0  0  0  0  0  0  0  0
   -0.6483  -15.4120   22.1584 H   0  0  0  0  0  0  0  0  0  0  0  0
   -2.2372  -14.8977   22.8892 H   0  0  0  0  0  0  0  0  0  0  0  0
   -1.6219  -14.3800   25.1240 H   0  0  0  0  0  0  0  0  0  0  0  0
    0.8746  -13.9507   25.3173 H   0  0  0  0  0  0  0  0  0  0  0  0
    1.4332  -13.2386   24.3931 H   0  0  0  0  0  0  0  0  0  0  0  0
    2.7793  -12.0115   23.1051 H   0  0  0  0  0  0  0  0  0  0  0  0
    5.1861  -12.0301   22.0613 H   0  0  0  0  0  0  0  0  0  0  0  0
    4.0195  -16.0738   23.4162 H   0  0  0  0  0  0  0  0  0  0  0  0
   -2.9727  -16.9600   24.6823 H   0  0  0  0  0  0  0  0  0  0  0  0
   -3.1789  -19.1322   25.6628 H   0  0  0  0  0  0  0  0  0  0  0  0
   -1.0633  -19.5825   28.6261 H   0  0  0  0  0  0  0  0  0  0  0  0
   -3.1811  -25.4767   29.2379 H   0  0  0  0  0  0  0  0  0  0  0  0
   -3.2161  -24.3762   26.6744 H   0  0  0  0  0  0  0  0  0  0  0  0
   -3.5119  -21.7916   25.9080 H   0  0  0  0  0  0  0  0  0  0  0  0
  1  2  1  0
  2  3  1  0
  3  4  1  0
  4  5  1  0
  5  6  2  0
  6  7  1  0
  7  8  1  0
  2  9  1  0
  9 10  1  0
 10 11  2  0
 10 12  1  0
 12 13  1  0
 13 14  1  0
 14 15  2  0
 15 16  1  0
 16 17  2  0
 17 18  1  0
 18 19  2  0
 19 20  1  0
 20 21  1  0
  8  4  2  0
 21 13  2  0
 20 16  1  0
  1 22  1  0
  1 23  1  0
  1 24  1  0
  2 25  1  0
  3 26  1  0
  3 27  1  0
  5 28  1  0
  6 29  1  0
  8 30  1  0
  9 31  1  0
 12 32  1  0
 14 33  1  0
 18 34  1  0
 19 35  1  0
 21 36  1  0
M  END
>  <Energy>  (57) 
539.48909198439787

>  <compound_id>  (57) 
35526

>  <target_id>  (57) 
1

>  <reference_id>  (57) 
107

>  <inspiration_ids>  (57) 
[107, 76]

>  <energy_score>  (57) 
487.3918456122519

>  <distance_score>  (57) 
13.353830711558917

>  <path>  (57) 
/opt/xchem-fragalysis-2/maxwin/BulkDock/SCRATCH/511013/C35526-P107/C35526-P107.minimised.mol

>  <scratch_subdir>  (57) 
/opt/xchem-fragalysis-2/maxwin/BulkDock/SCRATCH/511013/C35526-P107

>  <fragmenstein_runtime>  (57) 
20.440528392791748

>  <fragmenstein_outcome>  (57) 
too moved

>  <fragmenstein_mode>  (57) 
expansion

>  <fragmenstein_error>  (57) 


$$$$
C35526-P76
     RDKit          3D

 36 38  0  0  0  0  0  0  0  0999 V2000
   -2.0913  -10.0326   18.7629 C   0  0  0  0  0  0  0  0  0  0  0  0
   -1.6037   -9.0497   19.8598 C   0  0  0  0  0  0  0  0  0  0  0  0
   -0.0400   -8.2892   19.4523 C   0  0  0  0  0  0  0  0  0  0  0  0
    1.0304   -7.8526   18.2737 C   0  0  0  0  0  0  0  0  0  0  0  0
    1.1842   -6.4614   17.8245 C   0  0  0  0  0  0  0  0  0  0  0  0
    2.2348   -6.2221   16.9626 C   0  0  0  0  0  0  0  0  0  0  0  0
    3.0859   -7.6465   16.6153 S   0  0  0  0  0  0  0  0  0  0  0  0
    2.0662   -8.5485   17.6715 C   0  0  0  0  0  0  0  0  0  0  0  0
   -2.3336   -9.4802   21.2642 N   0  0  0  0  0  0  0  0  0  0  0  0
   -3.4545  -10.4975   21.5438 C   0  0  0  0  0  0  0  0  0  0  0  0
   -3.9414  -11.2283   20.7678 O   0  0  0  0  0  0  0  0  0  0  0  0
   -3.8820  -10.5295   23.3522 N   0  0  0  0  0  0  0  0  0  0  0  0
   -5.1996  -11.5636   24.3139 C   0  0  0  0  0  0  0  0  0  0  0  0
   -6.0288  -12.6724   24.4227 C   0  0  0  0  0  0  0  0  0  0  0  0
   -6.7013  -13.1269   25.6588 N   0  0  0  0  0  0  0  0  0  0  0  0
   -6.9799  -12.3249   26.7130 C   0  0  0  0  0  0  0  0  0  0  0  0
   -7.5805  -12.5104   27.8633 N   0  0  0  0  0  0  0  0  0  0  0  0
   -8.2919  -11.3496   28.0341 C   0  0  0  0  0  0  0  0  0  0  0  0
   -8.1482  -10.5165   26.9343 C   0  0  0  0  0  0  0  0  0  0  0  0
   -7.2189  -11.1467   26.1495 N   0  0  0  0  0  0  0  0  0  0  0  0
   -6.6751  -11.0364   24.7659 C   0  0  0  0  0  0  0  0  0  0  0  0
   -1.8496   -9.6436   17.7749 H   0  0  0  0  0  0  0  0  0  0  0  0
   -1.7841  -11.0722   18.8977 H   0  0  0  0  0  0  0  0  0  0  0  0
   -3.1635  -10.0976   18.7710 H   0  0  0  0  0  0  0  0  0  0  0  0
   -2.3673   -8.3080   19.6118 H   0  0  0  0  0  0  0  0  0  0  0  0
    0.3468   -7.9139   20.3969 H   0  0  0  0  0  0  0  0  0  0  0  0
   -0.6335   -7.6333   18.7994 H   0  0  0  0  0  0  0  0  0  0  0  0
    0.5426   -5.6573   18.1494 H   0  0  0  0  0  0  0  0  0  0  0  0
    2.5274   -5.2799   16.5210 H   0  0  0  0  0  0  0  0  0  0  0  0
    2.3604   -9.5673   17.8098 H   0  0  0  0  0  0  0  0  0  0  0  0
   -2.1764   -8.9323   22.0999 H   0  0  0  0  0  0  0  0  0  0  0  0
   -3.4091   -9.7532   23.8252 H   0  0  0  0  0  0  0  0  0  0  0  0
   -5.9362  -13.3592   23.5677 H   0  0  0  0  0  0  0  0  0  0  0  0
   -8.9039  -11.1900   28.9122 H   0  0  0  0  0  0  0  0  0  0  0  0
   -8.5865   -9.5651   26.6752 H   0  0  0  0  0  0  0  0  0  0  0  0
   -7.3078  -10.2367   24.3939 H   0  0  0  0  0  0  0  0  0  0  0  0
  1  2  1  0
  2  3  1  0
  3  4  1  0
  4  5  1  0
  5  6  2  0
  6  7  1  0
  7  8  1  0
  2  9  1  0
  9 10  1  0
 10 11  2  0
 10 12  1  0
 12 13  1  0
 13 14  1  0
 14 15  2  0
 15 16  1  0
 16 17  2  0
 17 18  1  0
 18 19  2  0
 19 20  1  0
 20 21  1  0
  8  4  2  0
 21 13  2  0
 20 16  1  0
  1 22  1  0
  1 23  1  0
  1 24  1  0
  2 25  1  0
  3 26  1  0
  3 27  1  0
  5 28  1  0
  6 29  1  0
  8 30  1  0
  9 31  1  0
 12 32  1  0
 14 33  1  0
 18 34  1  0
 19 35  1  0
 21 36  1  0
M  END
>  <Energy>  (58) 
482.82712270646738

>  <compound_id>  (58) 
35526

>  <target_id>  (58) 
1

>  <reference_id>  (58) 
76

>  <inspiration_ids>  (58) 
[107, 76]

>  <energy_score>  (58) 
430.72987633433695

>  <distance_score>  (58) 
13.570161768630626

>  <path>  (58) 
/opt/xchem-fragalysis-2/maxwin/BulkDock/SCRATCH/511013/C35526-P76/C35526-P76.minimised.mol

>  <scratch_subdir>  (58) 
/opt/xchem-fragalysis-2/maxwin/BulkDock/SCRATCH/511013/C35526-P76

>  <fragmenstein_runtime>  (58) 
16.16634464263916

>  <fragmenstein_outcome>  (58) 
too moved

>  <fragmenstein_mode>  (58) 
expansion

>  <fragmenstein_error>  (58) 


$$$$
C35527-P107
     RDKit          3D

 42 44  0  0  0  0  0  0  0  0999 V2000
    3.1224   -5.7068   17.2444 C   0  0  0  0  0  0  0  0  0  0  0  0
    2.1036   -4.6764   17.7296 C   0  0  0  0  0  0  0  0  0  0  0  0
    2.2085   -3.3625   16.7945 C   0  0  0  0  0  0  0  0  0  0  0  0
    3.5466   -2.7912   16.5246 N   0  0  0  0  0  0  0  0  0  0  0  0
    3.5466   -1.6012   15.6425 C   0  0  0  0  0  0  0  0  0  0  0  0
    4.9349   -0.9954   15.5218 C   0  0  0  0  0  0  0  0  0  0  0  0
    5.4728   -0.0017   16.4180 C   0  0  0  0  0  0  0  0  0  0  0  0
    6.7729    0.3504   16.1269 C   0  0  0  0  0  0  0  0  0  0  0  0
    7.3748   -0.5083   14.7859 S   0  0  0  0  0  0  0  0  0  0  0  0
    5.8804   -1.3111   14.5569 C   0  0  0  0  0  0  0  0  0  0  0  0
    0.5828   -5.2991   17.7067 C   0  0  0  0  0  0  0  0  0  0  0  0
   -0.0726   -6.2938   18.6786 N   0  0  0  0  0  0  0  0  0  0  0  0
   -1.1464   -7.2966   18.4630 C   0  0  0  0  0  0  0  0  0  0  0  0
   -1.7122   -7.6335   17.4511 O   0  0  0  0  0  0  0  0  0  0  0  0
   -1.8087   -8.0253   19.7304 C   0  0  0  0  0  0  0  0  0  0  0  0
   -1.2487   -8.3218   21.0950 C   0  0  0  0  0  0  0  0  0  0  0  0
   -1.8582   -8.8670   22.1205 N   0  0  0  0  0  0  0  0  0  0  0  0
   -3.1569   -9.2461   21.9611 C   0  0  0  0  0  0  0  0  0  0  0  0
   -3.9809   -9.7869   22.8451 N   0  0  0  0  0  0  0  0  0  0  0  0
   -5.1490  -10.0323   22.1664 C   0  0  0  0  0  0  0  0  0  0  0  0
   -5.0059   -9.6974   20.8373 C   0  0  0  0  0  0  0  0  0  0  0  0
   -3.7385   -9.1608   20.7138 N   0  0  0  0  0  0  0  0  0  0  0  0
   -3.0676   -8.5620   19.6305 C   0  0  0  0  0  0  0  0  0  0  0  0
    2.9485   -6.6600   17.7483 H   0  0  0  0  0  0  0  0  0  0  0  0
    3.0197   -5.8850   16.1694 H   0  0  0  0  0  0  0  0  0  0  0  0
    4.1476   -5.4032   17.4579 H   0  0  0  0  0  0  0  0  0  0  0  0
    2.3327   -4.3944   18.7640 H   0  0  0  0  0  0  0  0  0  0  0  0
    1.7424   -3.6129   15.8328 H   0  0  0  0  0  0  0  0  0  0  0  0
    1.5847   -2.5914   17.2628 H   0  0  0  0  0  0  0  0  0  0  0  0
    4.0957   -3.5056   16.0516 H   0  0  0  0  0  0  0  0  0  0  0  0
    2.8686   -0.8419   16.0502 H   0  0  0  0  0  0  0  0  0  0  0  0
    3.1791   -1.8765   14.6468 H   0  0  0  0  0  0  0  0  0  0  0  0
    4.9214    0.4166   17.2519 H   0  0  0  0  0  0  0  0  0  0  0  0
    7.3959    1.0675   16.6435 H   0  0  0  0  0  0  0  0  0  0  0  0
    5.7774   -2.0007   13.7322 H   0  0  0  0  0  0  0  0  0  0  0  0
    0.4184   -5.7289   16.7107 H   0  0  0  0  0  0  0  0  0  0  0  0
   -0.0893   -4.4340   17.7731 H   0  0  0  0  0  0  0  0  0  0  0  0
    0.1082   -6.2095   19.6724 H   0  0  0  0  0  0  0  0  0  0  0  0
   -0.1915   -8.0366   21.2276 H   0  0  0  0  0  0  0  0  0  0  0  0
   -6.0135  -10.4561   22.6614 H   0  0  0  0  0  0  0  0  0  0  0  0
   -5.6816   -9.7534   19.9964 H   0  0  0  0  0  0  0  0  0  0  0  0
   -3.6360   -8.5030   18.7092 H   0  0  0  0  0  0  0  0  0  0  0  0
  1  2  1  0
  2  3  1  0
  3  4  1  0
  4  5  1  0
  5  6  1  0
  6  7  1  0
  7  8  2  0
  8  9  1  0
  9 10  1  0
  2 11  1  0
 11 12  1  0
 12 13  1  0
 13 14  2  0
 13 15  1  0
 15 16  1  0
 16 17  2  0
 17 18  1  0
 18 19  2  0
 19 20  1  0
 20 21  2  0
 21 22  1  0
 22 23  1  0
 10  6  2  0
 23 15  2  0
 22 18  1  0
  1 24  1  0
  1 25  1  0
  1 26  1  0
  2 27  1  0
  3 28  1  0
  3 29  1  0
  4 30  1  0
  5 31  1  0
  5 32  1  0
  7 33  1  0
  8 34  1  0
 10 35  1  0
 11 36  1  0
 11 37  1  0
 12 38  1  0
 16 39  1  0
 20 40  1  0
 21 41  1  0
 23 42  1  0
M  END
>  <Energy>  (59) 
43.424149642961602

>  <compound_id>  (59) 
35527

>  <target_id>  (59) 
1

>  <reference_id>  (59) 
107

>  <inspiration_ids>  (59) 
[107, 76]

>  <energy_score>  (59) 
-7.035472961060577

>  <distance_score>  (59) 
15.784705213492614

>  <path>  (59) 
/opt/xchem-fragalysis-2/maxwin/BulkDock/SCRATCH/511013/C35527-P107/C35527-P107.minimised.mol

>  <scratch_subdir>  (59) 
/opt/xchem-fragalysis-2/maxwin/BulkDock/SCRATCH/511013/C35527-P107

>  <fragmenstein_runtime>  (59) 
20.331862211227417

>  <fragmenstein_outcome>  (59) 
too moved

>  <fragmenstein_mode>  (59) 
expansion

>  <fragmenstein_error>  (59) 


$$$$
C35527-P76
     RDKit          3D

 42 44  0  0  0  0  0  0  0  0999 V2000
    8.1402  -10.2773   18.2903 C   0  0  0  0  0  0  0  0  0  0  0  0
    6.9852   -9.9843   19.4773 C   0  0  0  0  0  0  0  0  0  0  0  0
    7.0280   -7.7891   19.8257 C   0  0  0  0  0  0  0  0  0  0  0  0
    8.1854   -6.4290   20.0631 N   0  0  0  0  0  0  0  0  0  0  0  0
    8.5595   -5.6675   21.3206 C   0  0  0  0  0  0  0  0  0  0  0  0
    9.9701   -5.6018   21.9224 C   0  0  0  0  0  0  0  0  0  0  0  0
   11.2708   -5.4990   21.3316 C   0  0  0  0  0  0  0  0  0  0  0  0
   12.3060   -5.3359   22.2229 C   0  0  0  0  0  0  0  0  0  0  0  0
   11.7430   -5.3129   23.8210 S   0  0  0  0  0  0  0  0  0  0  0  0
   10.1297   -5.4942   23.3003 C   0  0  0  0  0  0  0  0  0  0  0  0
    5.6445  -11.4541   20.1535 C   0  0  0  0  0  0  0  0  0  0  0  0
    4.4074  -12.5515   21.2453 N   0  0  0  0  0  0  0  0  0  0  0  0
    3.2081  -12.1294   22.6719 C   0  0  0  0  0  0  0  0  0  0  0  0
    3.1620  -10.9902   22.8438 O   0  0  0  0  0  0  0  0  0  0  0  0
    2.0971  -13.0778   24.1283 C   0  0  0  0  0  0  0  0  0  0  0  0
    0.3975  -14.0355   23.9302 C   0  0  0  0  0  0  0  0  0  0  0  0
   -0.8791  -14.1736   24.5740 N   0  0  0  0  0  0  0  0  0  0  0  0
   -1.2025  -13.3223   25.9110 C   0  0  0  0  0  0  0  0  0  0  0  0
   -2.1879  -13.3155   26.7846 N   0  0  0  0  0  0  0  0  0  0  0  0
   -1.5768  -12.9737   27.9775 C   0  0  0  0  0  0  0  0  0  0  0  0
   -0.2070  -12.7661   27.8534 C   0  0  0  0  0  0  0  0  0  0  0  0
    0.0969  -12.9037   26.5084 N   0  0  0  0  0  0  0  0  0  0  0  0
    1.5037  -12.9307   25.6590 C   0  0  0  0  0  0  0  0  0  0  0  0
    8.6804   -9.3989   18.4745 H   0  0  0  0  0  0  0  0  0  0  0  0
    7.9030  -10.4670   17.2598 H   0  0  0  0  0  0  0  0  0  0  0  0
    8.9224  -11.0365   18.3723 H   0  0  0  0  0  0  0  0  0  0  0  0
    7.6946  -10.5461   19.9472 H   0  0  0  0  0  0  0  0  0  0  0  0
    6.5662   -7.1295   19.0406 H   0  0  0  0  0  0  0  0  0  0  0  0
    6.5927   -7.4867   20.7558 H   0  0  0  0  0  0  0  0  0  0  0  0
    7.4089   -5.7659   19.9233 H   0  0  0  0  0  0  0  0  0  0  0  0
    8.4157   -4.6113   21.0500 H   0  0  0  0  0  0  0  0  0  0  0  0
    7.8202   -5.8398   22.1107 H   0  0  0  0  0  0  0  0  0  0  0  0
   11.4982   -5.4956   20.2863 H   0  0  0  0  0  0  0  0  0  0  0  0
   13.3572   -5.2125   22.0030 H   0  0  0  0  0  0  0  0  0  0  0  0
    9.3445   -5.5114   24.0444 H   0  0  0  0  0  0  0  0  0  0  0  0
    5.4939  -11.9977   19.2273 H   0  0  0  0  0  0  0  0  0  0  0  0
    6.4299  -12.0896   20.5611 H   0  0  0  0  0  0  0  0  0  0  0  0
    4.3454  -13.5546   21.0732 H   0  0  0  0  0  0  0  0  0  0  0  0
    0.1079  -14.2074   22.8596 H   0  0  0  0  0  0  0  0  0  0  0  0
   -2.1569  -12.9212   28.8908 H   0  0  0  0  0  0  0  0  0  0  0  0
    0.5594  -12.5310   28.5750 H   0  0  0  0  0  0  0  0  0  0  0  0
    2.0501  -13.4591   26.4489 H   0  0  0  0  0  0  0  0  0  0  0  0
  1  2  1  0
  2  3  1  0
  3  4  1  0
  4  5  1  0
  5  6  1  0
  6  7  1  0
  7  8  2  0
  8  9  1  0
  9 10  1  0
  2 11  1  0
 11 12  1  0
 12 13  1  0
 13 14  2  0
 13 15  1  0
 15 16  1  0
 16 17  2  0
 17 18  1  0
 18 19  2  0
 19 20  1  0
 20 21  2  0
 21 22  1  0
 22 23  1  0
 10  6  2  0
 23 15  2  0
 22 18  1  0
  1 24  1  0
  1 25  1  0
  1 26  1  0
  2 27  1  0
  3 28  1  0
  3 29  1  0
  4 30  1  0
  5 31  1  0
  5 32  1  0
  7 33  1  0
  8 34  1  0
 10 35  1  0
 11 36  1  0
 11 37  1  0
 12 38  1  0
 16 39  1  0
 20 40  1  0
 21 41  1  0
 23 42  1  0
M  END
>  <Energy>  (60) 
993.83255325843379

>  <compound_id>  (60) 
35527

>  <target_id>  (60) 
1

>  <reference_id>  (60) 
76

>  <inspiration_ids>  (60) 
[107, 76]

>  <energy_score>  (60) 
943.3729306544153

>  <distance_score>  (60) 
13.698460114889311

>  <path>  (60) 
/opt/xchem-fragalysis-2/maxwin/BulkDock/SCRATCH/511013/C35527-P76/C35527-P76.minimised.mol

>  <scratch_subdir>  (60) 
/opt/xchem-fragalysis-2/maxwin/BulkDock/SCRATCH/511013/C35527-P76

>  <fragmenstein_runtime>  (60) 
12.447041988372803

>  <fragmenstein_outcome>  (60) 
too moved

>  <fragmenstein_mode>  (60) 
expansion

>  <fragmenstein_error>  (60) 


$$$$
C35516-P107
     RDKit          3D

 35 38  0  0  0  0  0  0  0  0999 V2000
   -2.8461  -14.9886   23.1218 O   0  0  0  0  0  0  0  0  0  0  0  0
   -1.7396  -15.2856   24.2936 C   0  0  0  0  0  0  0  0  0  0  0  0
   -0.8589  -14.4375   24.0262 N   0  0  0  0  0  0  0  0  0  0  0  0
   -0.3322  -13.0100   22.6516 C   0  0  0  0  0  0  0  0  0  0  0  0
   -1.4609  -12.3085   21.2239 C   0  0  0  0  0  0  0  0  0  0  0  0
   -1.8710  -11.0538   20.5669 C   0  0  0  0  0  0  0  0  0  0  0  0
   -1.1870   -9.8846   20.8379 C   0  0  0  0  0  0  0  0  0  0  0  0
   -1.1454   -8.8041   19.6929 C   0  0  0  0  0  0  0  0  0  0  0  0
    0.0669   -8.1119   19.2137 C   0  0  0  0  0  0  0  0  0  0  0  0
    0.0196   -7.5025   17.9818 C   0  0  0  0  0  0  0  0  0  0  0  0
   -1.5169   -7.7390   17.2937 S   0  0  0  0  0  0  0  0  0  0  0  0
   -2.0243   -8.7402   18.6187 C   0  0  0  0  0  0  0  0  0  0  0  0
   -0.0913  -10.1176   21.7809 C   0  0  0  0  0  0  0  0  0  0  0  0
    0.4191  -11.5021   22.6456 C   0  0  0  0  0  0  0  0  0  0  0  0
   -2.4779  -16.7127   25.5088 C   0  0  0  0  0  0  0  0  0  0  0  0
   -2.0981  -16.9717   27.1675 C   0  0  0  0  0  0  0  0  0  0  0  0
   -1.0109  -17.8129   27.4319 N   0  0  0  0  0  0  0  0  0  0  0  0
   -1.4812  -19.0787   27.7413 C   0  0  0  0  0  0  0  0  0  0  0  0
   -1.5247  -19.9005   28.7804 N   0  0  0  0  0  0  0  0  0  0  0  0
   -2.8490  -20.2156   28.9063 C   0  0  0  0  0  0  0  0  0  0  0  0
   -3.5316  -19.6521   27.8530 C   0  0  0  0  0  0  0  0  0  0  0  0
   -2.5162  -19.1952   26.9443 N   0  0  0  0  0  0  0  0  0  0  0  0
   -2.2391  -18.1026   25.7463 C   0  0  0  0  0  0  0  0  0  0  0  0
   -0.0022  -13.8989   24.1827 H   0  0  0  0  0  0  0  0  0  0  0  0
   -2.0201  -13.1182   20.7008 H   0  0  0  0  0  0  0  0  0  0  0  0
   -2.5956  -11.1275   19.7623 H   0  0  0  0  0  0  0  0  0  0  0  0
    0.9131   -8.0963   19.8519 H   0  0  0  0  0  0  0  0  0  0  0  0
    0.7935   -6.9401   17.4805 H   0  0  0  0  0  0  0  0  0  0  0  0
   -2.9609   -9.2457   18.5079 H   0  0  0  0  0  0  0  0  0  0  0  0
    0.5900   -9.2604   21.7851 H   0  0  0  0  0  0  0  0  0  0  0  0
    1.3801  -11.6576   23.1577 H   0  0  0  0  0  0  0  0  0  0  0  0
   -3.0263  -16.9078   27.7817 H   0  0  0  0  0  0  0  0  0  0  0  0
   -3.2339  -20.7647   29.7550 H   0  0  0  0  0  0  0  0  0  0  0  0
   -4.5822  -19.6223   27.6192 H   0  0  0  0  0  0  0  0  0  0  0  0
   -1.7886  -18.7751   25.1640 H   0  0  0  0  0  0  0  0  0  0  0  0
  1  2  2  0
  2  3  1  0
  3  4  1  0
  4  5  2  0
  5  6  1  0
  6  7  2  0
  7  8  1  0
  8  9  1  0
  9 10  2  0
 10 11  1  0
 11 12  1  0
  7 13  1  0
 13 14  2  0
  2 15  1  0
 15 16  1  0
 16 17  2  0
 17 18  1  0
 18 19  2  0
 19 20  1  0
 20 21  2  0
 21 22  1  0
 22 23  1  0
 14  4  1  0
 23 15  2  0
 12  8  2  0
 22 18  1  0
  3 24  1  0
  5 25  1  0
  6 26  1  0
  9 27  1  0
 10 28  1  0
 12 29  1  0
 13 30  1  0
 14 31  1  0
 16 32  1  0
 20 33  1  0
 21 34  1  0
 23 35  1  0
M  END
>  <Energy>  (61) 
881.33847702268997

>  <compound_id>  (61) 
35516

>  <target_id>  (61) 
1

>  <reference_id>  (61) 
107

>  <inspiration_ids>  (61) 
[107, 76]

>  <energy_score>  (61) 
816.3637969831871

>  <distance_score>  (61) 
13.655440337321911

>  <path>  (61) 
/opt/xchem-fragalysis-2/maxwin/BulkDock/SCRATCH/511013/C35516-P107/C35516-P107.minimised.mol

>  <scratch_subdir>  (61) 
/opt/xchem-fragalysis-2/maxwin/BulkDock/SCRATCH/511013/C35516-P107

>  <fragmenstein_runtime>  (61) 
19.43711280822754

>  <fragmenstein_outcome>  (61) 
too moved

>  <fragmenstein_mode>  (61) 
expansion

>  <fragmenstein_error>  (61) 


$$$$
C35516-P76
     RDKit          3D

 35 38  0  0  0  0  0  0  0  0999 V2000
    1.1655  -11.7059   23.5707 O   0  0  0  0  0  0  0  0  0  0  0  0
    2.0038  -12.2963   24.0825 C   0  0  0  0  0  0  0  0  0  0  0  0
    3.3089  -12.4096   23.6197 N   0  0  0  0  0  0  0  0  0  0  0  0
    4.1882  -11.5988   22.2095 C   0  0  0  0  0  0  0  0  0  0  0  0
    5.3869  -10.5029   22.6871 C   0  0  0  0  0  0  0  0  0  0  0  0
    6.7036   -9.9542   22.0788 C   0  0  0  0  0  0  0  0  0  0  0  0
    7.1161  -10.1876   20.7557 C   0  0  0  0  0  0  0  0  0  0  0  0
    7.7390   -8.8755   19.9191 C   0  0  0  0  0  0  0  0  0  0  0  0
    6.7744   -7.9233   19.3607 C   0  0  0  0  0  0  0  0  0  0  0  0
    7.1104   -6.5727   19.1136 C   0  0  0  0  0  0  0  0  0  0  0  0
    9.4230   -6.0064   19.2654 S   0  0  0  0  0  0  0  0  0  0  0  0
    9.1011   -8.2736   19.9245 C   0  0  0  0  0  0  0  0  0  0  0  0
    6.3098  -11.3041   20.2423 C   0  0  0  0  0  0  0  0  0  0  0  0
    4.9965  -12.0626   20.9203 C   0  0  0  0  0  0  0  0  0  0  0  0
    1.3583  -13.0053   25.8824 C   0  0  0  0  0  0  0  0  0  0  0  0
    0.0194  -12.4066   26.6990 C   0  0  0  0  0  0  0  0  0  0  0  0
   -0.7929  -12.6962   27.6774 N   0  0  0  0  0  0  0  0  0  0  0  0
   -0.2926  -13.5886   28.5313 C   0  0  0  0  0  0  0  0  0  0  0  0
   -0.7464  -14.0094   29.6913 N   0  0  0  0  0  0  0  0  0  0  0  0
    0.2955  -14.6938   30.2550 C   0  0  0  0  0  0  0  0  0  0  0  0
    1.3921  -14.6806   29.4221 C   0  0  0  0  0  0  0  0  0  0  0  0
    1.0135  -13.9533   28.3121 N   0  0  0  0  0  0  0  0  0  0  0  0
    1.7512  -13.5998   27.1319 C   0  0  0  0  0  0  0  0  0  0  0  0
    3.7776  -13.0349   24.2056 H   0  0  0  0  0  0  0  0  0  0  0  0
    5.2714   -9.9121   23.5820 H   0  0  0  0  0  0  0  0  0  0  0  0
    7.1464   -9.1410   22.6505 H   0  0  0  0  0  0  0  0  0  0  0  0
    5.7665   -8.2467   19.1717 H   0  0  0  0  0  0  0  0  0  0  0  0
    6.4800   -5.7081   18.9002 H   0  0  0  0  0  0  0  0  0  0  0  0
    9.9980   -8.6468   20.3974 H   0  0  0  0  0  0  0  0  0  0  0  0
    6.4947  -11.6320   19.2124 H   0  0  0  0  0  0  0  0  0  0  0  0
    4.6129  -12.8926   20.3362 H   0  0  0  0  0  0  0  0  0  0  0  0
   -0.1054  -11.3710   26.5403 H   0  0  0  0  0  0  0  0  0  0  0  0
    0.2014  -15.1611   31.2269 H   0  0  0  0  0  0  0  0  0  0  0  0
    2.3779  -15.1107   29.5156 H   0  0  0  0  0  0  0  0  0  0  0  0
    2.7871  -13.8929   27.3099 H   0  0  0  0  0  0  0  0  0  0  0  0
  1  2  2  0
  2  3  1  0
  3  4  1  0
  4  5  2  0
  5  6  1  0
  6  7  2  0
  7  8  1  0
  8  9  1  0
  9 10  2  0
 10 11  1  0
 11 12  1  0
  7 13  1  0
 13 14  2  0
  2 15  1  0
 15 16  1  0
 16 17  2  0
 17 18  1  0
 18 19  2  0
 19 20  1  0
 20 21  2  0
 21 22  1  0
 22 23  1  0
 14  4  1  0
 23 15  2  0
 12  8  2  0
 22 18  1  0
  3 24  1  0
  5 25  1  0
  6 26  1  0
  9 27  1  0
 10 28  1  0
 12 29  1  0
 13 30  1  0
 14 31  1  0
 16 32  1  0
 20 33  1  0
 21 34  1  0
 23 35  1  0
M  END
>  <Energy>  (62) 
561.67469038386787

>  <compound_id>  (62) 
35516

>  <target_id>  (62) 
1

>  <reference_id>  (62) 
76

>  <inspiration_ids>  (62) 
[107, 76]

>  <energy_score>  (62) 
496.70001034435336

>  <distance_score>  (62) 
13.89644735813576

>  <path>  (62) 
/opt/xchem-fragalysis-2/maxwin/BulkDock/SCRATCH/511013/C35516-P76/C35516-P76.minimised.mol

>  <scratch_subdir>  (62) 
/opt/xchem-fragalysis-2/maxwin/BulkDock/SCRATCH/511013/C35516-P76

>  <fragmenstein_runtime>  (62) 
14.784534454345703

>  <fragmenstein_outcome>  (62) 
too moved

>  <fragmenstein_mode>  (62) 
expansion

>  <fragmenstein_error>  (62) 


$$$$
C35528-P107
     RDKit          3D

 38 40  0  0  0  0  0  0  0  0999 V2000
   -4.2975  -20.1838   24.6778 O   0  0  0  0  0  0  0  0  0  0  0  0
   -3.2381  -20.2745   25.2619 C   0  0  0  0  0  0  0  0  0  0  0  0
   -2.2129  -19.0751   25.7494 N   0  0  0  0  0  0  0  0  0  0  0  0
   -2.2675  -17.2854   25.4711 C   0  0  0  0  0  0  0  0  0  0  0  0
   -1.6639  -15.4968   24.5213 C   0  0  0  0  0  0  0  0  0  0  0  0
    0.0497  -14.0643   23.4581 S   0  0  0  0  0  0  0  0  0  0  0  0
    2.3764  -13.3125   23.8181 C   0  0  0  0  0  0  0  0  0  0  0  0
    3.4342  -12.1901   22.6605 C   0  0  0  0  0  0  0  0  0  0  0  0
    5.0276  -11.0670   22.4553 C   0  0  0  0  0  0  0  0  0  0  0  0
    5.9718  -11.5305   20.9798 C   0  0  0  0  0  0  0  0  0  0  0  0
    7.3598  -11.5332   21.0918 C   0  0  0  0  0  0  0  0  0  0  0  0
    7.9405  -11.2733   22.7119 S   0  0  0  0  0  0  0  0  0  0  0  0
    6.2734  -11.0548   23.4056 C   0  0  0  0  0  0  0  0  0  0  0  0
   -2.8519  -21.7716   25.4157 C   0  0  0  0  0  0  0  0  0  0  0  0
   -2.3007  -22.6902   26.4845 C   0  0  0  0  0  0  0  0  0  0  0  0
   -2.0810  -23.9684   26.4183 N   0  0  0  0  0  0  0  0  0  0  0  0
   -2.4217  -24.5534   25.2451 C   0  0  0  0  0  0  0  0  0  0  0  0
   -2.1238  -25.7510   24.7936 N   0  0  0  0  0  0  0  0  0  0  0  0
   -2.7553  -25.8574   23.5786 C   0  0  0  0  0  0  0  0  0  0  0  0
   -3.4398  -24.7068   23.2768 C   0  0  0  0  0  0  0  0  0  0  0  0
   -3.1314  -23.8511   24.2924 N   0  0  0  0  0  0  0  0  0  0  0  0
   -3.3313  -22.4977   24.3782 C   0  0  0  0  0  0  0  0  0  0  0  0
   -1.4618  -19.4720   26.2781 H   0  0  0  0  0  0  0  0  0  0  0  0
   -2.6129  -16.9807   26.4762 H   0  0  0  0  0  0  0  0  0  0  0  0
   -1.2486  -17.6848   25.7319 H   0  0  0  0  0  0  0  0  0  0  0  0
   -1.9563  -14.7698   25.3074 H   0  0  0  0  0  0  0  0  0  0  0  0
   -2.5378  -15.3737   23.8764 H   0  0  0  0  0  0  0  0  0  0  0  0
    2.1280  -12.7881   24.6962 H   0  0  0  0  0  0  0  0  0  0  0  0
    3.0452  -14.1753   23.7307 H   0  0  0  0  0  0  0  0  0  0  0  0
    2.7844  -11.4237   22.9250 H   0  0  0  0  0  0  0  0  0  0  0  0
    3.4616  -12.7031   21.7024 H   0  0  0  0  0  0  0  0  0  0  0  0
    5.4479  -12.0147   20.1613 H   0  0  0  0  0  0  0  0  0  0  0  0
    8.0736  -11.8119   20.3287 H   0  0  0  0  0  0  0  0  0  0  0  0
    6.3459  -11.2168   24.4627 H   0  0  0  0  0  0  0  0  0  0  0  0
   -1.9566  -22.2546   27.4320 H   0  0  0  0  0  0  0  0  0  0  0  0
   -2.6933  -26.7655   22.9926 H   0  0  0  0  0  0  0  0  0  0  0  0
   -4.0403  -24.4169   22.4262 H   0  0  0  0  0  0  0  0  0  0  0  0
   -3.8436  -22.0729   23.5221 H   0  0  0  0  0  0  0  0  0  0  0  0
  1  2  2  0
  2  3  1  0
  3  4  1  0
  4  5  1  0
  5  6  1  0
  6  7  1  0
  7  8  1  0
  8  9  1  0
  9 10  1  0
 10 11  2  0
 11 12  1  0
 12 13  1  0
  2 14  1  0
 14 15  1  0
 15 16  2  0
 16 17  1  0
 17 18  2  0
 18 19  1  0
 19 20  2  0
 20 21  1  0
 21 22  1  0
 13  9  2  0
 22 14  2  0
 21 17  1  0
  3 23  1  0
  4 24  1  0
  4 25  1  0
  5 26  1  0
  5 27  1  0
  7 28  1  0
  7 29  1  0
  8 30  1  0
  8 31  1  0
 10 32  1  0
 11 33  1  0
 13 34  1  0
 15 35  1  0
 19 36  1  0
 20 37  1  0
 22 38  1  0
M  END
>  <Energy>  (63) 
693.3048547972777

>  <compound_id>  (63) 
35528

>  <target_id>  (63) 
1

>  <reference_id>  (63) 
107

>  <inspiration_ids>  (63) 
[107, 76]

>  <energy_score>  (63) 
623.2311551154502

>  <distance_score>  (63) 
12.198652947671112

>  <path>  (63) 
/opt/xchem-fragalysis-2/maxwin/BulkDock/SCRATCH/511013/C35528-P107/C35528-P107.minimised.mol

>  <scratch_subdir>  (63) 
/opt/xchem-fragalysis-2/maxwin/BulkDock/SCRATCH/511013/C35528-P107

>  <fragmenstein_runtime>  (63) 
25.624743700027466

>  <fragmenstein_outcome>  (63) 
too moved

>  <fragmenstein_mode>  (63) 
expansion

>  <fragmenstein_error>  (63) 


$$$$
C35528-P76
     RDKit          3D

 38 40  0  0  0  0  0  0  0  0999 V2000
   -5.5238  -19.1911   27.0536 O   0  0  0  0  0  0  0  0  0  0  0  0
   -5.2095  -18.2136   27.7531 C   0  0  0  0  0  0  0  0  0  0  0  0
   -3.8364  -17.0506   27.5811 N   0  0  0  0  0  0  0  0  0  0  0  0
   -2.6686  -16.8934   26.3728 C   0  0  0  0  0  0  0  0  0  0  0  0
   -2.4509  -15.2932   25.1385 C   0  0  0  0  0  0  0  0  0  0  0  0
   -0.6878  -14.2099   24.0032 S   0  0  0  0  0  0  0  0  0  0  0  0
   -0.3240  -12.1956   22.6712 C   0  0  0  0  0  0  0  0  0  0  0  0
   -0.4064  -10.3732   22.0293 C   0  0  0  0  0  0  0  0  0  0  0  0
   -1.2039   -9.4931   21.0844 C   0  0  0  0  0  0  0  0  0  0  0  0
   -2.1612   -9.7808   20.0780 C   0  0  0  0  0  0  0  0  0  0  0  0
   -2.2868   -8.7405   19.1687 C   0  0  0  0  0  0  0  0  0  0  0  0
   -1.3601   -7.3654   19.5739 S   0  0  0  0  0  0  0  0  0  0  0  0
   -0.7823   -8.1558   20.9620 C   0  0  0  0  0  0  0  0  0  0  0  0
   -6.3510  -17.9646   28.9204 C   0  0  0  0  0  0  0  0  0  0  0  0
   -7.1813  -16.7450   29.1322 C   0  0  0  0  0  0  0  0  0  0  0  0
   -8.3946  -16.6069   28.6806 N   0  0  0  0  0  0  0  0  0  0  0  0
   -8.9691  -17.7839   28.3937 C   0  0  0  0  0  0  0  0  0  0  0  0
   -9.3900  -18.5443   27.5007 N   0  0  0  0  0  0  0  0  0  0  0  0
   -9.4833  -20.5078   27.6863 C   0  0  0  0  0  0  0  0  0  0  0  0
   -9.9489  -20.4465   28.9562 C   0  0  0  0  0  0  0  0  0  0  0  0
   -8.5220  -19.1297   28.5652 N   0  0  0  0  0  0  0  0  0  0  0  0
   -7.1493  -19.0104   28.6667 C   0  0  0  0  0  0  0  0  0  0  0  0
   -3.8723  -16.3564   28.3128 H   0  0  0  0  0  0  0  0  0  0  0  0
   -2.2707  -17.8277   25.9566 H   0  0  0  0  0  0  0  0  0  0  0  0
   -1.9814  -16.7240   27.2103 H   0  0  0  0  0  0  0  0  0  0  0  0
   -3.2687  -15.3639   24.4128 H   0  0  0  0  0  0  0  0  0  0  0  0
   -1.9570  -15.9625   24.5667 H   0  0  0  0  0  0  0  0  0  0  0  0
    0.6882  -11.7717   22.9240 H   0  0  0  0  0  0  0  0  0  0  0  0
   -1.2194  -12.0737   21.7940 H   0  0  0  0  0  0  0  0  0  0  0  0
    0.5241  -10.3215   21.4774 H   0  0  0  0  0  0  0  0  0  0  0  0
   -0.2674   -9.6667   22.7915 H   0  0  0  0  0  0  0  0  0  0  0  0
   -2.6327  -10.7431   19.9291 H   0  0  0  0  0  0  0  0  0  0  0  0
   -2.8770   -8.7295   18.2651 H   0  0  0  0  0  0  0  0  0  0  0  0
   -0.0563   -7.6490   21.5832 H   0  0  0  0  0  0  0  0  0  0  0  0
   -6.6605  -15.8772   29.5671 H   0  0  0  0  0  0  0  0  0  0  0  0
   -8.4581  -21.0335   27.4373 H   0  0  0  0  0  0  0  0  0  0  0  0
  -10.7934  -20.2750   29.5818 H   0  0  0  0  0  0  0  0  0  0  0  0
   -6.9105  -19.7663   27.9639 H   0  0  0  0  0  0  0  0  0  0  0  0
  1  2  2  0
  2  3  1  0
  3  4  1  0
  4  5  1  0
  5  6  1  0
  6  7  1  0
  7  8  1  0
  8  9  1  0
  9 10  1  0
 10 11  2  0
 11 12  1  0
 12 13  1  0
  2 14  1  0
 14 15  1  0
 15 16  2  0
 16 17  1  0
 17 18  2  0
 18 19  1  0
 19 20  2  0
 20 21  1  0
 21 22  1  0
 13  9  2  0
 22 14  2  0
 21 17  1  0
  3 23  1  0
  4 24  1  0
  4 25  1  0
  5 26  1  0
  5 27  1  0
  7 28  1  0
  7 29  1  0
  8 30  1  0
  8 31  1  0
 10 32  1  0
 11 33  1  0
 13 34  1  0
 15 35  1  0
 19 36  1  0
 20 37  1  0
 22 38  1  0
M  END
>  <Energy>  (64) 
1003.4511528200359

>  <compound_id>  (64) 
35528

>  <target_id>  (64) 
1

>  <reference_id>  (64) 
76

>  <inspiration_ids>  (64) 
[107, 76]

>  <energy_score>  (64) 
933.3774531382159

>  <distance_score>  (64) 
11.872693401830174

>  <path>  (64) 
/opt/xchem-fragalysis-2/maxwin/BulkDock/SCRATCH/511013/C35528-P76/C35528-P76.minimised.mol

>  <scratch_subdir>  (64) 
/opt/xchem-fragalysis-2/maxwin/BulkDock/SCRATCH/511013/C35528-P76

>  <fragmenstein_runtime>  (64) 
12.20018458366394

>  <fragmenstein_outcome>  (64) 
too moved

>  <fragmenstein_mode>  (64) 
expansion

>  <fragmenstein_error>  (64) 


$$$$
C35531-P107
     RDKit          3D

 43 45  0  0  0  0  0  0  0  0999 V2000
    4.1752   -1.1205   19.6762 C   0  0  0  0  0  0  0  0  0  0  0  0
    5.4002   -1.6422   20.2846 N   0  0  0  0  0  0  0  0  0  0  0  0
    6.3007   -0.5291   20.6070 C   0  0  0  0  0  0  0  0  0  0  0  0
    5.1163   -2.4222   21.5232 C   0  0  0  0  0  0  0  0  0  0  0  0
    4.1162   -3.6520   21.4127 C   0  0  0  0  0  0  0  0  0  0  0  0
    3.8386   -4.4874   22.6789 N   0  0  0  0  0  0  0  0  0  0  0  0
    4.8677   -5.5503   22.8543 C   0  0  0  0  0  0  0  0  0  0  0  0
    6.3015   -5.2550   22.4464 C   0  0  0  0  0  0  0  0  0  0  0  0
    7.2883   -4.5821   23.2488 C   0  0  0  0  0  0  0  0  0  0  0  0
    8.5411   -4.5717   22.6731 C   0  0  0  0  0  0  0  0  0  0  0  0
    8.5653   -5.4425   21.2138 S   0  0  0  0  0  0  0  0  0  0  0  0
    6.8843   -5.7090   21.2722 C   0  0  0  0  0  0  0  0  0  0  0  0
    2.3834   -5.1001   22.6142 C   0  0  0  0  0  0  0  0  0  0  0  0
    1.4188   -5.9723   23.6325 C   0  0  0  0  0  0  0  0  0  0  0  0
    0.1296   -6.5320   22.9783 C   0  0  0  0  0  0  0  0  0  0  0  0
   -0.9262   -7.0665   23.5292 N   0  0  0  0  0  0  0  0  0  0  0  0
   -0.9076   -7.1955   24.8853 C   0  0  0  0  0  0  0  0  0  0  0  0
   -1.8389   -7.6842   25.6950 N   0  0  0  0  0  0  0  0  0  0  0  0
   -1.2851   -7.6892   26.9486 C   0  0  0  0  0  0  0  0  0  0  0  0
    0.0073   -7.2144   26.9030 C   0  0  0  0  0  0  0  0  0  0  0  0
    0.2558   -6.8756   25.5827 N   0  0  0  0  0  0  0  0  0  0  0  0
    1.3901   -6.2668   24.9599 C   0  0  0  0  0  0  0  0  0  0  0  0
    3.5447   -1.9354   19.3067 H   0  0  0  0  0  0  0  0  0  0  0  0
    4.4127   -0.5048   18.8009 H   0  0  0  0  0  0  0  0  0  0  0  0
    3.5912   -0.5122   20.3759 H   0  0  0  0  0  0  0  0  0  0  0  0
    6.5665    0.0251   19.6998 H   0  0  0  0  0  0  0  0  0  0  0  0
    7.2402   -0.9035   21.0286 H   0  0  0  0  0  0  0  0  0  0  0  0
    5.8553    0.1719   21.3221 H   0  0  0  0  0  0  0  0  0  0  0  0
    4.7078   -1.7505   22.2911 H   0  0  0  0  0  0  0  0  0  0  0  0
    6.0758   -2.7672   21.8996 H   0  0  0  0  0  0  0  0  0  0  0  0
    4.4056   -4.3131   20.5867 H   0  0  0  0  0  0  0  0  0  0  0  0
    3.1530   -3.2156   21.1221 H   0  0  0  0  0  0  0  0  0  0  0  0
    4.5729   -6.4478   22.3165 H   0  0  0  0  0  0  0  0  0  0  0  0
    4.8679   -5.8303   23.9155 H   0  0  0  0  0  0  0  0  0  0  0  0
    7.0814   -4.1379   24.2156 H   0  0  0  0  0  0  0  0  0  0  0  0
    9.4503   -4.1387   23.0698 H   0  0  0  0  0  0  0  0  0  0  0  0
    6.3963   -6.2515   20.4749 H   0  0  0  0  0  0  0  0  0  0  0  0
    1.7610   -4.2010   22.4887 H   0  0  0  0  0  0  0  0  0  0  0  0
    2.3284   -5.6140   21.6497 H   0  0  0  0  0  0  0  0  0  0  0  0
    0.1185   -6.4356   21.8783 H   0  0  0  0  0  0  0  0  0  0  0  0
   -1.8412   -8.0327   27.8114 H   0  0  0  0  0  0  0  0  0  0  0  0
    0.7553   -7.0661   27.6675 H   0  0  0  0  0  0  0  0  0  0  0  0
    2.1876   -5.9687   25.6290 H   0  0  0  0  0  0  0  0  0  0  0  0
  1  2  1  0
  2  3  1  0
  2  4  1  0
  4  5  1  0
  5  6  1  0
  6  7  1  0
  7  8  1  0
  8  9  1  0
  9 10  2  0
 10 11  1  0
 11 12  1  0
  6 13  1  0
 13 14  1  0
 14 15  1  0
 15 16  2  0
 16 17  1  0
 17 18  2  0
 18 19  1  0
 19 20  2  0
 20 21  1  0
 21 22  1  0
 12  8  2  0
 22 14  2  0
 21 17  1  0
  1 23  1  0
  1 24  1  0
  1 25  1  0
  3 26  1  0
  3 27  1  0
  3 28  1  0
  4 29  1  0
  4 30  1  0
  5 31  1  0
  5 32  1  0
  7 33  1  0
  7 34  1  0
  9 35  1  0
 10 36  1  0
 12 37  1  0
 13 38  1  0
 13 39  1  0
 15 40  1  0
 19 41  1  0
 20 42  1  0
 22 43  1  0
M  END
>  <Energy>  (65) 
97.582902516044186

>  <compound_id>  (65) 
35531

>  <target_id>  (65) 
1

>  <reference_id>  (65) 
107

>  <inspiration_ids>  (65) 
[107, 76]

>  <energy_score>  (65) 
-31.609043005459853

>  <distance_score>  (65) 
16.880290587611455

>  <path>  (65) 
/opt/xchem-fragalysis-2/maxwin/BulkDock/SCRATCH/511013/C35531-P107/C35531-P107.minimised.mol

>  <scratch_subdir>  (65) 
/opt/xchem-fragalysis-2/maxwin/BulkDock/SCRATCH/511013/C35531-P107

>  <fragmenstein_runtime>  (65) 
11.072928667068481

>  <fragmenstein_outcome>  (65) 
too moved

>  <fragmenstein_mode>  (65) 
expansion

>  <fragmenstein_error>  (65) 


$$$$
C35531-P76
     RDKit          3D

 43 45  0  0  0  0  0  0  0  0999 V2000
   -0.3758   -7.6217   27.7707 C   0  0  0  0  0  0  0  0  0  0  0  0
    0.7207   -8.5872   27.9115 N   0  0  0  0  0  0  0  0  0  0  0  0
    1.5618   -8.1682   29.0456 C   0  0  0  0  0  0  0  0  0  0  0  0
    0.1971   -9.9622   28.1393 C   0  0  0  0  0  0  0  0  0  0  0  0
    1.0920  -11.1165   27.4513 C   0  0  0  0  0  0  0  0  0  0  0  0
    0.8829  -11.9005   25.9707 N   0  0  0  0  0  0  0  0  0  0  0  0
    1.2032  -11.4857   23.9619 C   0  0  0  0  0  0  0  0  0  0  0  0
    0.0102  -10.4268   22.5770 C   0  0  0  0  0  0  0  0  0  0  0  0
    0.1501   -8.7341   22.2553 C   0  0  0  0  0  0  0  0  0  0  0  0
   -0.6720   -8.1396   21.3432 C   0  0  0  0  0  0  0  0  0  0  0  0
   -1.8358   -9.2385   20.8689 S   0  0  0  0  0  0  0  0  0  0  0  0
   -0.9993  -10.5844   21.5755 C   0  0  0  0  0  0  0  0  0  0  0  0
   -0.7028  -12.5512   26.6035 C   0  0  0  0  0  0  0  0  0  0  0  0
   -1.3131  -13.4827   27.7610 C   0  0  0  0  0  0  0  0  0  0  0  0
   -0.6620  -14.1086   28.9531 C   0  0  0  0  0  0  0  0  0  0  0  0
   -1.1786  -14.9645   29.7969 N   0  0  0  0  0  0  0  0  0  0  0  0
   -2.4664  -15.3749   29.5897 C   0  0  0  0  0  0  0  0  0  0  0  0
   -3.2104  -16.2350   30.2619 N   0  0  0  0  0  0  0  0  0  0  0  0
   -4.4197  -16.2930   29.6160 C   0  0  0  0  0  0  0  0  0  0  0  0
   -4.4219  -15.4463   28.5312 C   0  0  0  0  0  0  0  0  0  0  0  0
   -3.1753  -14.8599   28.5208 N   0  0  0  0  0  0  0  0  0  0  0  0
   -2.6039  -13.9324   27.6420 C   0  0  0  0  0  0  0  0  0  0  0  0
   -0.9987   -7.8655   26.9041 H   0  0  0  0  0  0  0  0  0  0  0  0
    0.0190   -6.6148   27.5947 H   0  0  0  0  0  0  0  0  0  0  0  0
   -1.0180   -7.5933   28.6586 H   0  0  0  0  0  0  0  0  0  0  0  0
    2.0166   -7.1919   28.8435 H   0  0  0  0  0  0  0  0  0  0  0  0
    0.9905   -8.0938   29.9786 H   0  0  0  0  0  0  0  0  0  0  0  0
    2.3835   -8.8738   29.2091 H   0  0  0  0  0  0  0  0  0  0  0  0
    0.1695  -10.1762   29.2176 H   0  0  0  0  0  0  0  0  0  0  0  0
   -0.8489  -10.0367   27.8412 H   0  0  0  0  0  0  0  0  0  0  0  0
    2.0498  -10.6860   27.6530 H   0  0  0  0  0  0  0  0  0  0  0  0
    1.0686  -11.9596   28.1535 H   0  0  0  0  0  0  0  0  0  0  0  0
    0.6924  -11.9620   23.1412 H   0  0  0  0  0  0  0  0  0  0  0  0
    2.2260  -11.8324   23.7075 H   0  0  0  0  0  0  0  0  0  0  0  0
    0.8683   -8.0980   22.7677 H   0  0  0  0  0  0  0  0  0  0  0  0
   -0.6916   -7.1040   21.0353 H   0  0  0  0  0  0  0  0  0  0  0  0
   -1.5117  -11.4635   21.2162 H   0  0  0  0  0  0  0  0  0  0  0  0
   -1.2621  -11.6460   26.8106 H   0  0  0  0  0  0  0  0  0  0  0  0
   -1.2501  -13.0496   25.7997 H   0  0  0  0  0  0  0  0  0  0  0  0
    0.3860  -13.8124   29.1193 H   0  0  0  0  0  0  0  0  0  0  0  0
   -5.2129  -16.9410   29.9700 H   0  0  0  0  0  0  0  0  0  0  0  0
   -5.1734  -15.2179   27.7911 H   0  0  0  0  0  0  0  0  0  0  0  0
   -3.2453  -13.6222   26.8254 H   0  0  0  0  0  0  0  0  0  0  0  0
  1  2  1  0
  2  3  1  0
  2  4  1  0
  4  5  1  0
  5  6  1  0
  6  7  1  0
  7  8  1  0
  8  9  1  0
  9 10  2  0
 10 11  1  0
 11 12  1  0
  6 13  1  0
 13 14  1  0
 14 15  1  0
 15 16  2  0
 16 17  1  0
 17 18  2  0
 18 19  1  0
 19 20  2  0
 20 21  1  0
 21 22  1  0
 12  8  2  0
 22 14  2  0
 21 17  1  0
  1 23  1  0
  1 24  1  0
  1 25  1  0
  3 26  1  0
  3 27  1  0
  3 28  1  0
  4 29  1  0
  4 30  1  0
  5 31  1  0
  5 32  1  0
  7 33  1  0
  7 34  1  0
  9 35  1  0
 10 36  1  0
 12 37  1  0
 13 38  1  0
 13 39  1  0
 15 40  1  0
 19 41  1  0
 20 42  1  0
 22 43  1  0
M  END
>  <Energy>  (66) 
523.50543492235511

>  <compound_id>  (66) 
35531

>  <target_id>  (66) 
1

>  <reference_id>  (66) 
76

>  <inspiration_ids>  (66) 
[107, 76]

>  <energy_score>  (66) 
394.3134894008531

>  <distance_score>  (66) 
17.135720296044944

>  <path>  (66) 
/opt/xchem-fragalysis-2/maxwin/BulkDock/SCRATCH/511013/C35531-P76/C35531-P76.minimised.mol

>  <scratch_subdir>  (66) 
/opt/xchem-fragalysis-2/maxwin/BulkDock/SCRATCH/511013/C35531-P76

>  <fragmenstein_runtime>  (66) 
9.537964105606079

>  <fragmenstein_outcome>  (66) 
too moved

>  <fragmenstein_mode>  (66) 
expansion

>  <fragmenstein_error>  (66) 


$$$$
C35532-P107
     RDKit          3D

 26 28  0  0  0  0  0  0  0  0999 V2000
    2.1131  -10.0286   23.6405 O   0  0  0  0  0  0  0  0  0  0  0  0
    2.6797   -9.6127   24.9069 S   0  0  0  0  0  0  0  0  0  0  0  0
    2.1536   -8.4752   25.6300 O   0  0  0  0  0  0  0  0  0  0  0  0
    2.7254  -10.9562   26.0037 N   0  0  0  0  0  0  0  0  0  0  0  0
    1.5881  -11.5880   26.7347 C   0  0  0  0  0  0  0  0  0  0  0  0
    1.7535  -12.9861   27.3057 C   0  0  0  0  0  0  0  0  0  0  0  0
    0.8978  -13.7036   27.9756 N   0  0  0  0  0  0  0  0  0  0  0  0
   -0.3386  -13.1614   28.1563 C   0  0  0  0  0  0  0  0  0  0  0  0
   -1.4207  -13.7047   28.6854 N   0  0  0  0  0  0  0  0  0  0  0  0
   -2.3804  -12.7321   28.6597 C   0  0  0  0  0  0  0  0  0  0  0  0
   -1.8882  -11.5817   28.0839 C   0  0  0  0  0  0  0  0  0  0  0  0
   -0.5785  -11.8513   27.7436 N   0  0  0  0  0  0  0  0  0  0  0  0
    0.4018  -11.0515   27.0856 C   0  0  0  0  0  0  0  0  0  0  0  0
    4.2931   -9.0694   24.3603 C   0  0  0  0  0  0  0  0  0  0  0  0
    4.9262   -9.5312   23.1477 C   0  0  0  0  0  0  0  0  0  0  0  0
    6.0931   -8.8507   22.8561 C   0  0  0  0  0  0  0  0  0  0  0  0
    6.4429   -7.6566   24.0297 S   0  0  0  0  0  0  0  0  0  0  0  0
    5.0227   -8.0401   24.9272 C   0  0  0  0  0  0  0  0  0  0  0  0
    3.4229  -11.6396   25.7034 H   0  0  0  0  0  0  0  0  0  0  0  0
    2.7585  -13.4128   27.1521 H   0  0  0  0  0  0  0  0  0  0  0  0
   -3.3713  -12.9069   29.0584 H   0  0  0  0  0  0  0  0  0  0  0  0
   -2.3406  -10.6207   27.8890 H   0  0  0  0  0  0  0  0  0  0  0  0
    0.1136  -10.0355   26.8524 H   0  0  0  0  0  0  0  0  0  0  0  0
    4.5162  -10.3009   22.5022 H   0  0  0  0  0  0  0  0  0  0  0  0
    6.7466   -8.9898   22.0043 H   0  0  0  0  0  0  0  0  0  0  0  0
    4.7761   -7.4659   25.8112 H   0  0  0  0  0  0  0  0  0  0  0  0
  1  2  2  0
  2  3  2  0
  2  4  1  0
  4  5  1  0
  5  6  1  0
  6  7  2  0
  7  8  1  0
  8  9  2  0
  9 10  1  0
 10 11  2  0
 11 12  1  0
 12 13  1  0
  2 14  1  0
 14 15  1  0
 15 16  2  0
 16 17  1  0
 17 18  1  0
 13  5  2  0
 18 14  2  0
 12  8  1  0
  4 19  1  0
  6 20  1  0
 10 21  1  0
 11 22  1  0
 13 23  1  0
 15 24  1  0
 16 25  1  0
 18 26  1  0
M  END
>  <Energy>  (67) 
18.959205805142609

>  <compound_id>  (67) 
35532

>  <target_id>  (67) 
1

>  <reference_id>  (67) 
107

>  <inspiration_ids>  (67) 
[107, 76]

>  <energy_score>  (67) 
-31.56397998686586

>  <distance_score>  (67) 
15.82045332951824

>  <path>  (67) 
/opt/xchem-fragalysis-2/maxwin/BulkDock/SCRATCH/511013/C35532-P107/C35532-P107.minimised.mol

>  <scratch_subdir>  (67) 
/opt/xchem-fragalysis-2/maxwin/BulkDock/SCRATCH/511013/C35532-P107

>  <fragmenstein_runtime>  (67) 
10.482905864715576

>  <fragmenstein_outcome>  (67) 
too moved

>  <fragmenstein_mode>  (67) 
expansion

>  <fragmenstein_error>  (67) 


$$$$
C35532-P76
     RDKit          3D

 26 28  0  0  0  0  0  0  0  0999 V2000
    1.1341  -14.0636   23.7937 O   0  0  0  0  0  0  0  0  0  0  0  0
   -0.2083  -13.7842   23.4419 S   0  0  0  0  0  0  0  0  0  0  0  0
   -0.7280  -14.6676   22.4639 O   0  0  0  0  0  0  0  0  0  0  0  0
   -1.5043  -13.8657   25.2556 N   0  0  0  0  0  0  0  0  0  0  0  0
   -1.7825  -13.0913   26.5449 C   0  0  0  0  0  0  0  0  0  0  0  0
   -2.7959  -11.9592   26.6496 C   0  0  0  0  0  0  0  0  0  0  0  0
   -3.6072  -11.6564   27.6303 N   0  0  0  0  0  0  0  0  0  0  0  0
   -3.6187  -12.4861   28.7126 C   0  0  0  0  0  0  0  0  0  0  0  0
   -4.4659  -12.5595   29.7236 N   0  0  0  0  0  0  0  0  0  0  0  0
   -4.1111  -13.6720   30.4485 C   0  0  0  0  0  0  0  0  0  0  0  0
   -3.0279  -14.2933   29.8736 C   0  0  0  0  0  0  0  0  0  0  0  0
   -2.7333  -13.5447   28.7528 N   0  0  0  0  0  0  0  0  0  0  0  0
   -1.8843  -13.8395   27.6822 C   0  0  0  0  0  0  0  0  0  0  0  0
    0.6675  -11.6167   22.9306 C   0  0  0  0  0  0  0  0  0  0  0  0
    2.0523  -11.2778   23.4902 C   0  0  0  0  0  0  0  0  0  0  0  0
    2.4945  -10.0203   23.1402 C   0  0  0  0  0  0  0  0  0  0  0  0
    1.3336   -9.1409   22.2517 S   0  0  0  0  0  0  0  0  0  0  0  0
    0.1854  -10.4421   22.2675 C   0  0  0  0  0  0  0  0  0  0  0  0
   -1.9562  -14.7856   25.1694 H   0  0  0  0  0  0  0  0  0  0  0  0
   -2.8810  -11.3147   25.7679 H   0  0  0  0  0  0  0  0  0  0  0  0
   -4.6566  -13.9623   31.3377 H   0  0  0  0  0  0  0  0  0  0  0  0
   -2.4841  -15.1904   30.1316 H   0  0  0  0  0  0  0  0  0  0  0  0
   -1.4572  -14.8037   27.8428 H   0  0  0  0  0  0  0  0  0  0  0  0
    2.6347  -11.9846   24.0728 H   0  0  0  0  0  0  0  0  0  0  0  0
    3.4462   -9.5687   23.3850 H   0  0  0  0  0  0  0  0  0  0  0  0
   -0.7511  -10.2828   21.7491 H   0  0  0  0  0  0  0  0  0  0  0  0
  1  2  2  0
  2  3  2  0
  2  4  1  0
  4  5  1  0
  5  6  1  0
  6  7  2  0
  7  8  1  0
  8  9  2  0
  9 10  1  0
 10 11  2  0
 11 12  1  0
 12 13  1  0
  2 14  1  0
 14 15  1  0
 15 16  2  0
 16 17  1  0
 17 18  1  0
 13  5  2  0
 18 14  2  0
 12  8  1  0
  4 19  1  0
  6 20  1  0
 10 21  1  0
 11 22  1  0
 13 23  1  0
 15 24  1  0
 16 25  1  0
 18 26  1  0
M  END
>  <Energy>  (68) 
252.855100135068

>  <compound_id>  (68) 
35532

>  <target_id>  (68) 
1

>  <reference_id>  (68) 
76

>  <inspiration_ids>  (68) 
[107, 76]

>  <energy_score>  (68) 
202.33191434305633

>  <distance_score>  (68) 
15.589446932225375

>  <path>  (68) 
/opt/xchem-fragalysis-2/maxwin/BulkDock/SCRATCH/511013/C35532-P76/C35532-P76.minimised.mol

>  <scratch_subdir>  (68) 
/opt/xchem-fragalysis-2/maxwin/BulkDock/SCRATCH/511013/C35532-P76

>  <fragmenstein_runtime>  (68) 
7.1356422901153564

>  <fragmenstein_outcome>  (68) 
too moved

>  <fragmenstein_mode>  (68) 
expansion

>  <fragmenstein_error>  (68) 


$$$$
C35533-P107
     RDKit          3D

 42 44  0  0  0  0  0  0  0  0999 V2000
    8.8327   -6.4447   20.6319 C   0  0  0  0  0  0  0  0  0  0  0  0
    7.6123   -7.3853   20.0749 C   0  0  0  0  0  0  0  0  0  0  0  0
    8.5848   -8.9187   18.8577 N   0  0  0  0  0  0  0  0  0  0  0  0
    9.2376   -9.3112   16.8360 C   0  0  0  0  0  0  0  0  0  0  0  0
    9.8691   -7.5647   15.6525 C   0  0  0  0  0  0  0  0  0  0  0  0
   11.8062   -7.0190   15.9803 C   0  0  0  0  0  0  0  0  0  0  0  0
   12.7044   -5.6068   16.2956 C   0  0  0  0  0  0  0  0  0  0  0  0
   11.4410   -4.3134   15.8346 S   0  0  0  0  0  0  0  0  0  0  0  0
   11.0631   -6.2772   16.0969 C   0  0  0  0  0  0  0  0  0  0  0  0
    6.3843   -7.2722   21.9276 C   0  0  0  0  0  0  0  0  0  0  0  0
    7.5324   -7.0547   23.3256 C   0  0  0  0  0  0  0  0  0  0  0  0
    4.6834   -8.3810   22.6004 N   0  0  0  0  0  0  0  0  0  0  0  0
    4.4563  -10.3500   22.9262 C   0  0  0  0  0  0  0  0  0  0  0  0
    5.4493  -10.9491   22.8062 O   0  0  0  0  0  0  0  0  0  0  0  0
    2.8341  -11.7270   23.2517 C   0  0  0  0  0  0  0  0  0  0  0  0
    2.6076  -13.3935   23.6998 C   0  0  0  0  0  0  0  0  0  0  0  0
    1.1997  -14.0489   23.7946 N   0  0  0  0  0  0  0  0  0  0  0  0
    0.5594  -14.1630   25.1720 C   0  0  0  0  0  0  0  0  0  0  0  0
   -0.4142  -14.6976   25.8845 N   0  0  0  0  0  0  0  0  0  0  0  0
   -0.3095  -14.0276   27.0851 C   0  0  0  0  0  0  0  0  0  0  0  0
    0.6681  -13.0385   27.0310 C   0  0  0  0  0  0  0  0  0  0  0  0
    1.2841  -13.1740   25.7606 N   0  0  0  0  0  0  0  0  0  0  0  0
    2.0077  -12.0822   24.5355 C   0  0  0  0  0  0  0  0  0  0  0  0
    8.4144   -5.5742   21.1383 H   0  0  0  0  0  0  0  0  0  0  0  0
    9.4911   -6.0334   19.8922 H   0  0  0  0  0  0  0  0  0  0  0  0
    9.5063   -6.9707   21.3103 H   0  0  0  0  0  0  0  0  0  0  0  0
    7.1113   -6.8032   19.2994 H   0  0  0  0  0  0  0  0  0  0  0  0
    9.3764   -9.2304   19.4421 H   0  0  0  0  0  0  0  0  0  0  0  0
   10.0597  -10.1011   16.7816 H   0  0  0  0  0  0  0  0  0  0  0  0
    8.4574   -9.9423   16.3118 H   0  0  0  0  0  0  0  0  0  0  0  0
   12.4376   -7.8975   15.8855 H   0  0  0  0  0  0  0  0  0  0  0  0
   13.7576   -5.3766   16.3433 H   0  0  0  0  0  0  0  0  0  0  0  0
   10.8352   -5.5802   16.9901 H   0  0  0  0  0  0  0  0  0  0  0  0
    6.2042   -6.4269   22.5352 H   0  0  0  0  0  0  0  0  0  0  0  0
    7.9970   -7.9612   23.7320 H   0  0  0  0  0  0  0  0  0  0  0  0
    6.9474   -6.6838   24.1882 H   0  0  0  0  0  0  0  0  0  0  0  0
    8.2799   -6.2914   23.1031 H   0  0  0  0  0  0  0  0  0  0  0  0
    3.8369   -7.9383   22.8019 H   0  0  0  0  0  0  0  0  0  0  0  0
    3.3779  -14.1437   23.5571 H   0  0  0  0  0  0  0  0  0  0  0  0
   -0.9799  -14.2474   27.9057 H   0  0  0  0  0  0  0  0  0  0  0  0
    0.9594  -12.2628   27.7189 H   0  0  0  0  0  0  0  0  0  0  0  0
    1.7460  -11.4386   25.2999 H   0  0  0  0  0  0  0  0  0  0  0  0
  1  2  1  0
  2  3  1  0
  3  4  1  0
  4  5  1  0
  5  6  1  0
  6  7  2  0
  7  8  1  0
  8  9  1  0
  2 10  1  0
 10 11  1  0
 10 12  1  0
 12 13  1  0
 13 14  2  0
 13 15  1  0
 15 16  1  0
 16 17  2  0
 17 18  1  0
 18 19  2  0
 19 20  1  0
 20 21  2  0
 21 22  1  0
 22 23  1  0
  9  5  2  0
 23 15  2  0
 22 18  1  0
  1 24  1  0
  1 25  1  0
  1 26  1  0
  2 27  1  0
  3 28  1  0
  4 29  1  0
  4 30  1  0
  6 31  1  0
  7 32  1  0
  9 33  1  0
 10 34  1  0
 11 35  1  0
 11 36  1  0
 11 37  1  0
 12 38  1  0
 16 39  1  0
 20 40  1  0
 21 41  1  0
 23 42  1  0
M  END
>  <Energy>  (69) 
2019.6457306713228

>  <compound_id>  (69) 
35533

>  <target_id>  (69) 
1

>  <reference_id>  (69) 
107

>  <inspiration_ids>  (69) 
[107, 76]

>  <energy_score>  (69) 
1934.1136398766193

>  <distance_score>  (69) 
14.114877640242801

>  <path>  (69) 
/opt/xchem-fragalysis-2/maxwin/BulkDock/SCRATCH/511013/C35533-P107/C35533-P107.minimised.mol

>  <scratch_subdir>  (69) 
/opt/xchem-fragalysis-2/maxwin/BulkDock/SCRATCH/511013/C35533-P107

>  <fragmenstein_runtime>  (69) 
21.080094814300537

>  <fragmenstein_outcome>  (69) 
too moved

>  <fragmenstein_mode>  (69) 
expansion

>  <fragmenstein_error>  (69) 


$$$$
C35533-P76
     RDKit          3D

 42 44  0  0  0  0  0  0  0  0999 V2000
    5.3807   -7.1658   15.4447 C   0  0  0  0  0  0  0  0  0  0  0  0
    5.6903   -5.8571   16.2361 C   0  0  0  0  0  0  0  0  0  0  0  0
    7.4053   -5.2865   16.0361 N   0  0  0  0  0  0  0  0  0  0  0  0
    8.1573   -3.5748   15.2460 C   0  0  0  0  0  0  0  0  0  0  0  0
    9.9694   -3.2200   15.1263 C   0  0  0  0  0  0  0  0  0  0  0  0
   11.1391   -3.8689   15.7208 C   0  0  0  0  0  0  0  0  0  0  0  0
   12.3373   -3.2027   15.5766 C   0  0  0  0  0  0  0  0  0  0  0  0
   12.1395   -1.8360   14.6156 S   0  0  0  0  0  0  0  0  0  0  0  0
   10.4393   -1.9522   14.8141 C   0  0  0  0  0  0  0  0  0  0  0  0
    3.9724   -5.2832   16.3890 C   0  0  0  0  0  0  0  0  0  0  0  0
    3.6870   -3.8012   16.1362 C   0  0  0  0  0  0  0  0  0  0  0  0
    2.8829   -5.9483   17.4545 N   0  0  0  0  0  0  0  0  0  0  0  0
    1.5026   -6.5428   17.2213 C   0  0  0  0  0  0  0  0  0  0  0  0
    0.9039   -6.7454   16.1916 O   0  0  0  0  0  0  0  0  0  0  0  0
    0.5713   -7.0410   18.5323 C   0  0  0  0  0  0  0  0  0  0  0  0
    0.5671   -6.6328   19.9887 C   0  0  0  0  0  0  0  0  0  0  0  0
   -0.1465   -7.0813   20.9985 N   0  0  0  0  0  0  0  0  0  0  0  0
   -1.1010   -8.0281   20.7411 C   0  0  0  0  0  0  0  0  0  0  0  0
   -1.9280   -8.6777   21.5556 N   0  0  0  0  0  0  0  0  0  0  0  0
   -2.7607   -9.4053   20.7424 C   0  0  0  0  0  0  0  0  0  0  0  0
   -2.4348   -9.2088   19.4188 C   0  0  0  0  0  0  0  0  0  0  0  0
   -1.3441   -8.3510   19.4142 N   0  0  0  0  0  0  0  0  0  0  0  0
   -0.5287   -7.8476   18.3532 C   0  0  0  0  0  0  0  0  0  0  0  0
    4.7766   -6.9617   14.5522 H   0  0  0  0  0  0  0  0  0  0  0  0
    6.1868   -7.7687   15.0470 H   0  0  0  0  0  0  0  0  0  0  0  0
    4.7814   -7.8298   16.0787 H   0  0  0  0  0  0  0  0  0  0  0  0
    5.8302   -6.1468   17.2812 H   0  0  0  0  0  0  0  0  0  0  0  0
    7.9189   -5.9866   15.4763 H   0  0  0  0  0  0  0  0  0  0  0  0
    7.6655   -2.6985   15.6988 H   0  0  0  0  0  0  0  0  0  0  0  0
    7.8006   -3.2321   14.2494 H   0  0  0  0  0  0  0  0  0  0  0  0
   11.1720   -4.7706   16.3097 H   0  0  0  0  0  0  0  0  0  0  0  0
   13.3082   -3.5040   15.9458 H   0  0  0  0  0  0  0  0  0  0  0  0
    9.8629   -1.0791   14.5567 H   0  0  0  0  0  0  0  0  0  0  0  0
    3.5335   -5.7017   15.4723 H   0  0  0  0  0  0  0  0  0  0  0  0
    4.3494   -3.3872   15.3724 H   0  0  0  0  0  0  0  0  0  0  0  0
    2.6649   -3.6926   15.7501 H   0  0  0  0  0  0  0  0  0  0  0  0
    3.6986   -3.2100   17.0536 H   0  0  0  0  0  0  0  0  0  0  0  0
    3.0383   -5.8469   18.4511 H   0  0  0  0  0  0  0  0  0  0  0  0
    1.2726   -5.8164   20.2128 H   0  0  0  0  0  0  0  0  0  0  0  0
   -3.5581  -10.0153   21.1434 H   0  0  0  0  0  0  0  0  0  0  0  0
   -2.8404   -9.6068   18.5026 H   0  0  0  0  0  0  0  0  0  0  0  0
   -0.8127   -8.1823   17.3653 H   0  0  0  0  0  0  0  0  0  0  0  0
  1  2  1  0
  2  3  1  0
  3  4  1  0
  4  5  1  0
  5  6  1  0
  6  7  2  0
  7  8  1  0
  8  9  1  0
  2 10  1  0
 10 11  1  0
 10 12  1  0
 12 13  1  0
 13 14  2  0
 13 15  1  0
 15 16  1  0
 16 17  2  0
 17 18  1  0
 18 19  2  0
 19 20  1  0
 20 21  2  0
 21 22  1  0
 22 23  1  0
  9  5  2  0
 23 15  2  0
 22 18  1  0
  1 24  1  0
  1 25  1  0
  1 26  1  0
  2 27  1  0
  3 28  1  0
  4 29  1  0
  4 30  1  0
  6 31  1  0
  7 32  1  0
  9 33  1  0
 10 34  1  0
 11 35  1  0
 11 36  1  0
 11 37  1  0
 12 38  1  0
 16 39  1  0
 20 40  1  0
 21 41  1  0
 23 42  1  0
M  END
>  <Energy>  (70) 
315.31784961911939

>  <compound_id>  (70) 
35533

>  <target_id>  (70) 
1

>  <reference_id>  (70) 
76

>  <inspiration_ids>  (70) 
[107, 76]

>  <energy_score>  (70) 
229.78575882442124

>  <distance_score>  (70) 
16.37766837399057

>  <path>  (70) 
/opt/xchem-fragalysis-2/maxwin/BulkDock/SCRATCH/511013/C35533-P76/C35533-P76.minimised.mol

>  <scratch_subdir>  (70) 
/opt/xchem-fragalysis-2/maxwin/BulkDock/SCRATCH/511013/C35533-P76

>  <fragmenstein_runtime>  (70) 
11.836750745773315

>  <fragmenstein_outcome>  (70) 
too moved

>  <fragmenstein_mode>  (70) 
expansion

>  <fragmenstein_error>  (70) 


$$$$
C35536-P107
     RDKit          3D

 33 35  0  0  0  0  0  0  0  0999 V2000
   -6.5625  -17.4457   20.8072 O   0  0  0  0  0  0  0  0  0  0  0  0
   -5.3869  -17.1910   20.8845 C   0  0  0  0  0  0  0  0  0  0  0  0
   -4.1483  -17.5328   19.6901 N   0  0  0  0  0  0  0  0  0  0  0  0
   -4.2660  -18.1233   18.2387 C   0  0  0  0  0  0  0  0  0  0  0  0
   -4.7683  -17.0606   17.0589 C   0  0  0  0  0  0  0  0  0  0  0  0
   -4.1981  -16.4418   15.7345 C   0  0  0  0  0  0  0  0  0  0  0  0
   -3.8568  -15.0195   15.5348 C   0  0  0  0  0  0  0  0  0  0  0  0
   -3.2998  -14.7314   14.3078 C   0  0  0  0  0  0  0  0  0  0  0  0
   -3.2894  -16.0994   13.2989 S   0  0  0  0  0  0  0  0  0  0  0  0
   -3.9676  -17.0950   14.5323 C   0  0  0  0  0  0  0  0  0  0  0  0
   -4.4909  -16.2298   22.1938 N   0  0  0  0  0  0  0  0  0  0  0  0
   -5.2027  -15.2561   23.7023 C   0  0  0  0  0  0  0  0  0  0  0  0
   -7.0438  -15.1048   23.9483 C   0  0  0  0  0  0  0  0  0  0  0  0
   -8.1738  -15.8148   25.0115 N   0  0  0  0  0  0  0  0  0  0  0  0
   -8.6852  -14.7602   25.7658 C   0  0  0  0  0  0  0  0  0  0  0  0
   -9.3665  -14.5431   26.8500 N   0  0  0  0  0  0  0  0  0  0  0  0
   -8.7935  -13.3805   27.3380 C   0  0  0  0  0  0  0  0  0  0  0  0
   -7.7256  -12.9479   26.5515 C   0  0  0  0  0  0  0  0  0  0  0  0
   -7.7535  -13.7871   25.4736 N   0  0  0  0  0  0  0  0  0  0  0  0
   -6.7519  -14.7349   24.3649 C   0  0  0  0  0  0  0  0  0  0  0  0
   -3.2644  -17.1301   19.9917 H   0  0  0  0  0  0  0  0  0  0  0  0
   -5.0257  -18.9070   18.3186 H   0  0  0  0  0  0  0  0  0  0  0  0
   -3.3002  -18.5665   17.9905 H   0  0  0  0  0  0  0  0  0  0  0  0
   -4.8271  -16.1540   17.5980 H   0  0  0  0  0  0  0  0  0  0  0  0
   -5.7860  -17.3834   16.7997 H   0  0  0  0  0  0  0  0  0  0  0  0
   -3.9803  -14.2517   16.2779 H   0  0  0  0  0  0  0  0  0  0  0  0
   -2.9224  -13.7940   13.9331 H   0  0  0  0  0  0  0  0  0  0  0  0
   -4.1284  -18.1419   14.3186 H   0  0  0  0  0  0  0  0  0  0  0  0
   -3.5018  -16.2625   22.0264 H   0  0  0  0  0  0  0  0  0  0  0  0
   -7.3203  -13.5496   23.5723 H   0  0  0  0  0  0  0  0  0  0  0  0
   -9.1387  -12.9443   28.2684 H   0  0  0  0  0  0  0  0  0  0  0  0
   -7.0079  -12.1495   26.6670 H   0  0  0  0  0  0  0  0  0  0  0  0
   -6.6405  -14.7864   25.6253 H   0  0  0  0  0  0  0  0  0  0  0  0
  1  2  2  0
  2  3  1  0
  3  4  1  0
  4  5  1  0
  5  6  1  0
  6  7  1  0
  7  8  2  0
  8  9  1  0
  9 10  1  0
  2 11  1  0
 11 12  1  0
 12 13  1  0
 13 14  2  0
 14 15  1  0
 15 16  2  0
 16 17  1  0
 17 18  2  0
 18 19  1  0
 19 20  1  0
 10  6  2  0
 20 12  2  0
 19 15  1  0
  3 21  1  0
  4 22  1  0
  4 23  1  0
  5 24  1  0
  5 25  1  0
  7 26  1  0
  8 27  1  0
 10 28  1  0
 11 29  1  0
 13 30  1  0
 17 31  1  0
 18 32  1  0
 20 33  1  0
M  END
>  <Energy>  (71) 
986.00224094315809

>  <compound_id>  (71) 
35536

>  <target_id>  (71) 
1

>  <reference_id>  (71) 
107

>  <inspiration_ids>  (71) 
[107, 76]

>  <energy_score>  (71) 
949.2172819368177

>  <distance_score>  (71) 
16.550090498527737

>  <path>  (71) 
/opt/xchem-fragalysis-2/maxwin/BulkDock/SCRATCH/511013/C35536-P107/C35536-P107.minimised.mol

>  <scratch_subdir>  (71) 
/opt/xchem-fragalysis-2/maxwin/BulkDock/SCRATCH/511013/C35536-P107

>  <fragmenstein_runtime>  (71) 
15.780563592910767

>  <fragmenstein_outcome>  (71) 
too moved

>  <fragmenstein_mode>  (71) 
expansion

>  <fragmenstein_error>  (71) 


$$$$
C35536-P76
     RDKit          3D

 33 35  0  0  0  0  0  0  0  0999 V2000
   -4.2003  -12.4701   20.3399 O   0  0  0  0  0  0  0  0  0  0  0  0
   -3.1214  -12.8804   20.5119 C   0  0  0  0  0  0  0  0  0  0  0  0
   -1.9183  -12.0795   20.5566 N   0  0  0  0  0  0  0  0  0  0  0  0
   -1.6952  -10.4967   20.4894 C   0  0  0  0  0  0  0  0  0  0  0  0
   -0.6536   -9.5252   21.2568 C   0  0  0  0  0  0  0  0  0  0  0  0
    0.0418   -8.2152   20.6425 C   0  0  0  0  0  0  0  0  0  0  0  0
    0.7293   -7.2200   21.4518 C   0  0  0  0  0  0  0  0  0  0  0  0
    1.4985   -6.3263   20.7327 C   0  0  0  0  0  0  0  0  0  0  0  0
    1.3356   -6.5696   19.0577 S   0  0  0  0  0  0  0  0  0  0  0  0
    0.1947   -7.8308   19.3140 C   0  0  0  0  0  0  0  0  0  0  0  0
   -2.8192  -14.8674   20.9405 N   0  0  0  0  0  0  0  0  0  0  0  0
   -4.0961  -16.3688   21.3081 C   0  0  0  0  0  0  0  0  0  0  0  0
   -5.6642  -17.2280   20.4702 C   0  0  0  0  0  0  0  0  0  0  0  0
   -6.9806  -17.5017   20.8142 N   0  0  0  0  0  0  0  0  0  0  0  0
   -7.5081  -17.3372   22.1866 C   0  0  0  0  0  0  0  0  0  0  0  0
   -7.6013  -16.3047   23.1604 N   0  0  0  0  0  0  0  0  0  0  0  0
   -6.8174  -14.9108   23.8963 C   0  0  0  0  0  0  0  0  0  0  0  0
   -7.5567  -15.8147   24.4425 C   0  0  0  0  0  0  0  0  0  0  0  0
   -6.6052  -17.2331   23.4089 N   0  0  0  0  0  0  0  0  0  0  0  0
   -5.2329  -17.3534   22.1625 C   0  0  0  0  0  0  0  0  0  0  0  0
   -1.1969  -12.6485   20.7886 H   0  0  0  0  0  0  0  0  0  0  0  0
   -1.8554  -10.2228   19.4376 H   0  0  0  0  0  0  0  0  0  0  0  0
   -2.6590  -10.1652   20.9076 H   0  0  0  0  0  0  0  0  0  0  0  0
   -1.1624   -9.1725   22.1629 H   0  0  0  0  0  0  0  0  0  0  0  0
    0.1541  -10.1625   21.5857 H   0  0  0  0  0  0  0  0  0  0  0  0
    0.6871   -7.1851   22.5321 H   0  0  0  0  0  0  0  0  0  0  0  0
    2.1283   -5.5335   21.1124 H   0  0  0  0  0  0  0  0  0  0  0  0
   -0.2334   -8.2980   18.4401 H   0  0  0  0  0  0  0  0  0  0  0  0
   -1.8572  -15.0284   21.1382 H   0  0  0  0  0  0  0  0  0  0  0  0
   -5.3528  -17.5946   19.4578 H   0  0  0  0  0  0  0  0  0  0  0  0
   -7.1059  -13.8567   24.0978 H   0  0  0  0  0  0  0  0  0  0  0  0
   -8.1279  -15.9608   25.3799 H   0  0  0  0  0  0  0  0  0  0  0  0
   -5.5965  -18.3936   21.9132 H   0  0  0  0  0  0  0  0  0  0  0  0
  1  2  2  0
  2  3  1  0
  3  4  1  0
  4  5  1  0
  5  6  1  0
  6  7  1  0
  7  8  2  0
  8  9  1  0
  9 10  1  0
  2 11  1  0
 11 12  1  0
 12 13  1  0
 13 14  2  0
 14 15  1  0
 15 16  2  0
 16 17  1  0
 17 18  2  0
 18 19  1  0
 19 20  1  0
 10  6  2  0
 20 12  2  0
 19 15  1  0
  3 21  1  0
  4 22  1  0
  4 23  1  0
  5 24  1  0
  5 25  1  0
  7 26  1  0
  8 27  1  0
 10 28  1  0
 11 29  1  0
 13 30  1  0
 17 31  1  0
 18 32  1  0
 20 33  1  0
M  END
>  <Energy>  (72) 
1221.6720963535461

>  <compound_id>  (72) 
35536

>  <target_id>  (72) 
1

>  <reference_id>  (72) 
76

>  <inspiration_ids>  (72) 
[107, 76]

>  <energy_score>  (72) 
1184.8871373472089

>  <distance_score>  (72) 
13.24365160711165

>  <path>  (72) 
/opt/xchem-fragalysis-2/maxwin/BulkDock/SCRATCH/511013/C35536-P76/C35536-P76.minimised.mol

>  <scratch_subdir>  (72) 
/opt/xchem-fragalysis-2/maxwin/BulkDock/SCRATCH/511013/C35536-P76

>  <fragmenstein_runtime>  (72) 
9.236007928848267

>  <fragmenstein_outcome>  (72) 
too moved

>  <fragmenstein_mode>  (72) 
expansion

>  <fragmenstein_error>  (72) 


$$$$
C35537-P107
     RDKit          3D

 35 37  0  0  0  0  0  0  0  0999 V2000
    0.5552  -17.8813   19.3536 O   0  0  0  0  0  0  0  0  0  0  0  0
    1.2797  -18.7416   19.7754 C   0  0  0  0  0  0  0  0  0  0  0  0
    0.9748  -19.9544   20.5724 N   0  0  0  0  0  0  0  0  0  0  0  0
   -0.3052  -20.4283   21.1798 C   0  0  0  0  0  0  0  0  0  0  0  0
   -0.2987  -21.8350   21.8483 C   0  0  0  0  0  0  0  0  0  0  0  0
   -1.3443  -22.1888   22.9300 C   0  0  0  0  0  0  0  0  0  0  0  0
   -1.2754  -23.2472   23.8281 C   0  0  0  0  0  0  0  0  0  0  0  0
   -2.2365  -23.0133   24.7779 N   0  0  0  0  0  0  0  0  0  0  0  0
   -2.4232  -23.6166   26.0156 C   0  0  0  0  0  0  0  0  0  0  0  0
   -3.2969  -23.0816   26.8757 C   0  0  0  0  0  0  0  0  0  0  0  0
   -4.0332  -21.9021   26.3547 C   0  0  0  0  0  0  0  0  0  0  0  0
   -3.9283  -21.3728   25.1739 N   0  0  0  0  0  0  0  0  0  0  0  0
   -2.9659  -21.9085   24.3625 C   0  0  0  0  0  0  0  0  0  0  0  0
   -2.4700  -21.4426   23.2238 N   0  0  0  0  0  0  0  0  0  0  0  0
    2.8745  -18.6380   19.5343 C   0  0  0  0  0  0  0  0  0  0  0  0
    3.5321  -19.2295   20.6713 O   0  0  0  0  0  0  0  0  0  0  0  0
    3.5334  -17.2352   19.1876 C   0  0  0  0  0  0  0  0  0  0  0  0
    3.0170  -16.2114   18.3055 C   0  0  0  0  0  0  0  0  0  0  0  0
    3.8507  -15.1163   18.1562 C   0  0  0  0  0  0  0  0  0  0  0  0
    5.2815  -15.2718   19.0697 S   0  0  0  0  0  0  0  0  0  0  0  0
    4.7918  -16.8192   19.6333 C   0  0  0  0  0  0  0  0  0  0  0  0
    1.8239  -20.5031   20.6830 H   0  0  0  0  0  0  0  0  0  0  0  0
   -0.5616  -19.6728   21.9239 H   0  0  0  0  0  0  0  0  0  0  0  0
   -1.0636  -20.3850   20.3916 H   0  0  0  0  0  0  0  0  0  0  0  0
    0.6845  -21.9712   22.3193 H   0  0  0  0  0  0  0  0  0  0  0  0
   -0.3646  -22.5937   21.0585 H   0  0  0  0  0  0  0  0  0  0  0  0
   -0.5511  -24.0405   23.9362 H   0  0  0  0  0  0  0  0  0  0  0  0
   -1.7936  -24.4628   26.2560 H   0  0  0  0  0  0  0  0  0  0  0  0
   -3.4641  -23.4332   27.8814 H   0  0  0  0  0  0  0  0  0  0  0  0
   -4.7282  -21.4506   27.0767 H   0  0  0  0  0  0  0  0  0  0  0  0
    3.0856  -19.2872   18.6748 H   0  0  0  0  0  0  0  0  0  0  0  0
    3.0100  -18.9663   21.4613 H   0  0  0  0  0  0  0  0  0  0  0  0
    2.0598  -16.2848   17.7996 H   0  0  0  0  0  0  0  0  0  0  0  0
    3.6768  -14.2350   17.5539 H   0  0  0  0  0  0  0  0  0  0  0  0
    5.4609  -17.3709   20.2811 H   0  0  0  0  0  0  0  0  0  0  0  0
  1  2  2  0
  2  3  1  0
  3  4  1  0
  4  5  1  0
  5  6  1  0
  6  7  2  0
  7  8  1  0
  8  9  1  0
  9 10  2  0
 10 11  1  0
 11 12  2  0
 12 13  1  0
 13 14  2  0
  2 15  1  0
 15 16  1  0
 15 17  1  0
 17 18  1  0
 18 19  2  0
 19 20  1  0
 20 21  1  0
 14  6  1  0
 21 17  2  0
 13  8  1  0
  3 22  1  0
  4 23  1  0
  4 24  1  0
  5 25  1  0
  5 26  1  0
  7 27  1  0
  9 28  1  0
 10 29  1  0
 11 30  1  0
 15 31  1  0
 16 32  1  0
 18 33  1  0
 19 34  1  0
 21 35  1  0
M  END
>  <Energy>  (73) 
96.552706302319535

>  <compound_id>  (73) 
35537

>  <target_id>  (73) 
1

>  <reference_id>  (73) 
107

>  <inspiration_ids>  (73) 
[107, 76]

>  <energy_score>  (73) 
-21.88962445137122

>  <distance_score>  (73) 
13.811515100484408

>  <path>  (73) 
/opt/xchem-fragalysis-2/maxwin/BulkDock/SCRATCH/511013/C35537-P107/C35537-P107.minimised.mol

>  <scratch_subdir>  (73) 
/opt/xchem-fragalysis-2/maxwin/BulkDock/SCRATCH/511013/C35537-P107

>  <fragmenstein_runtime>  (73) 
18.485909938812256

>  <fragmenstein_outcome>  (73) 
too moved

>  <fragmenstein_mode>  (73) 
expansion

>  <fragmenstein_error>  (73) 


$$$$
C35537-P76
     RDKit          3D

 35 37  0  0  0  0  0  0  0  0999 V2000
    3.2532  -12.9989   29.5816 O   0  0  0  0  0  0  0  0  0  0  0  0
    2.3078  -12.2652   29.4645 C   0  0  0  0  0  0  0  0  0  0  0  0
    0.8906  -12.5626   29.1543 N   0  0  0  0  0  0  0  0  0  0  0  0
    0.1717  -13.8786   28.9872 C   0  0  0  0  0  0  0  0  0  0  0  0
   -1.1460  -13.8513   28.1292 C   0  0  0  0  0  0  0  0  0  0  0  0
   -2.1510  -15.1074   28.0759 C   0  0  0  0  0  0  0  0  0  0  0  0
   -2.5274  -16.4860   27.4019 C   0  0  0  0  0  0  0  0  0  0  0  0
   -3.8401  -16.8955   27.8687 N   0  0  0  0  0  0  0  0  0  0  0  0
   -5.1462  -18.2103   27.8340 C   0  0  0  0  0  0  0  0  0  0  0  0
   -6.2029  -18.1546   28.7529 C   0  0  0  0  0  0  0  0  0  0  0  0
   -6.1837  -17.1284   29.8102 C   0  0  0  0  0  0  0  0  0  0  0  0
   -5.2061  -16.3462   30.1223 N   0  0  0  0  0  0  0  0  0  0  0  0
   -3.9276  -16.1512   29.4539 C   0  0  0  0  0  0  0  0  0  0  0  0
   -3.0184  -15.0877   29.4476 N   0  0  0  0  0  0  0  0  0  0  0  0
    2.5656  -10.6666   29.6615 C   0  0  0  0  0  0  0  0  0  0  0  0
    2.2256  -10.2880   30.9905 O   0  0  0  0  0  0  0  0  0  0  0  0
    3.9808  -10.0369   29.2676 C   0  0  0  0  0  0  0  0  0  0  0  0
    5.2291  -10.7121   28.9649 C   0  0  0  0  0  0  0  0  0  0  0  0
    6.2191   -9.8825   28.4698 C   0  0  0  0  0  0  0  0  0  0  0  0
    5.7332   -8.2506   28.4611 S   0  0  0  0  0  0  0  0  0  0  0  0
    4.2000   -8.6642   29.1249 C   0  0  0  0  0  0  0  0  0  0  0  0
    0.3502  -11.7074   29.2163 H   0  0  0  0  0  0  0  0  0  0  0  0
   -0.0679  -14.2130   30.0027 H   0  0  0  0  0  0  0  0  0  0  0  0
    0.9121  -14.5760   28.5913 H   0  0  0  0  0  0  0  0  0  0  0  0
   -1.7289  -13.0619   28.6301 H   0  0  0  0  0  0  0  0  0  0  0  0
   -1.0051  -13.4034   27.1454 H   0  0  0  0  0  0  0  0  0  0  0  0
   -2.1347  -17.2328   26.7311 H   0  0  0  0  0  0  0  0  0  0  0  0
   -5.0225  -19.1819   27.3424 H   0  0  0  0  0  0  0  0  0  0  0  0
   -6.9878  -18.8729   28.8202 H   0  0  0  0  0  0  0  0  0  0  0  0
   -7.0820  -17.0890   30.4404 H   0  0  0  0  0  0  0  0  0  0  0  0
    1.8458  -10.1662   28.9995 H   0  0  0  0  0  0  0  0  0  0  0  0
    2.8844  -10.7284   31.5595 H   0  0  0  0  0  0  0  0  0  0  0  0
    5.3724  -11.7858   29.0456 H   0  0  0  0  0  0  0  0  0  0  0  0
    7.2090  -10.1664   28.1382 H   0  0  0  0  0  0  0  0  0  0  0  0
    3.4881   -7.8716   29.3195 H   0  0  0  0  0  0  0  0  0  0  0  0
  1  2  2  0
  2  3  1  0
  3  4  1  0
  4  5  1  0
  5  6  1  0
  6  7  2  0
  7  8  1  0
  8  9  1  0
  9 10  2  0
 10 11  1  0
 11 12  2  0
 12 13  1  0
 13 14  2  0
  2 15  1  0
 15 16  1  0
 15 17  1  0
 17 18  1  0
 18 19  2  0
 19 20  1  0
 20 21  1  0
 14  6  1  0
 21 17  2  0
 13  8  1  0
  3 22  1  0
  4 23  1  0
  4 24  1  0
  5 25  1  0
  5 26  1  0
  7 27  1  0
  9 28  1  0
 10 29  1  0
 11 30  1  0
 15 31  1  0
 16 32  1  0
 18 33  1  0
 19 34  1  0
 21 35  1  0
M  END
>  <Energy>  (74) 
278.20783334558178

>  <compound_id>  (74) 
35537

>  <target_id>  (74) 
1

>  <reference_id>  (74) 
76

>  <inspiration_ids>  (74) 
[107, 76]

>  <energy_score>  (74) 
159.7655025918907

>  <distance_score>  (74) 
13.71808689757363

>  <path>  (74) 
/opt/xchem-fragalysis-2/maxwin/BulkDock/SCRATCH/511013/C35537-P76/C35537-P76.minimised.mol

>  <scratch_subdir>  (74) 
/opt/xchem-fragalysis-2/maxwin/BulkDock/SCRATCH/511013/C35537-P76

>  <fragmenstein_runtime>  (74) 
15.17149543762207

>  <fragmenstein_outcome>  (74) 
too moved

>  <fragmenstein_mode>  (74) 
expansion

>  <fragmenstein_error>  (74) 


$$$$
C35538-P107
     RDKit          3D

 26 29  0  0  0  0  0  0  0  0999 V2000
    1.0702  -18.9061   31.0656 C   0  0  0  0  0  0  0  0  0  0  0  0
    0.4330  -20.1333   30.5185 C   0  0  0  0  0  0  0  0  0  0  0  0
    0.5971  -20.5954   29.3200 N   0  0  0  0  0  0  0  0  0  0  0  0
    1.4273  -19.8755   28.5047 C   0  0  0  0  0  0  0  0  0  0  0  0
    1.7404  -20.1498   27.2629 N   0  0  0  0  0  0  0  0  0  0  0  0
    2.6206  -19.1829   26.8689 C   0  0  0  0  0  0  0  0  0  0  0  0
    2.9096  -18.2677   27.8689 C   0  0  0  0  0  0  0  0  0  0  0  0
    3.8494  -17.1341   27.7589 C   0  0  0  0  0  0  0  0  0  0  0  0
    4.5288  -16.7967   26.6527 N   0  0  0  0  0  0  0  0  0  0  0  0
    5.1548  -15.5765   26.9582 C   0  0  0  0  0  0  0  0  0  0  0  0
    5.9162  -14.7178   25.9664 C   0  0  0  0  0  0  0  0  0  0  0  0
    5.8447  -14.8619   24.5390 C   0  0  0  0  0  0  0  0  0  0  0  0
    6.5775  -13.9106   23.8490 C   0  0  0  0  0  0  0  0  0  0  0  0
    7.3914  -12.8411   24.9060 S   0  0  0  0  0  0  0  0  0  0  0  0
    6.7412  -13.6451   26.2830 C   0  0  0  0  0  0  0  0  0  0  0  0
    4.9458  -15.2195   28.2377 N   0  0  0  0  0  0  0  0  0  0  0  0
    4.1009  -16.2180   28.7560 O   0  0  0  0  0  0  0  0  0  0  0  0
    2.0986  -18.7122   28.9328 N   0  0  0  0  0  0  0  0  0  0  0  0
    1.8933  -18.2454   30.2316 C   0  0  0  0  0  0  0  0  0  0  0  0
    0.8568  -18.6048   32.0816 H   0  0  0  0  0  0  0  0  0  0  0  0
   -0.2284  -20.6717   31.2178 H   0  0  0  0  0  0  0  0  0  0  0  0
    3.0284  -19.1896   25.8635 H   0  0  0  0  0  0  0  0  0  0  0  0
    5.2552  -15.6252   24.0494 H   0  0  0  0  0  0  0  0  0  0  0  0
    6.6705  -13.7939   22.7773 H   0  0  0  0  0  0  0  0  0  0  0  0
    6.9886  -13.2802   27.2706 H   0  0  0  0  0  0  0  0  0  0  0  0
    2.4182  -17.3476   30.5299 H   0  0  0  0  0  0  0  0  0  0  0  0
  1  2  1  0
  2  3  2  0
  3  4  1  0
  4  5  2  0
  5  6  1  0
  6  7  2  0
  7  8  1  0
  8  9  2  0
  9 10  1  0
 10 11  1  0
 11 12  1  0
 12 13  2  0
 13 14  1  0
 14 15  1  0
 10 16  2  0
 16 17  1  0
  7 18  1  0
 18 19  1  0
 19  1  2  0
 18  4  1  0
 17  8  1  0
 15 11  2  0
  1 20  1  0
  2 21  1  0
  6 22  1  0
 12 23  1  0
 13 24  1  0
 15 25  1  0
 19 26  1  0
M  END
>  <Energy>  (75) 
37.666966428949955

>  <compound_id>  (75) 
35538

>  <target_id>  (75) 
1

>  <reference_id>  (75) 
107

>  <inspiration_ids>  (75) 
[107, 76]

>  <energy_score>  (75) 
-43.501642384309605

>  <distance_score>  (75) 
15.531471138281926

>  <path>  (75) 
/opt/xchem-fragalysis-2/maxwin/BulkDock/SCRATCH/511013/C35538-P107/C35538-P107.minimised.mol

>  <scratch_subdir>  (75) 
/opt/xchem-fragalysis-2/maxwin/BulkDock/SCRATCH/511013/C35538-P107

>  <fragmenstein_runtime>  (75) 
12.494854211807251

>  <fragmenstein_outcome>  (75) 
too moved

>  <fragmenstein_mode>  (75) 
expansion

>  <fragmenstein_error>  (75) 


$$$$
C35538-P76
     RDKit          3D

 26 29  0  0  0  0  0  0  0  0999 V2000
    0.8861  -18.6628   31.2106 C   0  0  0  0  0  0  0  0  0  0  0  0
    0.2673  -19.9149   30.7001 C   0  0  0  0  0  0  0  0  0  0  0  0
    0.4674  -20.4301   29.5294 N   0  0  0  0  0  0  0  0  0  0  0  0
    1.3276  -19.7494   28.7110 C   0  0  0  0  0  0  0  0  0  0  0  0
    1.6918  -20.0865   27.4989 N   0  0  0  0  0  0  0  0  0  0  0  0
    2.5736  -19.1292   27.0843 C   0  0  0  0  0  0  0  0  0  0  0  0
    2.8216  -18.1640   28.0475 C   0  0  0  0  0  0  0  0  0  0  0  0
    3.7528  -17.0263   27.9148 C   0  0  0  0  0  0  0  0  0  0  0  0
    4.4854  -16.7479   26.8269 N   0  0  0  0  0  0  0  0  0  0  0  0
    5.0747  -15.4977   27.0867 C   0  0  0  0  0  0  0  0  0  0  0  0
    5.8731  -14.6981   26.0756 C   0  0  0  0  0  0  0  0  0  0  0  0
    6.5192  -13.4402   26.3763 C   0  0  0  0  0  0  0  0  0  0  0  0
    7.1514  -12.8652   25.2885 C   0  0  0  0  0  0  0  0  0  0  0  0
    7.0003  -13.8325   23.8900 S   0  0  0  0  0  0  0  0  0  0  0  0
    6.0886  -15.0178   24.7472 C   0  0  0  0  0  0  0  0  0  0  0  0
    4.7943  -15.0655   28.3286 N   0  0  0  0  0  0  0  0  0  0  0  0
    3.9378  -16.0451   28.8643 O   0  0  0  0  0  0  0  0  0  0  0  0
    1.9780  -18.5621   29.1036 N   0  0  0  0  0  0  0  0  0  0  0  0
    1.7288  -18.0345   30.3710 C   0  0  0  0  0  0  0  0  0  0  0  0
    0.6408  -18.3161   32.2046 H   0  0  0  0  0  0  0  0  0  0  0  0
   -0.4163  -20.4216   31.4017 H   0  0  0  0  0  0  0  0  0  0  0  0
    3.0128  -19.1794   26.0933 H   0  0  0  0  0  0  0  0  0  0  0  0
    6.5018  -12.9739   27.3545 H   0  0  0  0  0  0  0  0  0  0  0  0
    7.6911  -11.9291   25.2542 H   0  0  0  0  0  0  0  0  0  0  0  0
    5.7409  -15.9020   24.2329 H   0  0  0  0  0  0  0  0  0  0  0  0
    2.2376  -17.1180   30.6400 H   0  0  0  0  0  0  0  0  0  0  0  0
  1  2  1  0
  2  3  2  0
  3  4  1  0
  4  5  2  0
  5  6  1  0
  6  7  2  0
  7  8  1  0
  8  9  2  0
  9 10  1  0
 10 11  1  0
 11 12  1  0
 12 13  2  0
 13 14  1  0
 14 15  1  0
 10 16  2  0
 16 17  1  0
  7 18  1  0
 18 19  1  0
 19  1  2  0
 18  4  1  0
 17  8  1  0
 15 11  2  0
  1 20  1  0
  2 21  1  0
  6 22  1  0
 12 23  1  0
 13 24  1  0
 15 25  1  0
 19 26  1  0
M  END
>  <Energy>  (76) 
37.121912484451371

>  <compound_id>  (76) 
35538

>  <target_id>  (76) 
1

>  <reference_id>  (76) 
76

>  <inspiration_ids>  (76) 
[107, 76]

>  <energy_score>  (76) 
-44.04669632880774

>  <distance_score>  (76) 
15.58456926532378

>  <path>  (76) 
/opt/xchem-fragalysis-2/maxwin/BulkDock/SCRATCH/511013/C35538-P76/C35538-P76.minimised.mol

>  <scratch_subdir>  (76) 
/opt/xchem-fragalysis-2/maxwin/BulkDock/SCRATCH/511013/C35538-P76

>  <fragmenstein_runtime>  (76) 
5.7882349491119385

>  <fragmenstein_outcome>  (76) 
too moved

>  <fragmenstein_mode>  (76) 
expansion

>  <fragmenstein_error>  (76) 


$$$$
C15749-P107
     RDKit          3D

 35 37  0  0  0  0  0  0  0  0999 V2000
   -1.5099  -15.0888   23.6600 C   0  0  0  0  0  0  0  0  0  0  0  0
   -0.6963  -13.9409   24.0863 C   0  0  0  0  0  0  0  0  0  0  0  0
   -0.2271  -12.4146   22.6634 C   0  0  0  0  0  0  0  0  0  0  0  0
   -0.7266  -10.6487   21.8510 C   0  0  0  0  0  0  0  0  0  0  0  0
   -0.2756   -9.2392   21.9638 C   0  0  0  0  0  0  0  0  0  0  0  0
   -0.8042   -8.3155   21.0854 C   0  0  0  0  0  0  0  0  0  0  0  0
   -1.9987   -9.0048   20.1323 S   0  0  0  0  0  0  0  0  0  0  0  0
   -1.7300  -10.5506   20.8335 C   0  0  0  0  0  0  0  0  0  0  0  0
   -1.6880  -13.5543   25.7100 N   0  0  0  0  0  0  0  0  0  0  0  0
   -2.3506  -14.7780   26.5574 C   0  0  0  0  0  0  0  0  0  0  0  0
   -1.3469  -12.7194   26.8946 C   0  0  0  0  0  0  0  0  0  0  0  0
   -0.1655  -12.8894   27.5261 C   0  0  0  0  0  0  0  0  0  0  0  0
   -0.2401  -13.0231   29.0151 C   0  0  0  0  0  0  0  0  0  0  0  0
   -1.2874  -12.9519   29.7735 N   0  0  0  0  0  0  0  0  0  0  0  0
   -2.4425  -12.6105   29.1487 C   0  0  0  0  0  0  0  0  0  0  0  0
   -3.6593  -12.5313   29.6554 N   0  0  0  0  0  0  0  0  0  0  0  0
   -4.4533  -12.0661   28.6474 C   0  0  0  0  0  0  0  0  0  0  0  0
   -3.7187  -11.8840   27.4985 C   0  0  0  0  0  0  0  0  0  0  0  0
   -2.4531  -12.3560   27.7705 N   0  0  0  0  0  0  0  0  0  0  0  0
   -1.0789  -15.0515   22.6611 H   0  0  0  0  0  0  0  0  0  0  0  0
   -1.4990  -15.7633   24.4462 H   0  0  0  0  0  0  0  0  0  0  0  0
   -2.6258  -15.1598   23.6151 H   0  0  0  0  0  0  0  0  0  0  0  0
    0.3024  -14.2736   24.3746 H   0  0  0  0  0  0  0  0  0  0  0  0
    0.7131  -11.7878   22.8690 H   0  0  0  0  0  0  0  0  0  0  0  0
   -1.0796  -12.3101   21.7651 H   0  0  0  0  0  0  0  0  0  0  0  0
    0.3917   -8.7674   22.6512 H   0  0  0  0  0  0  0  0  0  0  0  0
   -0.5631   -7.2649   21.0106 H   0  0  0  0  0  0  0  0  0  0  0  0
   -2.3184  -11.3552   20.4155 H   0  0  0  0  0  0  0  0  0  0  0  0
   -3.1488  -14.4534   27.2087 H   0  0  0  0  0  0  0  0  0  0  0  0
   -2.7463  -15.6316   26.0019 H   0  0  0  0  0  0  0  0  0  0  0  0
   -1.7134  -15.1068   27.3898 H   0  0  0  0  0  0  0  0  0  0  0  0
    0.7171  -13.2945   27.0537 H   0  0  0  0  0  0  0  0  0  0  0  0
    0.7247  -13.2663   29.4923 H   0  0  0  0  0  0  0  0  0  0  0  0
   -5.5053  -11.8653   28.8039 H   0  0  0  0  0  0  0  0  0  0  0  0
   -3.9757  -11.5132   26.5186 H   0  0  0  0  0  0  0  0  0  0  0  0
  1  2  1  0
  2  3  1  0
  3  4  1  0
  4  5  1  0
  5  6  2  0
  6  7  1  0
  7  8  1  0
  2  9  1  0
  9 10  1  0
  9 11  1  0
 11 12  2  0
 12 13  1  0
 13 14  2  0
 14 15  1  0
 15 16  2  0
 16 17  1  0
 17 18  2  0
 18 19  1  0
  8  4  2  0
 19 11  1  0
 19 15  1  0
  1 20  1  0
  1 21  1  0
  1 22  1  0
  2 23  1  0
  3 24  1  0
  3 25  1  0
  5 26  1  0
  6 27  1  0
  8 28  1  0
 10 29  1  0
 10 30  1  0
 10 31  1  0
 12 32  1  0
 13 33  1  0
 17 34  1  0
 18 35  1  0
M  END
>  <Energy>  (77) 
487.12769263019902

>  <compound_id>  (77) 
15749

>  <target_id>  (77) 
1

>  <reference_id>  (77) 
107

>  <inspiration_ids>  (77) 
[107, 76]

>  <energy_score>  (77) 
357.70798756476677

>  <distance_score>  (77) 
16.137438140477258

>  <path>  (77) 
/opt/xchem-fragalysis-2/maxwin/BulkDock/SCRATCH/511013/C15749-P107/C15749-P107.minimised.mol

>  <scratch_subdir>  (77) 
/opt/xchem-fragalysis-2/maxwin/BulkDock/SCRATCH/511013/C15749-P107

>  <fragmenstein_runtime>  (77) 
21.078461408615112

>  <fragmenstein_outcome>  (77) 
too moved

>  <fragmenstein_mode>  (77) 
expansion

>  <fragmenstein_error>  (77) 


$$$$
C15749-P76
     RDKit          3D

 35 37  0  0  0  0  0  0  0  0999 V2000
   -3.2724  -19.9490   16.5263 C   0  0  0  0  0  0  0  0  0  0  0  0
   -2.2192  -20.3975   17.5463 C   0  0  0  0  0  0  0  0  0  0  0  0
   -0.9436  -20.9878   16.6656 C   0  0  0  0  0  0  0  0  0  0  0  0
    0.1279  -20.1878   15.8093 C   0  0  0  0  0  0  0  0  0  0  0  0
    1.5494  -20.0125   16.1121 C   0  0  0  0  0  0  0  0  0  0  0  0
    2.3134  -19.4990   15.0846 C   0  0  0  0  0  0  0  0  0  0  0  0
    1.3937  -19.3626   13.6635 S   0  0  0  0  0  0  0  0  0  0  0  0
   -0.0593  -19.7634   14.4985 C   0  0  0  0  0  0  0  0  0  0  0  0
   -2.9163  -21.4334   18.6444 N   0  0  0  0  0  0  0  0  0  0  0  0
   -2.6354  -22.8399   18.2964 C   0  0  0  0  0  0  0  0  0  0  0  0
   -4.0605  -21.1719   19.5524 C   0  0  0  0  0  0  0  0  0  0  0  0
   -4.9834  -20.2078   19.3474 C   0  0  0  0  0  0  0  0  0  0  0  0
   -6.1762  -20.1279   20.2468 C   0  0  0  0  0  0  0  0  0  0  0  0
   -6.4505  -20.8879   21.2534 N   0  0  0  0  0  0  0  0  0  0  0  0
   -5.5081  -21.8258   21.5349 C   0  0  0  0  0  0  0  0  0  0  0  0
   -5.5109  -22.6585   22.5562 N   0  0  0  0  0  0  0  0  0  0  0  0
   -4.3380  -23.3424   22.4880 C   0  0  0  0  0  0  0  0  0  0  0  0
   -3.5962  -22.9374   21.4017 C   0  0  0  0  0  0  0  0  0  0  0  0
   -4.3397  -21.9763   20.7419 N   0  0  0  0  0  0  0  0  0  0  0  0
   -3.8871  -19.1373   16.9169 H   0  0  0  0  0  0  0  0  0  0  0  0
   -3.9268  -20.7766   16.2354 H   0  0  0  0  0  0  0  0  0  0  0  0
   -2.8106  -19.5475   15.6196 H   0  0  0  0  0  0  0  0  0  0  0  0
   -1.8767  -19.5369   18.1291 H   0  0  0  0  0  0  0  0  0  0  0  0
   -1.4126  -21.6467   15.9157 H   0  0  0  0  0  0  0  0  0  0  0  0
   -0.3885  -21.7038   17.2773 H   0  0  0  0  0  0  0  0  0  0  0  0
    2.0349  -20.3222   17.0233 H   0  0  0  0  0  0  0  0  0  0  0  0
    3.3754  -19.3039   15.0818 H   0  0  0  0  0  0  0  0  0  0  0  0
   -0.9809  -19.7822   13.9327 H   0  0  0  0  0  0  0  0  0  0  0  0
   -3.3616  -23.5325   18.7326 H   0  0  0  0  0  0  0  0  0  0  0  0
   -1.6383  -23.1202   18.6474 H   0  0  0  0  0  0  0  0  0  0  0  0
   -2.6971  -22.9932   17.2150 H   0  0  0  0  0  0  0  0  0  0  0  0
   -4.9744  -19.5044   18.5366 H   0  0  0  0  0  0  0  0  0  0  0  0
   -6.8916  -19.3306   19.9829 H   0  0  0  0  0  0  0  0  0  0  0  0
   -4.0812  -24.0894   23.2284 H   0  0  0  0  0  0  0  0  0  0  0  0
   -2.6190  -23.2297   21.0519 H   0  0  0  0  0  0  0  0  0  0  0  0
  1  2  1  0
  2  3  1  0
  3  4  1  0
  4  5  1  0
  5  6  2  0
  6  7  1  0
  7  8  1  0
  2  9  1  0
  9 10  1  0
  9 11  1  0
 11 12  2  0
 12 13  1  0
 13 14  2  0
 14 15  1  0
 15 16  2  0
 16 17  1  0
 17 18  2  0
 18 19  1  0
  8  4  2  0
 19 11  1  0
 19 15  1  0
  1 20  1  0
  1 21  1  0
  1 22  1  0
  2 23  1  0
  3 24  1  0
  3 25  1  0
  5 26  1  0
  6 27  1  0
  8 28  1  0
 10 29  1  0
 10 30  1  0
 10 31  1  0
 12 32  1  0
 13 33  1  0
 17 34  1  0
 18 35  1  0
M  END
>  <Energy>  (78) 
116.44533092341356

>  <compound_id>  (78) 
15749

>  <target_id>  (78) 
1

>  <reference_id>  (78) 
76

>  <inspiration_ids>  (78) 
[107, 76]

>  <energy_score>  (78) 
-12.974374142009765

>  <distance_score>  (78) 
16.684624171840717

>  <path>  (78) 
/opt/xchem-fragalysis-2/maxwin/BulkDock/SCRATCH/511013/C15749-P76/C15749-P76.minimised.mol

>  <scratch_subdir>  (78) 
/opt/xchem-fragalysis-2/maxwin/BulkDock/SCRATCH/511013/C15749-P76

>  <fragmenstein_runtime>  (78) 
12.353566884994507

>  <fragmenstein_outcome>  (78) 
too moved

>  <fragmenstein_mode>  (78) 
expansion

>  <fragmenstein_error>  (78) 


$$$$
C15756-P107
     RDKit          3D

 37 40  0  0  0  0  0  0  0  0999 V2000
   -4.8612  -22.4092   18.2680 O   0  0  0  0  0  0  0  0  0  0  0  0
   -5.0409  -22.1301   19.6565 C   0  0  0  0  0  0  0  0  0  0  0  0
   -5.2418  -20.6283   19.8562 C   0  0  0  0  0  0  0  0  0  0  0  0
   -3.9619  -19.8298   19.4861 C   0  0  0  0  0  0  0  0  0  0  0  0
   -3.7338  -18.4052   19.3566 N   0  0  0  0  0  0  0  0  0  0  0  0
   -2.4471  -17.6695   19.3132 N   0  0  0  0  0  0  0  0  0  0  0  0
   -2.7830  -16.4101   18.9008 C   0  0  0  0  0  0  0  0  0  0  0  0
   -1.9081  -14.7864   18.3484 C   0  0  0  0  0  0  0  0  0  0  0  0
   -1.6499  -13.3143   18.2612 C   0  0  0  0  0  0  0  0  0  0  0  0
   -1.9572  -12.3226   19.2389 C   0  0  0  0  0  0  0  0  0  0  0  0
   -2.7864  -11.8624   17.9193 S   0  0  0  0  0  0  0  0  0  0  0  0
   -2.4165  -13.9455   17.1665 C   0  0  0  0  0  0  0  0  0  0  0  0
   -4.2244  -16.7496   18.2477 N   0  0  0  0  0  0  0  0  0  0  0  0
   -4.8243  -17.7115   18.9794 C   0  0  0  0  0  0  0  0  0  0  0  0
   -6.2581  -17.9424   19.6241 C   0  0  0  0  0  0  0  0  0  0  0  0
   -7.5781  -17.9416   18.8624 C   0  0  0  0  0  0  0  0  0  0  0  0
   -8.7294  -18.1024   19.5374 C   0  0  0  0  0  0  0  0  0  0  0  0
   -8.6998  -18.2104   20.9062 N   0  0  0  0  0  0  0  0  0  0  0  0
   -9.7222  -18.0911   21.8110 C   0  0  0  0  0  0  0  0  0  0  0  0
   -9.0717  -17.9057   23.0002 C   0  0  0  0  0  0  0  0  0  0  0  0
   -7.7516  -18.2360   22.8899 N   0  0  0  0  0  0  0  0  0  0  0  0
   -7.5041  -18.2743   21.5924 C   0  0  0  0  0  0  0  0  0  0  0  0
   -6.3090  -18.2145   20.9157 N   0  0  0  0  0  0  0  0  0  0  0  0
   -4.8984  -23.3825   18.1875 H   0  0  0  0  0  0  0  0  0  0  0  0
   -4.1683  -22.4948   20.2072 H   0  0  0  0  0  0  0  0  0  0  0  0
   -5.9282  -22.6715   20.0006 H   0  0  0  0  0  0  0  0  0  0  0  0
   -5.5287  -20.4772   20.8964 H   0  0  0  0  0  0  0  0  0  0  0  0
   -6.0721  -20.3409   19.2071 H   0  0  0  0  0  0  0  0  0  0  0  0
   -3.1860  -20.2345   20.1178 H   0  0  0  0  0  0  0  0  0  0  0  0
   -3.9055  -20.0659   18.4462 H   0  0  0  0  0  0  0  0  0  0  0  0
   -0.6801  -13.0915   17.7507 H   0  0  0  0  0  0  0  0  0  0  0  0
   -2.2982  -12.2029   20.2529 H   0  0  0  0  0  0  0  0  0  0  0  0
   -3.0520  -14.2624   16.3607 H   0  0  0  0  0  0  0  0  0  0  0  0
   -7.6416  -17.7466   17.8124 H   0  0  0  0  0  0  0  0  0  0  0  0
   -9.6990  -18.0513   19.0582 H   0  0  0  0  0  0  0  0  0  0  0  0
  -10.7511  -17.9643   21.5083 H   0  0  0  0  0  0  0  0  0  0  0  0
   -9.4775  -17.5356   23.9272 H   0  0  0  0  0  0  0  0  0  0  0  0
  1  2  1  0
  2  3  1  0
  3  4  1  0
  4  5  1  0
  5  6  1  0
  6  7  2  0
  7  8  1  0
  8  9  1  0
  9 10  2  0
 10 11  1  0
 11 12  1  0
  7 13  1  0
 13 14  2  0
 14 15  1  0
 15 16  1  0
 16 17  2  0
 17 18  1  0
 18 19  1  0
 19 20  2  0
 20 21  1  0
 21 22  2  0
 22 23  1  0
 14  5  1  0
 23 15  2  0
 12  8  2  0
 22 18  1  0
  1 24  1  0
  2 25  1  0
  2 26  1  0
  3 27  1  0
  3 28  1  0
  4 29  1  0
  4 30  1  0
  9 31  1  0
 10 32  1  0
 12 33  1  0
 16 34  1  0
 17 35  1  0
 19 36  1  0
 20 37  1  0
M  END
>  <Energy>  (79) 
439.42840267357059

>  <compound_id>  (79) 
15756

>  <target_id>  (79) 
1

>  <reference_id>  (79) 
107

>  <inspiration_ids>  (79) 
[107, 76]

>  <energy_score>  (79) 
334.40000193263637

>  <distance_score>  (79) 
15.53397912119549

>  <path>  (79) 
/opt/xchem-fragalysis-2/maxwin/BulkDock/SCRATCH/511013/C15756-P107/C15756-P107.minimised.mol

>  <scratch_subdir>  (79) 
/opt/xchem-fragalysis-2/maxwin/BulkDock/SCRATCH/511013/C15756-P107

>  <fragmenstein_runtime>  (79) 
15.198682308197021

>  <fragmenstein_outcome>  (79) 
too moved

>  <fragmenstein_mode>  (79) 
expansion

>  <fragmenstein_error>  (79) 


$$$$
C15756-P76
     RDKit          3D

 37 40  0  0  0  0  0  0  0  0999 V2000
   -5.1609  -20.3425   18.4123 O   0  0  0  0  0  0  0  0  0  0  0  0
   -5.9238  -19.3502   19.0762 C   0  0  0  0  0  0  0  0  0  0  0  0
   -4.9151  -18.4501   19.7036 C   0  0  0  0  0  0  0  0  0  0  0  0
   -3.7485  -17.7865   18.9564 C   0  0  0  0  0  0  0  0  0  0  0  0
   -2.8541  -16.7622   19.5678 N   0  0  0  0  0  0  0  0  0  0  0  0
   -1.9972  -16.1439   18.5985 N   0  0  0  0  0  0  0  0  0  0  0  0
   -1.2964  -14.9539   18.9459 C   0  0  0  0  0  0  0  0  0  0  0  0
    0.4090  -13.9681   18.1964 C   0  0  0  0  0  0  0  0  0  0  0  0
    2.1713  -14.3747   18.8686 C   0  0  0  0  0  0  0  0  0  0  0  0
    3.4327  -13.9160   18.4500 C   0  0  0  0  0  0  0  0  0  0  0  0
    2.8612  -15.2577   17.6669 S   0  0  0  0  0  0  0  0  0  0  0  0
    1.2209  -14.1599   17.1007 C   0  0  0  0  0  0  0  0  0  0  0  0
   -2.0566  -14.9579   20.4284 N   0  0  0  0  0  0  0  0  0  0  0  0
   -3.0303  -15.9758   20.7059 C   0  0  0  0  0  0  0  0  0  0  0  0
   -4.0101  -16.1052   22.3802 C   0  0  0  0  0  0  0  0  0  0  0  0
   -3.0812  -15.3463   24.0361 C   0  0  0  0  0  0  0  0  0  0  0  0
   -3.3698  -15.4462   25.4320 C   0  0  0  0  0  0  0  0  0  0  0  0
   -4.7384  -15.4777   25.7746 N   0  0  0  0  0  0  0  0  0  0  0  0
   -5.4691  -15.6230   26.9174 C   0  0  0  0  0  0  0  0  0  0  0  0
   -6.7768  -15.6667   26.4760 C   0  0  0  0  0  0  0  0  0  0  0  0
   -6.8512  -15.4998   25.1044 N   0  0  0  0  0  0  0  0  0  0  0  0
   -5.5970  -15.4096   24.6964 C   0  0  0  0  0  0  0  0  0  0  0  0
   -4.8642  -15.1765   23.4266 N   0  0  0  0  0  0  0  0  0  0  0  0
   -4.6254  -19.8089   17.7924 H   0  0  0  0  0  0  0  0  0  0  0  0
   -6.6092  -18.8025   18.4340 H   0  0  0  0  0  0  0  0  0  0  0  0
   -6.5298  -19.8514   19.8389 H   0  0  0  0  0  0  0  0  0  0  0  0
   -5.4863  -17.7522   20.3165 H   0  0  0  0  0  0  0  0  0  0  0  0
   -4.4056  -19.2460   20.2393 H   0  0  0  0  0  0  0  0  0  0  0  0
   -4.1547  -17.3223   18.0511 H   0  0  0  0  0  0  0  0  0  0  0  0
   -3.0490  -18.5680   18.6523 H   0  0  0  0  0  0  0  0  0  0  0  0
    2.2417  -14.6850   19.9455 H   0  0  0  0  0  0  0  0  0  0  0  0
    4.4256  -13.7314   18.8322 H   0  0  0  0  0  0  0  0  0  0  0  0
    0.8454  -14.6238   16.2695 H   0  0  0  0  0  0  0  0  0  0  0  0
   -3.5807  -14.3559   24.1480 H   0  0  0  0  0  0  0  0  0  0  0  0
   -2.7499  -15.0588   26.2265 H   0  0  0  0  0  0  0  0  0  0  0  0
   -5.0222  -15.7077   27.8968 H   0  0  0  0  0  0  0  0  0  0  0  0
   -7.6730  -15.7893   27.0704 H   0  0  0  0  0  0  0  0  0  0  0  0
  1  2  1  0
  2  3  1  0
  3  4  1  0
  4  5  1  0
  5  6  1  0
  6  7  2  0
  7  8  1  0
  8  9  1  0
  9 10  2  0
 10 11  1  0
 11 12  1  0
  7 13  1  0
 13 14  2  0
 14 15  1  0
 15 16  1  0
 16 17  2  0
 17 18  1  0
 18 19  1  0
 19 20  2  0
 20 21  1  0
 21 22  2  0
 22 23  1  0
 14  5  1  0
 23 15  2  0
 12  8  2  0
 22 18  1  0
  1 24  1  0
  2 25  1  0
  2 26  1  0
  3 27  1  0
  3 28  1  0
  4 29  1  0
  4 30  1  0
  9 31  1  0
 10 32  1  0
 12 33  1  0
 16 34  1  0
 17 35  1  0
 19 36  1  0
 20 37  1  0
M  END
>  <Energy>  (80) 
906.62617268091412

>  <compound_id>  (80) 
15756

>  <target_id>  (80) 
1

>  <reference_id>  (80) 
76

>  <inspiration_ids>  (80) 
[107, 76]

>  <energy_score>  (80) 
801.5977719399801

>  <distance_score>  (80) 
14.449259915540193

>  <path>  (80) 
/opt/xchem-fragalysis-2/maxwin/BulkDock/SCRATCH/511013/C15756-P76/C15756-P76.minimised.mol

>  <scratch_subdir>  (80) 
/opt/xchem-fragalysis-2/maxwin/BulkDock/SCRATCH/511013/C15756-P76

>  <fragmenstein_runtime>  (80) 
9.669326305389404

>  <fragmenstein_outcome>  (80) 
too moved

>  <fragmenstein_mode>  (80) 
expansion

>  <fragmenstein_error>  (80) 


$$$$
C35539-P107
     RDKit          3D

 31 33  0  0  0  0  0  0  0  0999 V2000
   -2.5502  -17.3123   25.2799 O   0  0  0  0  0  0  0  0  0  0  0  0
   -2.1300  -17.8243   26.2406 C   0  0  0  0  0  0  0  0  0  0  0  0
   -1.3594  -17.0530   27.3816 N   0  0  0  0  0  0  0  0  0  0  0  0
   -0.9751  -15.0744   27.6658 C   0  0  0  0  0  0  0  0  0  0  0  0
    0.4427  -13.7213   26.7583 C   0  0  0  0  0  0  0  0  0  0  0  0
    2.1985  -13.1264   26.3484 C   0  0  0  0  0  0  0  0  0  0  0  0
    3.4515  -13.3527   27.1263 C   0  0  0  0  0  0  0  0  0  0  0  0
    4.6115  -12.8270   26.5862 C   0  0  0  0  0  0  0  0  0  0  0  0
    4.3392  -12.1353   25.0694 S   0  0  0  0  0  0  0  0  0  0  0  0
    2.6616  -12.5121   25.1770 C   0  0  0  0  0  0  0  0  0  0  0  0
   -2.6572  -19.6867   26.3069 C   0  0  0  0  0  0  0  0  0  0  0  0
   -4.1479  -20.1763   26.5991 C   0  0  0  0  0  0  0  0  0  0  0  0
   -4.7773  -19.9938   24.9835 N   0  0  0  0  0  0  0  0  0  0  0  0
   -5.8946  -19.0987   23.7489 C   0  0  0  0  0  0  0  0  0  0  0  0
   -6.4849  -20.0328   22.7735 C   0  0  0  0  0  0  0  0  0  0  0  0
   -5.6588  -21.5874   22.8286 C   0  0  0  0  0  0  0  0  0  0  0  0
   -4.6069  -21.9624   23.5886 N   0  0  0  0  0  0  0  0  0  0  0  0
   -4.0357  -21.1340   24.5798 C   0  0  0  0  0  0  0  0  0  0  0  0
   -2.7872  -20.7898   25.0390 N   0  0  0  0  0  0  0  0  0  0  0  0
   -1.0501  -17.6801   27.9955 H   0  0  0  0  0  0  0  0  0  0  0  0
   -0.5589  -15.1749   28.6675 H   0  0  0  0  0  0  0  0  0  0  0  0
   -2.0059  -14.7966   27.5970 H   0  0  0  0  0  0  0  0  0  0  0  0
   -0.0784  -13.2957   25.9617 H   0  0  0  0  0  0  0  0  0  0  0  0
    1.1475  -14.5067   26.5676 H   0  0  0  0  0  0  0  0  0  0  0  0
    3.4904  -13.9017   28.0598 H   0  0  0  0  0  0  0  0  0  0  0  0
    5.6079  -12.8696   27.0043 H   0  0  0  0  0  0  0  0  0  0  0  0
    2.1294  -12.2871   24.2790 H   0  0  0  0  0  0  0  0  0  0  0  0
   -4.4094  -21.1923   26.8718 H   0  0  0  0  0  0  0  0  0  0  0  0
   -6.4386  -18.1851   23.8617 H   0  0  0  0  0  0  0  0  0  0  0  0
   -7.2427  -19.8632   22.0275 H   0  0  0  0  0  0  0  0  0  0  0  0
   -6.0742  -22.2840   22.0785 H   0  0  0  0  0  0  0  0  0  0  0  0
  1  2  2  0
  2  3  1  0
  3  4  1  0
  4  5  1  0
  5  6  1  0
  6  7  1  0
  7  8  2  0
  8  9  1  0
  9 10  1  0
  2 11  1  0
 11 12  2  0
 12 13  1  0
 13 14  1  0
 14 15  2  0
 15 16  1  0
 16 17  2  0
 17 18  1  0
 18 19  2  0
 10  6  2  0
 19 11  1  0
 18 13  1  0
  3 20  1  0
  4 21  1  0
  4 22  1  0
  5 23  1  0
  5 24  1  0
  7 25  1  0
  8 26  1  0
 10 27  1  0
 12 28  1  0
 14 29  1  0
 15 30  1  0
 16 31  1  0
M  END
>  <Energy>  (81) 
723.21361477022526

>  <compound_id>  (81) 
35539

>  <target_id>  (81) 
1

>  <reference_id>  (81) 
107

>  <inspiration_ids>  (81) 
[107, 76]

>  <energy_score>  (81) 
645.2995527328162

>  <distance_score>  (81) 
13.846188182916249

>  <path>  (81) 
/opt/xchem-fragalysis-2/maxwin/BulkDock/SCRATCH/511013/C35539-P107/C35539-P107.minimised.mol

>  <scratch_subdir>  (81) 
/opt/xchem-fragalysis-2/maxwin/BulkDock/SCRATCH/511013/C35539-P107

>  <fragmenstein_runtime>  (81) 
10.574122428894043

>  <fragmenstein_outcome>  (81) 
too moved

>  <fragmenstein_mode>  (81) 
expansion

>  <fragmenstein_error>  (81) 


$$$$
C35539-P76
     RDKit          3D

 31 33  0  0  0  0  0  0  0  0999 V2000
   -1.7340  -11.9825   26.2736 O   0  0  0  0  0  0  0  0  0  0  0  0
   -1.5137  -13.1387   26.0881 C   0  0  0  0  0  0  0  0  0  0  0  0
   -0.9197  -13.8017   24.5168 N   0  0  0  0  0  0  0  0  0  0  0  0
   -0.3445  -12.8439   22.8358 C   0  0  0  0  0  0  0  0  0  0  0  0
   -1.0758  -11.2017   21.7638 C   0  0  0  0  0  0  0  0  0  0  0  0
   -1.2248   -9.5623   21.5319 C   0  0  0  0  0  0  0  0  0  0  0  0
   -0.4566   -8.4166   22.0007 C   0  0  0  0  0  0  0  0  0  0  0  0
   -0.5474   -7.2750   21.2310 C   0  0  0  0  0  0  0  0  0  0  0  0
   -1.5998   -7.4979   19.9263 S   0  0  0  0  0  0  0  0  0  0  0  0
   -1.9393   -9.1057   20.4218 C   0  0  0  0  0  0  0  0  0  0  0  0
   -1.6622  -13.8527   27.3417 C   0  0  0  0  0  0  0  0  0  0  0  0
   -2.0663  -14.9221   28.0398 C   0  0  0  0  0  0  0  0  0  0  0  0
   -2.2853  -14.4501   29.4728 N   0  0  0  0  0  0  0  0  0  0  0  0
   -3.0666  -14.9734   30.5432 C   0  0  0  0  0  0  0  0  0  0  0  0
   -3.1286  -14.3332   31.7104 C   0  0  0  0  0  0  0  0  0  0  0  0
   -2.3039  -13.1043   31.7450 C   0  0  0  0  0  0  0  0  0  0  0  0
   -1.5840  -12.6089   30.7825 N   0  0  0  0  0  0  0  0  0  0  0  0
   -1.6035  -13.2808   29.5959 C   0  0  0  0  0  0  0  0  0  0  0  0
   -1.1437  -12.9719   28.4119 N   0  0  0  0  0  0  0  0  0  0  0  0
   -0.8900  -14.7891   24.5703 H   0  0  0  0  0  0  0  0  0  0  0  0
    0.4913  -11.9766   22.9991 H   0  0  0  0  0  0  0  0  0  0  0  0
   -0.1741  -13.8545   22.4026 H   0  0  0  0  0  0  0  0  0  0  0  0
   -1.5630  -11.6392   20.8687 H   0  0  0  0  0  0  0  0  0  0  0  0
   -0.0437  -10.7639   21.6284 H   0  0  0  0  0  0  0  0  0  0  0  0
    0.2195   -8.3892   22.8283 H   0  0  0  0  0  0  0  0  0  0  0  0
   -0.0318   -6.3380   21.3812 H   0  0  0  0  0  0  0  0  0  0  0  0
   -2.5641   -9.7034   19.7754 H   0  0  0  0  0  0  0  0  0  0  0  0
   -2.4969  -15.8742   27.7641 H   0  0  0  0  0  0  0  0  0  0  0  0
   -3.6248  -15.8868   30.3770 H   0  0  0  0  0  0  0  0  0  0  0  0
   -3.7002  -14.6477   32.5702 H   0  0  0  0  0  0  0  0  0  0  0  0
   -2.3111  -12.5722   32.7111 H   0  0  0  0  0  0  0  0  0  0  0  0
  1  2  2  0
  2  3  1  0
  3  4  1  0
  4  5  1  0
  5  6  1  0
  6  7  1  0
  7  8  2  0
  8  9  1  0
  9 10  1  0
  2 11  1  0
 11 12  2  0
 12 13  1  0
 13 14  1  0
 14 15  2  0
 15 16  1  0
 16 17  2  0
 17 18  1  0
 18 19  2  0
 10  6  2  0
 19 11  1  0
 18 13  1  0
  3 20  1  0
  4 21  1  0
  4 22  1  0
  5 23  1  0
  5 24  1  0
  7 25  1  0
  8 26  1  0
 10 27  1  0
 12 28  1  0
 14 29  1  0
 15 30  1  0
 16 31  1  0
M  END
>  <Energy>  (82) 
437.9840907508094

>  <compound_id>  (82) 
35539

>  <target_id>  (82) 
1

>  <reference_id>  (82) 
76

>  <inspiration_ids>  (82) 
[107, 76]

>  <energy_score>  (82) 
360.07002871339887

>  <distance_score>  (82) 
15.283685402075784

>  <path>  (82) 
/opt/xchem-fragalysis-2/maxwin/BulkDock/SCRATCH/511013/C35539-P76/C35539-P76.minimised.mol

>  <scratch_subdir>  (82) 
/opt/xchem-fragalysis-2/maxwin/BulkDock/SCRATCH/511013/C35539-P76

>  <fragmenstein_runtime>  (82) 
7.790977478027344

>  <fragmenstein_outcome>  (82) 
too moved

>  <fragmenstein_mode>  (82) 
expansion

>  <fragmenstein_error>  (82) 


$$$$
C15787-P107
     RDKit          3D

 35 38  0  0  0  0  0  0  0  0999 V2000
    0.9084  -14.0065   16.9944 O   0  0  0  0  0  0  0  0  0  0  0  0
    1.1382  -14.4120   18.0867 C   0  0  0  0  0  0  0  0  0  0  0  0
   -0.5712  -15.2746   19.1018 C   0  0  0  0  0  0  0  0  0  0  0  0
   -0.0705  -16.4664   20.1967 C   0  0  0  0  0  0  0  0  0  0  0  0
   -0.8359  -17.4635   20.5798 C   0  0  0  0  0  0  0  0  0  0  0  0
   -2.0972  -17.6136   20.1026 N   0  0  0  0  0  0  0  0  0  0  0  0
   -3.0695  -18.5552   20.3734 C   0  0  0  0  0  0  0  0  0  0  0  0
   -4.0237  -18.3245   19.4274 C   0  0  0  0  0  0  0  0  0  0  0  0
   -3.6610  -17.2290   18.6793 N   0  0  0  0  0  0  0  0  0  0  0  0
   -2.5809  -16.6761   19.2409 C   0  0  0  0  0  0  0  0  0  0  0  0
   -1.8712  -15.4721   18.8297 N   0  0  0  0  0  0  0  0  0  0  0  0
    2.8331  -14.4785   18.7456 N   0  0  0  0  0  0  0  0  0  0  0  0
    3.9463  -13.0938   19.8017 C   0  0  0  0  0  0  0  0  0  0  0  0
    5.6395  -12.0864   19.7030 C   0  0  0  0  0  0  0  0  0  0  0  0
    6.3659  -10.8055   18.9607 C   0  0  0  0  0  0  0  0  0  0  0  0
    7.6513  -10.3591   19.3892 C   0  0  0  0  0  0  0  0  0  0  0  0
    8.0612  -11.1730   20.8051 S   0  0  0  0  0  0  0  0  0  0  0  0
    6.6693  -12.1689   20.6250 C   0  0  0  0  0  0  0  0  0  0  0  0
    3.9528  -14.2351   18.1831 C   0  0  0  0  0  0  0  0  0  0  0  0
    3.9302  -15.2917   17.1737 C   0  0  0  0  0  0  0  0  0  0  0  0
    4.5957  -15.4642   18.4161 C   0  0  0  0  0  0  0  0  0  0  0  0
    0.8644  -16.2318   20.5811 H   0  0  0  0  0  0  0  0  0  0  0  0
   -0.4933  -18.1234   21.3395 H   0  0  0  0  0  0  0  0  0  0  0  0
   -2.9527  -19.3229   21.1197 H   0  0  0  0  0  0  0  0  0  0  0  0
   -4.9266  -18.8808   19.2136 H   0  0  0  0  0  0  0  0  0  0  0  0
    4.9339  -13.6173   19.7929 H   0  0  0  0  0  0  0  0  0  0  0  0
    3.8293  -12.4043   19.0100 H   0  0  0  0  0  0  0  0  0  0  0  0
    5.8326   -9.9793   18.5047 H   0  0  0  0  0  0  0  0  0  0  0  0
    8.2035   -9.4977   19.0689 H   0  0  0  0  0  0  0  0  0  0  0  0
    6.8082  -13.0409   21.1347 H   0  0  0  0  0  0  0  0  0  0  0  0
    3.8536  -13.2845   17.8061 H   0  0  0  0  0  0  0  0  0  0  0  0
    4.5341  -15.7500   16.3773 H   0  0  0  0  0  0  0  0  0  0  0  0
    2.8848  -15.5379   16.8985 H   0  0  0  0  0  0  0  0  0  0  0  0
    3.9963  -16.1129   18.9711 H   0  0  0  0  0  0  0  0  0  0  0  0
    5.3676  -15.9725   18.9518 H   0  0  0  0  0  0  0  0  0  0  0  0
  1  2  2  0
  2  3  1  0
  3  4  1  0
  4  5  2  0
  5  6  1  0
  6  7  1  0
  7  8  2  0
  8  9  1  0
  9 10  2  0
 10 11  1  0
  2 12  1  0
 12 13  1  0
 13 14  1  0
 14 15  1  0
 15 16  2  0
 16 17  1  0
 17 18  1  0
 12 19  1  0
 19 20  1  0
 20 21  1  0
 11  3  2  0
 18 14  2  0
 21 19  1  0
 10  6  1  0
  4 22  1  0
  5 23  1  0
  7 24  1  0
  8 25  1  0
 13 26  1  0
 13 27  1  0
 15 28  1  0
 16 29  1  0
 18 30  1  0
 19 31  1  0
 20 32  1  0
 20 33  1  0
 21 34  1  0
 21 35  1  0
M  END
>  <Energy>  (83) 
798.35995343854029

>  <compound_id>  (83) 
15787

>  <target_id>  (83) 
1

>  <reference_id>  (83) 
107

>  <inspiration_ids>  (83) 
[107, 76]

>  <energy_score>  (83) 
675.695108446223

>  <distance_score>  (83) 
15.067849248560307

>  <path>  (83) 
/opt/xchem-fragalysis-2/maxwin/BulkDock/SCRATCH/511013/C15787-P107/C15787-P107.minimised.mol

>  <scratch_subdir>  (83) 
/opt/xchem-fragalysis-2/maxwin/BulkDock/SCRATCH/511013/C15787-P107

>  <fragmenstein_runtime>  (83) 
15.04554009437561

>  <fragmenstein_outcome>  (83) 
too moved

>  <fragmenstein_mode>  (83) 
expansion

>  <fragmenstein_error>  (83) 


$$$$
C15787-P76
     RDKit          3D

 35 38  0  0  0  0  0  0  0  0999 V2000
    1.4122  -14.0622   23.8726 O   0  0  0  0  0  0  0  0  0  0  0  0
    2.5848  -14.2574   23.6169 C   0  0  0  0  0  0  0  0  0  0  0  0
    3.3562  -14.5783   24.9365 C   0  0  0  0  0  0  0  0  0  0  0  0
    3.7540  -16.0409   25.0943 C   0  0  0  0  0  0  0  0  0  0  0  0
    3.1278  -16.7574   26.0515 C   0  0  0  0  0  0  0  0  0  0  0  0
    2.2346  -16.1210   26.9005 N   0  0  0  0  0  0  0  0  0  0  0  0
    1.3430  -16.6417   27.8111 C   0  0  0  0  0  0  0  0  0  0  0  0
    0.6519  -15.5560   28.2901 C   0  0  0  0  0  0  0  0  0  0  0  0
    1.1304  -14.3922   27.7266 N   0  0  0  0  0  0  0  0  0  0  0  0
    2.0937  -14.7325   26.8792 C   0  0  0  0  0  0  0  0  0  0  0  0
    2.8468  -13.9463   25.9946 N   0  0  0  0  0  0  0  0  0  0  0  0
    3.2893  -14.3275   21.9890 N   0  0  0  0  0  0  0  0  0  0  0  0
    3.9002  -12.6261   21.3734 C   0  0  0  0  0  0  0  0  0  0  0  0
    5.5118  -11.5649   21.1713 C   0  0  0  0  0  0  0  0  0  0  0  0
    6.2178  -11.2832   19.9786 C   0  0  0  0  0  0  0  0  0  0  0  0
    7.3089  -10.4294   20.0480 C   0  0  0  0  0  0  0  0  0  0  0  0
    7.7202  -10.1585   21.6555 S   0  0  0  0  0  0  0  0  0  0  0  0
    6.1682  -10.6870   22.1171 C   0  0  0  0  0  0  0  0  0  0  0  0
    2.4898  -14.2783   20.3200 C   0  0  0  0  0  0  0  0  0  0  0  0
    2.5927  -14.6620   18.7141 C   0  0  0  0  0  0  0  0  0  0  0  0
    3.7109  -13.8401   18.8941 C   0  0  0  0  0  0  0  0  0  0  0  0
    4.4445  -16.4821   24.4083 H   0  0  0  0  0  0  0  0  0  0  0  0
    3.2691  -17.8234   26.1806 H   0  0  0  0  0  0  0  0  0  0  0  0
    1.2698  -17.7006   28.0091 H   0  0  0  0  0  0  0  0  0  0  0  0
   -0.1518  -15.5361   29.0149 H   0  0  0  0  0  0  0  0  0  0  0  0
    4.6855  -13.1773   20.8743 H   0  0  0  0  0  0  0  0  0  0  0  0
    3.6683  -12.1335   22.3317 H   0  0  0  0  0  0  0  0  0  0  0  0
    5.8328  -11.6700   19.0654 H   0  0  0  0  0  0  0  0  0  0  0  0
    7.9288  -10.0683   19.2381 H   0  0  0  0  0  0  0  0  0  0  0  0
    5.8569  -10.4576   23.1310 H   0  0  0  0  0  0  0  0  0  0  0  0
    1.9051  -15.1532   20.5381 H   0  0  0  0  0  0  0  0  0  0  0  0
    2.8864  -15.5903   18.2916 H   0  0  0  0  0  0  0  0  0  0  0  0
    1.8276  -14.2733   18.0477 H   0  0  0  0  0  0  0  0  0  0  0  0
    4.6244  -14.3926   18.6941 H   0  0  0  0  0  0  0  0  0  0  0  0
    3.7325  -12.8362   18.4999 H   0  0  0  0  0  0  0  0  0  0  0  0
  1  2  2  0
  2  3  1  0
  3  4  1  0
  4  5  2  0
  5  6  1  0
  6  7  1  0
  7  8  2  0
  8  9  1  0
  9 10  2  0
 10 11  1  0
  2 12  1  0
 12 13  1  0
 13 14  1  0
 14 15  1  0
 15 16  2  0
 16 17  1  0
 17 18  1  0
 12 19  1  0
 19 20  1  0
 20 21  1  0
 11  3  2  0
 18 14  2  0
 21 19  1  0
 10  6  1  0
  4 22  1  0
  5 23  1  0
  7 24  1  0
  8 25  1  0
 13 26  1  0
 13 27  1  0
 15 28  1  0
 16 29  1  0
 18 30  1  0
 19 31  1  0
 20 32  1  0
 20 33  1  0
 21 34  1  0
 21 35  1  0
M  END
>  <Energy>  (84) 
486.80795344934268

>  <compound_id>  (84) 
15787

>  <target_id>  (84) 
1

>  <reference_id>  (84) 
76

>  <inspiration_ids>  (84) 
[107, 76]

>  <energy_score>  (84) 
364.1431084570272

>  <distance_score>  (84) 
15.356428573968538

>  <path>  (84) 
/opt/xchem-fragalysis-2/maxwin/BulkDock/SCRATCH/511013/C15787-P76/C15787-P76.minimised.mol

>  <scratch_subdir>  (84) 
/opt/xchem-fragalysis-2/maxwin/BulkDock/SCRATCH/511013/C15787-P76

>  <fragmenstein_runtime>  (84) 
14.5227792263031

>  <fragmenstein_outcome>  (84) 
too moved

>  <fragmenstein_mode>  (84) 
expansion

>  <fragmenstein_error>  (84) 


$$$$
C35540-P107
     RDKit          3D

 35 38  0  0  0  0  0  0  0  0999 V2000
  -10.7703  -20.5398   20.8310 O   0  0  0  0  0  0  0  0  0  0  0  0
  -10.5535  -20.2530   21.9225 C   0  0  0  0  0  0  0  0  0  0  0  0
  -11.0962  -21.2116   23.0179 C   0  0  0  0  0  0  0  0  0  0  0  0
  -12.0490  -21.0978   24.0097 C   0  0  0  0  0  0  0  0  0  0  0  0
  -12.0091  -22.2718   24.8598 N   0  0  0  0  0  0  0  0  0  0  0  0
  -12.0121  -22.5395   26.3066 C   0  0  0  0  0  0  0  0  0  0  0  0
  -11.7927  -23.7281   26.8697 C   0  0  0  0  0  0  0  0  0  0  0  0
  -11.3399  -24.6981   25.8931 C   0  0  0  0  0  0  0  0  0  0  0  0
  -11.0403  -24.4280   24.6689 N   0  0  0  0  0  0  0  0  0  0  0  0
  -11.3123  -23.1728   24.1304 C   0  0  0  0  0  0  0  0  0  0  0  0
  -10.7010  -22.5149   23.1242 N   0  0  0  0  0  0  0  0  0  0  0  0
   -9.7774  -18.9317   22.6224 N   0  0  0  0  0  0  0  0  0  0  0  0
   -8.7445  -17.3580   21.9969 C   0  0  0  0  0  0  0  0  0  0  0  0
   -7.2317  -17.0652   21.0296 C   0  0  0  0  0  0  0  0  0  0  0  0
   -6.0152  -17.8384   20.9669 C   0  0  0  0  0  0  0  0  0  0  0  0
   -5.0118  -17.2343   20.2200 C   0  0  0  0  0  0  0  0  0  0  0  0
   -5.5083  -15.7450   19.5507 S   0  0  0  0  0  0  0  0  0  0  0  0
   -7.0361  -15.8654   20.3329 C   0  0  0  0  0  0  0  0  0  0  0  0
   -9.3430  -17.7609   21.7884 C   0  0  0  0  0  0  0  0  0  0  0  0
  -10.9280  -16.8631   21.8723 C   0  0  0  0  0  0  0  0  0  0  0  0
  -10.4788  -17.2221   20.5427 C   0  0  0  0  0  0  0  0  0  0  0  0
  -12.7265  -20.2931   24.1909 H   0  0  0  0  0  0  0  0  0  0  0  0
  -12.0153  -21.6912   26.9726 H   0  0  0  0  0  0  0  0  0  0  0  0
  -11.7197  -23.9153   27.9300 H   0  0  0  0  0  0  0  0  0  0  0  0
  -11.1701  -25.7174   26.2763 H   0  0  0  0  0  0  0  0  0  0  0  0
   -7.9047  -17.6537   22.8862 H   0  0  0  0  0  0  0  0  0  0  0  0
   -8.8520  -16.3080   22.6916 H   0  0  0  0  0  0  0  0  0  0  0  0
   -5.8865  -18.7989   21.4537 H   0  0  0  0  0  0  0  0  0  0  0  0
   -4.0191  -17.6136   20.0145 H   0  0  0  0  0  0  0  0  0  0  0  0
   -7.7412  -15.0517   20.2249 H   0  0  0  0  0  0  0  0  0  0  0  0
   -9.0288  -18.6232   20.8447 H   0  0  0  0  0  0  0  0  0  0  0  0
  -11.7835  -17.3994   22.2759 H   0  0  0  0  0  0  0  0  0  0  0  0
  -10.9065  -15.8134   22.1553 H   0  0  0  0  0  0  0  0  0  0  0  0
  -11.0221  -18.0007   20.0083 H   0  0  0  0  0  0  0  0  0  0  0  0
  -10.1349  -16.4355   19.8741 H   0  0  0  0  0  0  0  0  0  0  0  0
  1  2  2  0
  2  3  1  0
  3  4  2  0
  4  5  1  0
  5  6  1  0
  6  7  2  0
  7  8  1  0
  8  9  2  0
  9 10  1  0
 10 11  2  0
  2 12  1  0
 12 13  1  0
 13 14  1  0
 14 15  1  0
 15 16  2  0
 16 17  1  0
 17 18  1  0
 12 19  1  0
 19 20  1  0
 20 21  1  0
 11  3  1  0
 18 14  2  0
 21 19  1  0
 10  5  1  0
  4 22  1  0
  6 23  1  0
  7 24  1  0
  8 25  1  0
 13 26  1  0
 13 27  1  0
 15 28  1  0
 16 29  1  0
 18 30  1  0
 19 31  1  0
 20 32  1  0
 20 33  1  0
 21 34  1  0
 21 35  1  0
M  END
>  <Energy>  (85) 
835.48883213010436

>  <compound_id>  (85) 
35540

>  <target_id>  (85) 
1

>  <reference_id>  (85) 
107

>  <inspiration_ids>  (85) 
[107, 76]

>  <energy_score>  (85) 
720.9348875774801

>  <distance_score>  (85) 
16.47576652512376

>  <path>  (85) 
/opt/xchem-fragalysis-2/maxwin/BulkDock/SCRATCH/511013/C35540-P107/C35540-P107.minimised.mol

>  <scratch_subdir>  (85) 
/opt/xchem-fragalysis-2/maxwin/BulkDock/SCRATCH/511013/C35540-P107

>  <fragmenstein_runtime>  (85) 
23.033520936965942

>  <fragmenstein_outcome>  (85) 
too moved

>  <fragmenstein_mode>  (85) 
expansion

>  <fragmenstein_error>  (85) 


$$$$
C35540-P76
     RDKit          3D

 35 38  0  0  0  0  0  0  0  0999 V2000
   -2.3347  -14.8458   26.4166 O   0  0  0  0  0  0  0  0  0  0  0  0
   -1.7659  -15.2178   27.3808 C   0  0  0  0  0  0  0  0  0  0  0  0
   -1.6357  -17.1241   27.3522 C   0  0  0  0  0  0  0  0  0  0  0  0
   -0.3826  -17.9916   27.4348 C   0  0  0  0  0  0  0  0  0  0  0  0
   -0.6699  -19.2857   27.0525 N   0  0  0  0  0  0  0  0  0  0  0  0
   -0.0920  -20.5042   27.3887 C   0  0  0  0  0  0  0  0  0  0  0  0
   -0.7174  -21.6440   27.0521 C   0  0  0  0  0  0  0  0  0  0  0  0
   -1.9571  -21.4637   26.2511 C   0  0  0  0  0  0  0  0  0  0  0  0
   -2.4613  -20.3297   25.8853 N   0  0  0  0  0  0  0  0  0  0  0  0
   -1.8501  -19.1953   26.3698 C   0  0  0  0  0  0  0  0  0  0  0  0
   -2.2188  -17.9080   26.3545 N   0  0  0  0  0  0  0  0  0  0  0  0
   -1.1068  -14.4479   28.4265 N   0  0  0  0  0  0  0  0  0  0  0  0
   -0.8405  -13.1386   28.4967 C   0  0  0  0  0  0  0  0  0  0  0  0
    0.8973  -13.6476   29.0226 C   0  0  0  0  0  0  0  0  0  0  0  0
    1.3621  -13.8774   30.3610 C   0  0  0  0  0  0  0  0  0  0  0  0
    2.7375  -13.9941   30.4489 C   0  0  0  0  0  0  0  0  0  0  0  0
    3.4922  -13.9474   28.9295 S   0  0  0  0  0  0  0  0  0  0  0  0
    1.9795  -13.7146   28.1718 C   0  0  0  0  0  0  0  0  0  0  0  0
   -1.0909  -12.4825   28.7617 C   0  0  0  0  0  0  0  0  0  0  0  0
   -1.1776  -11.7931   30.1529 C   0  0  0  0  0  0  0  0  0  0  0  0
   -0.1413  -11.2014   29.2312 C   0  0  0  0  0  0  0  0  0  0  0  0
    0.6003  -17.7727   27.8414 H   0  0  0  0  0  0  0  0  0  0  0  0
    0.8189  -20.4752   27.9718 H   0  0  0  0  0  0  0  0  0  0  0  0
   -0.3693  -22.6362   27.2969 H   0  0  0  0  0  0  0  0  0  0  0  0
   -2.4425  -22.3972   25.9215 H   0  0  0  0  0  0  0  0  0  0  0  0
    0.0428  -12.8446   27.5167 H   0  0  0  0  0  0  0  0  0  0  0  0
   -1.2204  -13.1416   27.2012 H   0  0  0  0  0  0  0  0  0  0  0  0
    0.7259  -13.9129   31.2352 H   0  0  0  0  0  0  0  0  0  0  0  0
    3.3234  -14.1400   31.3454 H   0  0  0  0  0  0  0  0  0  0  0  0
    1.8940  -13.5981   27.1100 H   0  0  0  0  0  0  0  0  0  0  0  0
   -2.1814  -12.0227   28.2666 H   0  0  0  0  0  0  0  0  0  0  0  0
   -0.8811  -12.4701   30.9387 H   0  0  0  0  0  0  0  0  0  0  0  0
   -2.0372  -11.1542   30.3049 H   0  0  0  0  0  0  0  0  0  0  0  0
   -0.3636  -10.2429   28.7655 H   0  0  0  0  0  0  0  0  0  0  0  0
    0.9110  -11.2875   29.4691 H   0  0  0  0  0  0  0  0  0  0  0  0
  1  2  2  0
  2  3  1  0
  3  4  2  0
  4  5  1  0
  5  6  1  0
  6  7  2  0
  7  8  1  0
  8  9  2  0
  9 10  1  0
 10 11  2  0
  2 12  1  0
 12 13  1  0
 13 14  1  0
 14 15  1  0
 15 16  2  0
 16 17  1  0
 17 18  1  0
 12 19  1  0
 19 20  1  0
 20 21  1  0
 11  3  1  0
 18 14  2  0
 21 19  1  0
 10  5  1  0
  4 22  1  0
  6 23  1  0
  7 24  1  0
  8 25  1  0
 13 26  1  0
 13 27  1  0
 15 28  1  0
 16 29  1  0
 18 30  1  0
 19 31  1  0
 20 32  1  0
 20 33  1  0
 21 34  1  0
 21 35  1  0
M  END
>  <Energy>  (86) 
982.76359975902085

>  <compound_id>  (86) 
35540

>  <target_id>  (86) 
1

>  <reference_id>  (86) 
76

>  <inspiration_ids>  (86) 
[107, 76]

>  <energy_score>  (86) 
868.2096552063894

>  <distance_score>  (86) 
16.088214074041247

>  <path>  (86) 
/opt/xchem-fragalysis-2/maxwin/BulkDock/SCRATCH/511013/C35540-P76/C35540-P76.minimised.mol

>  <scratch_subdir>  (86) 
/opt/xchem-fragalysis-2/maxwin/BulkDock/SCRATCH/511013/C35540-P76

>  <fragmenstein_runtime>  (86) 
13.815848350524902

>  <fragmenstein_outcome>  (86) 
too moved

>  <fragmenstein_mode>  (86) 
expansion

>  <fragmenstein_error>  (86) 


$$$$
C35541-P107
     RDKit          3D

 43 46  0  0  0  0  0  0  0  0999 V2000
   -2.0285  -12.1516   20.9168 O   0  0  0  0  0  0  0  0  0  0  0  0
   -1.1303  -11.9655   21.7229 C   0  0  0  0  0  0  0  0  0  0  0  0
   -0.2429  -10.5407   21.9804 N   0  0  0  0  0  0  0  0  0  0  0  0
   -0.3610   -9.1066   21.3073 C   0  0  0  0  0  0  0  0  0  0  0  0
    1.0251   -8.2008   20.5917 C   0  0  0  0  0  0  0  0  0  0  0  0
    2.3067   -7.5512   21.1411 N   0  0  0  0  0  0  0  0  0  0  0  0
    3.0254   -6.8028   20.0584 C   0  0  0  0  0  0  0  0  0  0  0  0
    4.4267   -6.3581   20.4451 C   0  0  0  0  0  0  0  0  0  0  0  0
    4.7874   -5.0187   20.8330 C   0  0  0  0  0  0  0  0  0  0  0  0
    6.1353   -4.8652   21.0785 C   0  0  0  0  0  0  0  0  0  0  0  0
    6.9971   -6.3116   20.8199 S   0  0  0  0  0  0  0  0  0  0  0  0
    5.5680   -7.1437   20.3779 C   0  0  0  0  0  0  0  0  0  0  0  0
   -1.1984   -8.2025   22.2102 C   0  0  0  0  0  0  0  0  0  0  0  0
   -1.3376   -6.7087   21.9994 C   0  0  0  0  0  0  0  0  0  0  0  0
   -0.6169   -7.2280   23.2090 C   0  0  0  0  0  0  0  0  0  0  0  0
   -0.3465  -13.5706   22.9512 C   0  0  0  0  0  0  0  0  0  0  0  0
   -1.5109  -14.8692   22.7312 C   0  0  0  0  0  0  0  0  0  0  0  0
   -2.9569  -15.1479   23.2949 N   0  0  0  0  0  0  0  0  0  0  0  0
   -3.0213  -15.5895   24.5221 C   0  0  0  0  0  0  0  0  0  0  0  0
   -3.7559  -16.3281   25.3455 N   0  0  0  0  0  0  0  0  0  0  0  0
   -3.1445  -17.2192   26.2812 C   0  0  0  0  0  0  0  0  0  0  0  0
   -2.1005  -17.3786   25.5012 C   0  0  0  0  0  0  0  0  0  0  0  0
   -1.8285  -15.6846   24.7615 N   0  0  0  0  0  0  0  0  0  0  0  0
   -0.6878  -14.4535   24.1811 C   0  0  0  0  0  0  0  0  0  0  0  0
    0.4904  -10.7183   22.6550 H   0  0  0  0  0  0  0  0  0  0  0  0
   -1.0427   -9.2710   20.4648 H   0  0  0  0  0  0  0  0  0  0  0  0
    1.3933   -8.8136   19.7842 H   0  0  0  0  0  0  0  0  0  0  0  0
    0.5033   -7.3824   20.0794 H   0  0  0  0  0  0  0  0  0  0  0  0
    2.0396   -6.8981   21.8712 H   0  0  0  0  0  0  0  0  0  0  0  0
    3.1095   -7.4277   19.1615 H   0  0  0  0  0  0  0  0  0  0  0  0
    2.4299   -5.9239   19.7821 H   0  0  0  0  0  0  0  0  0  0  0  0
    4.0752   -4.2085   20.9385 H   0  0  0  0  0  0  0  0  0  0  0  0
    6.6476   -3.9725   21.4096 H   0  0  0  0  0  0  0  0  0  0  0  0
    5.6230   -8.1861   20.0967 H   0  0  0  0  0  0  0  0  0  0  0  0
   -2.1313   -8.6997   22.4636 H   0  0  0  0  0  0  0  0  0  0  0  0
   -2.3233   -6.2761   22.1434 H   0  0  0  0  0  0  0  0  0  0  0  0
   -0.7566   -6.1879   21.2519 H   0  0  0  0  0  0  0  0  0  0  0  0
    0.4576   -7.1310   23.2718 H   0  0  0  0  0  0  0  0  0  0  0  0
   -1.1135   -7.1167   24.1670 H   0  0  0  0  0  0  0  0  0  0  0  0
   -1.7228  -14.7846   21.5581 H   0  0  0  0  0  0  0  0  0  0  0  0
   -3.6303  -17.7244   27.1042 H   0  0  0  0  0  0  0  0  0  0  0  0
   -1.2119  -17.9660   25.7469 H   0  0  0  0  0  0  0  0  0  0  0  0
    0.3162  -14.4200   24.5736 H   0  0  0  0  0  0  0  0  0  0  0  0
  1  2  2  0
  2  3  1  0
  3  4  1  0
  4  5  1  0
  5  6  1  0
  6  7  1  0
  7  8  1  0
  8  9  1  0
  9 10  2  0
 10 11  1  0
 11 12  1  0
  4 13  1  0
 13 14  1  0
 14 15  1  0
  2 16  1  0
 16 17  1  0
 17 18  2  0
 18 19  1  0
 19 20  2  0
 20 21  1  0
 21 22  2  0
 22 23  1  0
 23 24  1  0
 12  8  2  0
 15 13  1  0
 24 16  2  0
 23 19  1  0
  3 25  1  0
  4 26  1  0
  5 27  1  0
  5 28  1  0
  6 29  1  0
  7 30  1  0
  7 31  1  0
  9 32  1  0
 10 33  1  0
 12 34  1  0
 13 35  1  0
 14 36  1  0
 14 37  1  0
 15 38  1  0
 15 39  1  0
 17 40  1  0
 21 41  1  0
 22 42  1  0
 24 43  1  0
M  END
>  <Energy>  (87) 
664.36305008042052

>  <compound_id>  (87) 
35541

>  <target_id>  (87) 
1

>  <reference_id>  (87) 
107

>  <inspiration_ids>  (87) 
[107, 76]

>  <energy_score>  (87) 
586.9576429951171

>  <distance_score>  (87) 
14.717408315453445

>  <path>  (87) 
/opt/xchem-fragalysis-2/maxwin/BulkDock/SCRATCH/511013/C35541-P107/C35541-P107.minimised.mol

>  <scratch_subdir>  (87) 
/opt/xchem-fragalysis-2/maxwin/BulkDock/SCRATCH/511013/C35541-P107

>  <fragmenstein_runtime>  (87) 
22.015868663787842

>  <fragmenstein_outcome>  (87) 
too moved

>  <fragmenstein_mode>  (87) 
expansion

>  <fragmenstein_error>  (87) 


$$$$
C35541-P76
     RDKit          3D

 43 46  0  0  0  0  0  0  0  0999 V2000
   -2.8098   -7.1469   25.0380 O   0  0  0  0  0  0  0  0  0  0  0  0
   -2.9439   -7.9193   24.1255 C   0  0  0  0  0  0  0  0  0  0  0  0
   -2.2962   -7.9629   22.8089 N   0  0  0  0  0  0  0  0  0  0  0  0
   -1.3068   -6.9729   22.1243 C   0  0  0  0  0  0  0  0  0  0  0  0
    0.3260   -7.2916   22.0663 C   0  0  0  0  0  0  0  0  0  0  0  0
    1.3421   -6.3919   21.3380 N   0  0  0  0  0  0  0  0  0  0  0  0
    2.7131   -6.8337   21.7035 C   0  0  0  0  0  0  0  0  0  0  0  0
    3.8356   -6.3507   20.8166 C   0  0  0  0  0  0  0  0  0  0  0  0
    4.9744   -5.6097   21.2902 C   0  0  0  0  0  0  0  0  0  0  0  0
    6.0020   -5.5625   20.3768 C   0  0  0  0  0  0  0  0  0  0  0  0
    5.5937   -6.3568   18.9240 S   0  0  0  0  0  0  0  0  0  0  0  0
    4.0258   -6.7152   19.4949 C   0  0  0  0  0  0  0  0  0  0  0  0
   -1.7782   -6.6759   20.7149 C   0  0  0  0  0  0  0  0  0  0  0  0
   -3.2005   -6.8628   20.2359 C   0  0  0  0  0  0  0  0  0  0  0  0
   -2.1140   -7.7814   19.7430 C   0  0  0  0  0  0  0  0  0  0  0  0
   -4.0288   -9.0455   24.4578 C   0  0  0  0  0  0  0  0  0  0  0  0
   -5.1838   -9.5211   23.6015 C   0  0  0  0  0  0  0  0  0  0  0  0
   -6.2108  -10.2580   23.9482 N   0  0  0  0  0  0  0  0  0  0  0  0
   -6.2684  -10.6915   25.2420 C   0  0  0  0  0  0  0  0  0  0  0  0
   -7.1815  -11.4255   25.8604 N   0  0  0  0  0  0  0  0  0  0  0  0
   -6.7884  -11.5052   27.1736 C   0  0  0  0  0  0  0  0  0  0  0  0
   -5.5986  -10.8369   27.3599 C   0  0  0  0  0  0  0  0  0  0  0  0
   -5.2608  -10.3207   26.1239 N   0  0  0  0  0  0  0  0  0  0  0  0
   -4.1790   -9.5097   25.7317 C   0  0  0  0  0  0  0  0  0  0  0  0
   -2.7106   -8.7053   22.2603 H   0  0  0  0  0  0  0  0  0  0  0  0
   -1.4019   -6.0512   22.7120 H   0  0  0  0  0  0  0  0  0  0  0  0
    0.6329   -7.3655   23.1162 H   0  0  0  0  0  0  0  0  0  0  0  0
    0.4118   -8.2868   21.6139 H   0  0  0  0  0  0  0  0  0  0  0  0
    1.2142   -5.4345   21.6584 H   0  0  0  0  0  0  0  0  0  0  0  0
    2.7544   -7.9295   21.6843 H   0  0  0  0  0  0  0  0  0  0  0  0
    2.9108   -6.5328   22.7402 H   0  0  0  0  0  0  0  0  0  0  0  0
    5.0621   -5.2056   22.2916 H   0  0  0  0  0  0  0  0  0  0  0  0
    6.9730   -5.1150   20.5255 H   0  0  0  0  0  0  0  0  0  0  0  0
    3.3344   -7.2688   18.8725 H   0  0  0  0  0  0  0  0  0  0  0  0
   -1.2410   -5.8224   20.3086 H   0  0  0  0  0  0  0  0  0  0  0  0
   -3.5948   -6.1316   19.5374 H   0  0  0  0  0  0  0  0  0  0  0  0
   -3.9510   -7.2616   20.9050 H   0  0  0  0  0  0  0  0  0  0  0  0
   -1.7654   -7.6688   18.7211 H   0  0  0  0  0  0  0  0  0  0  0  0
   -2.0917   -8.8096   20.0839 H   0  0  0  0  0  0  0  0  0  0  0  0
   -5.1477   -9.1671   22.5573 H   0  0  0  0  0  0  0  0  0  0  0  0
   -7.3773  -12.0418   27.9059 H   0  0  0  0  0  0  0  0  0  0  0  0
   -4.9844  -10.6764   28.2333 H   0  0  0  0  0  0  0  0  0  0  0  0
   -3.5084   -9.2100   26.5288 H   0  0  0  0  0  0  0  0  0  0  0  0
  1  2  2  0
  2  3  1  0
  3  4  1  0
  4  5  1  0
  5  6  1  0
  6  7  1  0
  7  8  1  0
  8  9  1  0
  9 10  2  0
 10 11  1  0
 11 12  1  0
  4 13  1  0
 13 14  1  0
 14 15  1  0
  2 16  1  0
 16 17  1  0
 17 18  2  0
 18 19  1  0
 19 20  2  0
 20 21  1  0
 21 22  2  0
 22 23  1  0
 23 24  1  0
 12  8  2  0
 15 13  1  0
 24 16  2  0
 23 19  1  0
  3 25  1  0
  4 26  1  0
  5 27  1  0
  5 28  1  0
  6 29  1  0
  7 30  1  0
  7 31  1  0
  9 32  1  0
 10 33  1  0
 12 34  1  0
 13 35  1  0
 14 36  1  0
 14 37  1  0
 15 38  1  0
 15 39  1  0
 17 40  1  0
 21 41  1  0
 22 42  1  0
 24 43  1  0
M  END
>  <Energy>  (88) 
78.047101767729913

>  <compound_id>  (88) 
35541

>  <target_id>  (88) 
1

>  <reference_id>  (88) 
76

>  <inspiration_ids>  (88) 
[107, 76]

>  <energy_score>  (88) 
0.6416946824298293

>  <distance_score>  (88) 
15.657736175067026

>  <path>  (88) 
/opt/xchem-fragalysis-2/maxwin/BulkDock/SCRATCH/511013/C35541-P76/C35541-P76.minimised.mol

>  <scratch_subdir>  (88) 
/opt/xchem-fragalysis-2/maxwin/BulkDock/SCRATCH/511013/C35541-P76

>  <fragmenstein_runtime>  (88) 
14.69109320640564

>  <fragmenstein_outcome>  (88) 
too moved

>  <fragmenstein_mode>  (88) 
expansion

>  <fragmenstein_error>  (88) 


$$$$
C35542-P107
     RDKit          3D

 43 46  0  0  0  0  0  0  0  0999 V2000
    2.9410  -13.2473   23.8949 O   0  0  0  0  0  0  0  0  0  0  0  0
    2.5488  -12.1180   23.9880 C   0  0  0  0  0  0  0  0  0  0  0  0
    3.3083  -10.7866   22.8068 N   0  0  0  0  0  0  0  0  0  0  0  0
    4.5485  -10.8518   21.7220 C   0  0  0  0  0  0  0  0  0  0  0  0
    5.9125   -9.9549   22.2196 C   0  0  0  0  0  0  0  0  0  0  0  0
    6.4046   -8.7041   21.5301 N   0  0  0  0  0  0  0  0  0  0  0  0
    7.6936   -8.8371   20.8249 C   0  0  0  0  0  0  0  0  0  0  0  0
    8.7234   -7.8348   21.3127 C   0  0  0  0  0  0  0  0  0  0  0  0
    8.6413   -6.4004   21.2394 C   0  0  0  0  0  0  0  0  0  0  0  0
    9.7674   -5.7636   21.7118 C   0  0  0  0  0  0  0  0  0  0  0  0
   10.9334   -6.8668   22.2841 S   0  0  0  0  0  0  0  0  0  0  0  0
    9.9433   -8.1974   21.8655 C   0  0  0  0  0  0  0  0  0  0  0  0
    5.3846   -7.9329   20.7974 C   0  0  0  0  0  0  0  0  0  0  0  0
    4.1509   -7.4192   21.4954 C   0  0  0  0  0  0  0  0  0  0  0  0
    5.2093   -6.4601   21.0629 C   0  0  0  0  0  0  0  0  0  0  0  0
    1.3175  -11.9625   25.5787 C   0  0  0  0  0  0  0  0  0  0  0  0
    0.2589  -12.9600   26.0706 C   0  0  0  0  0  0  0  0  0  0  0  0
   -1.3501  -11.8235   25.9688 N   0  0  0  0  0  0  0  0  0  0  0  0
   -2.9055  -12.2594   26.1682 C   0  0  0  0  0  0  0  0  0  0  0  0
   -3.5701  -12.1072   27.4449 C   0  0  0  0  0  0  0  0  0  0  0  0
   -2.6588  -11.4464   29.0087 C   0  0  0  0  0  0  0  0  0  0  0  0
   -1.4015  -10.6088   28.8273 N   0  0  0  0  0  0  0  0  0  0  0  0
   -0.6383  -10.5737   27.3441 C   0  0  0  0  0  0  0  0  0  0  0  0
    0.9235  -10.9067   27.0324 N   0  0  0  0  0  0  0  0  0  0  0  0
    2.8334   -9.9324   22.9397 H   0  0  0  0  0  0  0  0  0  0  0  0
    4.8347  -11.7617   21.1743 H   0  0  0  0  0  0  0  0  0  0  0  0
    4.2816  -10.0385   21.0319 H   0  0  0  0  0  0  0  0  0  0  0  0
    5.6882   -9.6268   23.2381 H   0  0  0  0  0  0  0  0  0  0  0  0
    6.7353  -10.6697   22.3359 H   0  0  0  0  0  0  0  0  0  0  0  0
    7.5414   -8.7491   19.7471 H   0  0  0  0  0  0  0  0  0  0  0  0
    8.1085   -9.8439   20.9627 H   0  0  0  0  0  0  0  0  0  0  0  0
    7.7924   -5.8540   20.8583 H   0  0  0  0  0  0  0  0  0  0  0  0
    9.9683   -4.7031   21.7551 H   0  0  0  0  0  0  0  0  0  0  0  0
   10.3081   -9.1987   22.0518 H   0  0  0  0  0  0  0  0  0  0  0  0
    5.2256   -8.2586   19.7693 H   0  0  0  0  0  0  0  0  0  0  0  0
    3.2172   -7.4419   20.9447 H   0  0  0  0  0  0  0  0  0  0  0  0
    4.0384   -7.5681   22.5590 H   0  0  0  0  0  0  0  0  0  0  0  0
    4.9960   -5.8125   20.2210 H   0  0  0  0  0  0  0  0  0  0  0  0
    5.7714   -5.9877   21.8595 H   0  0  0  0  0  0  0  0  0  0  0  0
    0.1933  -13.6083   26.8698 H   0  0  0  0  0  0  0  0  0  0  0  0
   -3.3282  -12.4015   25.2015 H   0  0  0  0  0  0  0  0  0  0  0  0
   -4.6349  -12.0986   27.5767 H   0  0  0  0  0  0  0  0  0  0  0  0
   -3.0838  -11.7442   29.9900 H   0  0  0  0  0  0  0  0  0  0  0  0
  1  2  2  0
  2  3  1  0
  3  4  1  0
  4  5  1  0
  5  6  1  0
  6  7  1  0
  7  8  1  0
  8  9  1  0
  9 10  2  0
 10 11  1  0
 11 12  1  0
  6 13  1  0
 13 14  1  0
 14 15  1  0
  2 16  1  0
 16 17  2  0
 17 18  1  0
 18 19  1  0
 19 20  2  0
 20 21  1  0
 21 22  2  0
 22 23  1  0
 23 24  2  0
 12  8  2  0
 15 13  1  0
 24 16  1  0
 23 18  1  0
  3 25  1  0
  4 26  1  0
  4 27  1  0
  5 28  1  0
  5 29  1  0
  7 30  1  0
  7 31  1  0
  9 32  1  0
 10 33  1  0
 12 34  1  0
 13 35  1  0
 14 36  1  0
 14 37  1  0
 15 38  1  0
 15 39  1  0
 17 40  1  0
 19 41  1  0
 20 42  1  0
 21 43  1  0
M  END
>  <Energy>  (89) 
785.08285561710136

>  <compound_id>  (89) 
35542

>  <target_id>  (89) 
1

>  <reference_id>  (89) 
107

>  <inspiration_ids>  (89) 
[107, 76]

>  <energy_score>  (89) 
677.9003165860072

>  <distance_score>  (89) 
14.870209237959102

>  <path>  (89) 
/opt/xchem-fragalysis-2/maxwin/BulkDock/SCRATCH/511013/C35542-P107/C35542-P107.minimised.mol

>  <scratch_subdir>  (89) 
/opt/xchem-fragalysis-2/maxwin/BulkDock/SCRATCH/511013/C35542-P107

>  <fragmenstein_runtime>  (89) 
14.789779424667358

>  <fragmenstein_outcome>  (89) 
too moved

>  <fragmenstein_mode>  (89) 
expansion

>  <fragmenstein_error>  (89) 


$$$$
C35542-P76
     RDKit          3D

 43 46  0  0  0  0  0  0  0  0999 V2000
    0.6973  -15.5103   16.4786 O   0  0  0  0  0  0  0  0  0  0  0  0
   -0.0294  -14.7459   17.0500 C   0  0  0  0  0  0  0  0  0  0  0  0
   -0.0399  -13.2785   17.0753 N   0  0  0  0  0  0  0  0  0  0  0  0
    0.8031  -12.2512   16.3047 C   0  0  0  0  0  0  0  0  0  0  0  0
    2.3981  -11.9074   16.5412 C   0  0  0  0  0  0  0  0  0  0  0  0
    2.9419  -10.5639   16.0917 N   0  0  0  0  0  0  0  0  0  0  0  0
    4.3753  -10.3315   16.4171 C   0  0  0  0  0  0  0  0  0  0  0  0
    4.6494   -8.8858   16.7922 C   0  0  0  0  0  0  0  0  0  0  0  0
    4.7068   -7.7703   15.8882 C   0  0  0  0  0  0  0  0  0  0  0  0
    4.9104   -6.5718   16.5336 C   0  0  0  0  0  0  0  0  0  0  0  0
    5.1795   -6.7753   18.2050 S   0  0  0  0  0  0  0  0  0  0  0  0
    4.9057   -8.4569   18.0872 C   0  0  0  0  0  0  0  0  0  0  0  0
    2.4885  -10.1539   14.7472 C   0  0  0  0  0  0  0  0  0  0  0  0
    2.4299  -11.1411   13.6043 C   0  0  0  0  0  0  0  0  0  0  0  0
    3.3888   -9.9992   13.5461 C   0  0  0  0  0  0  0  0  0  0  0  0
   -1.1742  -15.4527   17.9159 C   0  0  0  0  0  0  0  0  0  0  0  0
   -1.1087  -16.7668   18.3983 C   0  0  0  0  0  0  0  0  0  0  0  0
   -2.2627  -17.0343   19.1046 N   0  0  0  0  0  0  0  0  0  0  0  0
   -2.6817  -18.2045   19.7499 C   0  0  0  0  0  0  0  0  0  0  0  0
   -3.8906  -18.2546   20.3296 C   0  0  0  0  0  0  0  0  0  0  0  0
   -4.6766  -16.9963   20.2098 C   0  0  0  0  0  0  0  0  0  0  0  0
   -4.3029  -15.8952   19.6234 N   0  0  0  0  0  0  0  0  0  0  0  0
   -3.0493  -15.8868   19.0473 C   0  0  0  0  0  0  0  0  0  0  0  0
   -2.4013  -14.9203   18.3825 N   0  0  0  0  0  0  0  0  0  0  0  0
   -0.8509  -12.9614   17.5991 H   0  0  0  0  0  0  0  0  0  0  0  0
    0.6852  -12.5333   15.2532 H   0  0  0  0  0  0  0  0  0  0  0  0
    0.2601  -11.3114   16.4589 H   0  0  0  0  0  0  0  0  0  0  0  0
    2.9715  -12.7113   16.0631 H   0  0  0  0  0  0  0  0  0  0  0  0
    2.5902  -11.9854   17.6062 H   0  0  0  0  0  0  0  0  0  0  0  0
    5.0424  -10.6602   15.6142 H   0  0  0  0  0  0  0  0  0  0  0  0
    4.6437  -10.9471   17.2865 H   0  0  0  0  0  0  0  0  0  0  0  0
    4.5390   -7.8392   14.8211 H   0  0  0  0  0  0  0  0  0  0  0  0
    4.9016   -5.5861   16.0963 H   0  0  0  0  0  0  0  0  0  0  0  0
    4.9212   -9.0622   18.9841 H   0  0  0  0  0  0  0  0  0  0  0  0
    1.6631   -9.4436   14.7988 H   0  0  0  0  0  0  0  0  0  0  0  0
    2.8542  -12.1311   13.7214 H   0  0  0  0  0  0  0  0  0  0  0  0
    1.5617  -11.1103   12.9558 H   0  0  0  0  0  0  0  0  0  0  0  0
    3.1696   -9.1913   12.8560 H   0  0  0  0  0  0  0  0  0  0  0  0
    4.4420  -10.2424   13.5948 H   0  0  0  0  0  0  0  0  0  0  0  0
   -0.3352  -17.5125   18.2817 H   0  0  0  0  0  0  0  0  0  0  0  0
   -1.9924  -19.0394   19.7417 H   0  0  0  0  0  0  0  0  0  0  0  0
   -4.3007  -19.1133   20.8388 H   0  0  0  0  0  0  0  0  0  0  0  0
   -5.6757  -17.0279   20.6757 H   0  0  0  0  0  0  0  0  0  0  0  0
  1  2  2  0
  2  3  1  0
  3  4  1  0
  4  5  1  0
  5  6  1  0
  6  7  1  0
  7  8  1  0
  8  9  1  0
  9 10  2  0
 10 11  1  0
 11 12  1  0
  6 13  1  0
 13 14  1  0
 14 15  1  0
  2 16  1  0
 16 17  2  0
 17 18  1  0
 18 19  1  0
 19 20  2  0
 20 21  1  0
 21 22  2  0
 22 23  1  0
 23 24  2  0
 12  8  2  0
 15 13  1  0
 24 16  1  0
 23 18  1  0
  3 25  1  0
  4 26  1  0
  4 27  1  0
  5 28  1  0
  5 29  1  0
  7 30  1  0
  7 31  1  0
  9 32  1  0
 10 33  1  0
 12 34  1  0
 13 35  1  0
 14 36  1  0
 14 37  1  0
 15 38  1  0
 15 39  1  0
 17 40  1  0
 19 41  1  0
 20 42  1  0
 21 43  1  0
M  END
>  <Energy>  (90) 
89.605887489582486

>  <compound_id>  (90) 
35542

>  <target_id>  (90) 
1

>  <reference_id>  (90) 
76

>  <inspiration_ids>  (90) 
[107, 76]

>  <energy_score>  (90) 
-17.576651541519936

>  <distance_score>  (90) 
15.514110031235424

>  <path>  (90) 
/opt/xchem-fragalysis-2/maxwin/BulkDock/SCRATCH/511013/C35542-P76/C35542-P76.minimised.mol

>  <scratch_subdir>  (90) 
/opt/xchem-fragalysis-2/maxwin/BulkDock/SCRATCH/511013/C35542-P76

>  <fragmenstein_runtime>  (90) 
13.268211603164673

>  <fragmenstein_outcome>  (90) 
too moved

>  <fragmenstein_mode>  (90) 
expansion

>  <fragmenstein_error>  (90) 


$$$$
C35543-P107
     RDKit          3D

 46 49  0  0  0  0  0  0  0  0999 V2000
   -3.8277  -16.4385   21.8386 C   0  0  0  0  0  0  0  0  0  0  0  0
   -2.7631  -15.2028   23.1341 C   0  0  0  0  0  0  0  0  0  0  0  0
   -2.5437  -13.8872   21.5206 C   0  0  0  0  0  0  0  0  0  0  0  0
   -1.1662  -12.1779   21.6288 N   0  0  0  0  0  0  0  0  0  0  0  0
   -0.8228  -10.5533   20.4965 C   0  0  0  0  0  0  0  0  0  0  0  0
   -1.6220  -10.4201   19.6512 O   0  0  0  0  0  0  0  0  0  0  0  0
    1.0246   -9.5565   20.8468 N   0  0  0  0  0  0  0  0  0  0  0  0
    2.3896   -8.0543   19.7795 C   0  0  0  0  0  0  0  0  0  0  0  0
    4.6056   -7.4204   19.5329 C   0  0  0  0  0  0  0  0  0  0  0  0
    5.2421   -5.9718   19.6180 C   0  0  0  0  0  0  0  0  0  0  0  0
    6.7368   -5.4913   19.5449 C   0  0  0  0  0  0  0  0  0  0  0  0
    8.9892   -6.2194   19.1735 S   0  0  0  0  0  0  0  0  0  0  0  0
    6.6396   -7.3250   19.3103 C   0  0  0  0  0  0  0  0  0  0  0  0
    1.4152   -8.4064   20.0472 C   0  0  0  0  0  0  0  0  0  0  0  0
   -0.0422   -7.4816   19.8584 C   0  0  0  0  0  0  0  0  0  0  0  0
    0.4481   -7.9748   18.5983 C   0  0  0  0  0  0  0  0  0  0  0  0
   -3.8855  -14.5051   23.3687 C   0  0  0  0  0  0  0  0  0  0  0  0
   -5.5642  -13.7619   23.5131 C   0  0  0  0  0  0  0  0  0  0  0  0
   -7.0220  -14.8132   24.0668 N   0  0  0  0  0  0  0  0  0  0  0  0
   -8.2786  -15.4635   25.2088 C   0  0  0  0  0  0  0  0  0  0  0  0
   -8.6473  -15.3078   26.5476 C   0  0  0  0  0  0  0  0  0  0  0  0
   -7.9577  -14.1297   27.0471 C   0  0  0  0  0  0  0  0  0  0  0  0
   -6.9504  -13.7917   26.2870 N   0  0  0  0  0  0  0  0  0  0  0  0
   -6.7345  -14.9124   25.2410 C   0  0  0  0  0  0  0  0  0  0  0  0
   -5.3032  -15.4443   24.1028 N   0  0  0  0  0  0  0  0  0  0  0  0
   -3.3129  -16.6056   20.8364 H   0  0  0  0  0  0  0  0  0  0  0  0
   -4.7121  -17.0583   21.9811 H   0  0  0  0  0  0  0  0  0  0  0  0
   -4.5816  -15.8969   21.4636 H   0  0  0  0  0  0  0  0  0  0  0  0
   -2.5806  -15.5300   24.2537 H   0  0  0  0  0  0  0  0  0  0  0  0
   -1.5932  -15.1193   23.1976 H   0  0  0  0  0  0  0  0  0  0  0  0
   -2.0835  -14.6593   20.8666 H   0  0  0  0  0  0  0  0  0  0  0  0
   -0.4756  -12.1814   22.4181 H   0  0  0  0  0  0  0  0  0  0  0  0
    2.6206   -8.4950   18.6818 H   0  0  0  0  0  0  0  0  0  0  0  0
    2.2633   -6.8386   19.9118 H   0  0  0  0  0  0  0  0  0  0  0  0
    4.5513   -5.1818   19.9081 H   0  0  0  0  0  0  0  0  0  0  0  0
    6.9162   -4.6503   20.1850 H   0  0  0  0  0  0  0  0  0  0  0  0
    7.0740   -8.3215   19.3408 H   0  0  0  0  0  0  0  0  0  0  0  0
    1.3795   -7.8097   21.1775 H   0  0  0  0  0  0  0  0  0  0  0  0
   -0.9592   -7.9073   20.2560 H   0  0  0  0  0  0  0  0  0  0  0  0
    0.0115   -6.4111   20.0414 H   0  0  0  0  0  0  0  0  0  0  0  0
    0.8604   -7.2458   17.9023 H   0  0  0  0  0  0  0  0  0  0  0  0
   -0.1507   -8.7101   18.0746 H   0  0  0  0  0  0  0  0  0  0  0  0
   -5.9953  -12.8368   23.1342 H   0  0  0  0  0  0  0  0  0  0  0  0
   -8.9429  -16.1828   24.7881 H   0  0  0  0  0  0  0  0  0  0  0  0
   -9.4469  -15.8063   27.0696 H   0  0  0  0  0  0  0  0  0  0  0  0
   -8.3241  -13.5864   27.9275 H   0  0  0  0  0  0  0  0  0  0  0  0
  1  2  1  0
  2  3  1  0
  3  4  1  0
  4  5  1  0
  5  6  2  0
  5  7  1  0
  7  8  1  0
  8  9  1  0
  9 10  1  0
 10 11  2  0
 11 12  1  0
 12 13  1  0
  7 14  1  0
 14 15  1  0
 15 16  1  0
  3 17  1  0
 17 18  2  0
 18 19  1  0
 19 20  1  0
 20 21  2  0
 21 22  1  0
 22 23  2  0
 23 24  1  0
 24 25  2  0
 13  9  2  0
 16 14  1  0
 25 17  1  0
 24 19  1  0
  1 26  1  0
  1 27  1  0
  1 28  1  0
  2 29  1  0
  2 30  1  0
  3 31  1  0
  4 32  1  0
  8 33  1  0
  8 34  1  0
 10 35  1  0
 11 36  1  0
 13 37  1  0
 14 38  1  0
 15 39  1  0
 15 40  1  0
 16 41  1  0
 16 42  1  0
 18 43  1  0
 20 44  1  0
 21 45  1  0
 22 46  1  0
M  END
>  <Energy>  (91) 
3776.1173915263748

>  <compound_id>  (91) 
35543

>  <target_id>  (91) 
1

>  <reference_id>  (91) 
107

>  <inspiration_ids>  (91) 
[107, 76]

>  <energy_score>  (91) 
3726.9490526476607

>  <distance_score>  (91) 
11.123034826273516

>  <path>  (91) 
/opt/xchem-fragalysis-2/maxwin/BulkDock/SCRATCH/511013/C35543-P107/C35543-P107.minimised.mol

>  <scratch_subdir>  (91) 
/opt/xchem-fragalysis-2/maxwin/BulkDock/SCRATCH/511013/C35543-P107

>  <fragmenstein_runtime>  (91) 
23.177433967590332

>  <fragmenstein_outcome>  (91) 
too moved

>  <fragmenstein_mode>  (91) 
expansion

>  <fragmenstein_error>  (91) 


$$$$
C35543-P76
     RDKit          3D

 46 49  0  0  0  0  0  0  0  0999 V2000
   -7.9880  -18.7463   15.7869 C   0  0  0  0  0  0  0  0  0  0  0  0
   -7.1162  -17.5820   16.2530 C   0  0  0  0  0  0  0  0  0  0  0  0
   -5.6726  -18.0141   16.6173 C   0  0  0  0  0  0  0  0  0  0  0  0
   -4.6399  -17.0771   16.0415 N   0  0  0  0  0  0  0  0  0  0  0  0
   -4.7007  -15.5892   15.7828 C   0  0  0  0  0  0  0  0  0  0  0  0
   -5.5058  -14.8358   16.0369 O   0  0  0  0  0  0  0  0  0  0  0  0
   -3.2177  -15.4701   14.8888 N   0  0  0  0  0  0  0  0  0  0  0  0
   -2.1469  -14.0567   14.0486 C   0  0  0  0  0  0  0  0  0  0  0  0
   -1.0452  -12.7580   14.6304 C   0  0  0  0  0  0  0  0  0  0  0  0
    0.3966  -12.8127   14.3935 C   0  0  0  0  0  0  0  0  0  0  0  0
    1.0310  -11.5942   14.5299 C   0  0  0  0  0  0  0  0  0  0  0  0
   -0.0690  -10.3601   14.9647 S   0  0  0  0  0  0  0  0  0  0  0  0
   -1.3983  -11.4645   14.9893 C   0  0  0  0  0  0  0  0  0  0  0  0
   -2.8712  -14.1647   14.1324 C   0  0  0  0  0  0  0  0  0  0  0  0
   -3.8529  -14.5315   12.6489 C   0  0  0  0  0  0  0  0  0  0  0  0
   -4.1632  -13.2901   13.3269 C   0  0  0  0  0  0  0  0  0  0  0  0
   -5.6068  -18.8419   17.9637 C   0  0  0  0  0  0  0  0  0  0  0  0
   -5.9013  -18.5641   19.2951 C   0  0  0  0  0  0  0  0  0  0  0  0
   -6.2157  -19.7713   19.9133 N   0  0  0  0  0  0  0  0  0  0  0  0
   -6.7651  -20.0503   21.1604 C   0  0  0  0  0  0  0  0  0  0  0  0
   -7.0414  -21.3180   21.5023 C   0  0  0  0  0  0  0  0  0  0  0  0
   -6.7006  -22.3271   20.4763 C   0  0  0  0  0  0  0  0  0  0  0  0
   -6.1948  -22.0920   19.3045 N   0  0  0  0  0  0  0  0  0  0  0  0
   -5.9667  -20.7761   18.9948 C   0  0  0  0  0  0  0  0  0  0  0  0
   -5.5821  -20.2429   17.8487 N   0  0  0  0  0  0  0  0  0  0  0  0
   -9.0036  -18.3943   15.5791 H   0  0  0  0  0  0  0  0  0  0  0  0
   -7.5906  -19.1849   14.8657 H   0  0  0  0  0  0  0  0  0  0  0  0
   -8.0522  -19.5365   16.5391 H   0  0  0  0  0  0  0  0  0  0  0  0
   -7.1048  -16.8520   15.4357 H   0  0  0  0  0  0  0  0  0  0  0  0
   -7.6053  -17.0956   17.0997 H   0  0  0  0  0  0  0  0  0  0  0  0
   -5.4795  -18.8371   15.9078 H   0  0  0  0  0  0  0  0  0  0  0  0
   -3.7307  -17.4359   15.7546 H   0  0  0  0  0  0  0  0  0  0  0  0
   -1.1969  -14.7412   14.5037 H   0  0  0  0  0  0  0  0  0  0  0  0
   -1.5809  -14.3753   12.9453 H   0  0  0  0  0  0  0  0  0  0  0  0
    0.9153  -13.7066   14.0689 H   0  0  0  0  0  0  0  0  0  0  0  0
    2.0807  -11.3697   14.3967 H   0  0  0  0  0  0  0  0  0  0  0  0
   -2.3904  -11.0783   15.1813 H   0  0  0  0  0  0  0  0  0  0  0  0
   -3.3540  -13.5222   15.1735 H   0  0  0  0  0  0  0  0  0  0  0  0
   -3.3517  -14.4876   11.6863 H   0  0  0  0  0  0  0  0  0  0  0  0
   -4.5683  -15.3471   12.7275 H   0  0  0  0  0  0  0  0  0  0  0  0
   -3.8877  -12.3511   12.8520 H   0  0  0  0  0  0  0  0  0  0  0  0
   -5.1115  -13.2254   13.8589 H   0  0  0  0  0  0  0  0  0  0  0  0
   -6.0840  -17.6494   19.8289 H   0  0  0  0  0  0  0  0  0  0  0  0
   -6.9545  -19.2039   21.8078 H   0  0  0  0  0  0  0  0  0  0  0  0
   -7.4825  -21.6382   22.4268 H   0  0  0  0  0  0  0  0  0  0  0  0
   -6.9044  -23.3721   20.7635 H   0  0  0  0  0  0  0  0  0  0  0  0
  1  2  1  0
  2  3  1  0
  3  4  1  0
  4  5  1  0
  5  6  2  0
  5  7  1  0
  7  8  1  0
  8  9  1  0
  9 10  1  0
 10 11  2  0
 11 12  1  0
 12 13  1  0
  7 14  1  0
 14 15  1  0
 15 16  1  0
  3 17  1  0
 17 18  2  0
 18 19  1  0
 19 20  1  0
 20 21  2  0
 21 22  1  0
 22 23  2  0
 23 24  1  0
 24 25  2  0
 13  9  2  0
 16 14  1  0
 25 17  1  0
 24 19  1  0
  1 26  1  0
  1 27  1  0
  1 28  1  0
  2 29  1  0
  2 30  1  0
  3 31  1  0
  4 32  1  0
  8 33  1  0
  8 34  1  0
 10 35  1  0
 11 36  1  0
 13 37  1  0
 14 38  1  0
 15 39  1  0
 15 40  1  0
 16 41  1  0
 16 42  1  0
 18 43  1  0
 20 44  1  0
 21 45  1  0
 22 46  1  0
M  END
>  <Energy>  (92) 
728.4650545051685

>  <compound_id>  (92) 
35543

>  <target_id>  (92) 
1

>  <reference_id>  (92) 
76

>  <inspiration_ids>  (92) 
[107, 76]

>  <energy_score>  (92) 
679.2967156264998

>  <distance_score>  (92) 
14.598472578440907

>  <path>  (92) 
/opt/xchem-fragalysis-2/maxwin/BulkDock/SCRATCH/511013/C35543-P76/C35543-P76.minimised.mol

>  <scratch_subdir>  (92) 
/opt/xchem-fragalysis-2/maxwin/BulkDock/SCRATCH/511013/C35543-P76

>  <fragmenstein_runtime>  (92) 
29.666984796524048

>  <fragmenstein_outcome>  (92) 
too moved

>  <fragmenstein_mode>  (92) 
expansion

>  <fragmenstein_error>  (92) 


$$$$
C35544-P107
     RDKit          3D

 43 46  0  0  0  0  0  0  0  0999 V2000
   -1.2302   -6.1450   26.2690 O   0  0  0  0  0  0  0  0  0  0  0  0
   -1.2950   -6.8655   25.3061 C   0  0  0  0  0  0  0  0  0  0  0  0
   -0.5152   -6.8611   24.0475 N   0  0  0  0  0  0  0  0  0  0  0  0
    0.5536   -5.8759   23.5241 C   0  0  0  0  0  0  0  0  0  0  0  0
    1.8864   -6.3392   22.6819 C   0  0  0  0  0  0  0  0  0  0  0  0
    2.8956   -5.2902   22.1633 N   0  0  0  0  0  0  0  0  0  0  0  0
    4.0423   -5.9759   21.4595 C   0  0  0  0  0  0  0  0  0  0  0  0
    5.4045   -5.2918   21.5572 C   0  0  0  0  0  0  0  0  0  0  0  0
    6.5942   -5.8238   20.9224 C   0  0  0  0  0  0  0  0  0  0  0  0
    7.7436   -5.1395   21.2565 C   0  0  0  0  0  0  0  0  0  0  0  0
    7.4092   -3.7848   22.2338 S   0  0  0  0  0  0  0  0  0  0  0  0
    5.7464   -4.1796   22.3048 C   0  0  0  0  0  0  0  0  0  0  0  0
    2.1905   -4.3726   21.2298 C   0  0  0  0  0  0  0  0  0  0  0  0
    2.7269   -3.0059   20.9041 C   0  0  0  0  0  0  0  0  0  0  0  0
    1.5246   -3.1413   21.7864 C   0  0  0  0  0  0  0  0  0  0  0  0
   -2.4375   -7.9723   25.5060 C   0  0  0  0  0  0  0  0  0  0  0  0
   -3.3328   -8.6266   24.4775 C   0  0  0  0  0  0  0  0  0  0  0  0
   -4.2209   -9.5700   24.6543 N   0  0  0  0  0  0  0  0  0  0  0  0
   -4.4312  -10.0210   25.9282 C   0  0  0  0  0  0  0  0  0  0  0  0
   -5.2676  -10.9353   26.3904 N   0  0  0  0  0  0  0  0  0  0  0  0
   -5.0569  -11.0100   27.7426 C   0  0  0  0  0  0  0  0  0  0  0  0
   -4.0864  -10.1126   28.1231 C   0  0  0  0  0  0  0  0  0  0  0  0
   -3.6978   -9.4662   26.9673 N   0  0  0  0  0  0  0  0  0  0  0  0
   -2.7389   -8.4547   26.7498 C   0  0  0  0  0  0  0  0  0  0  0  0
   -0.8931   -7.5602   23.4205 H   0  0  0  0  0  0  0  0  0  0  0  0
    0.8882   -5.3082   24.3993 H   0  0  0  0  0  0  0  0  0  0  0  0
   -0.0186   -5.1930   22.8882 H   0  0  0  0  0  0  0  0  0  0  0  0
    1.5380   -6.9463   21.8363 H   0  0  0  0  0  0  0  0  0  0  0  0
    2.4336   -7.0049   23.3572 H   0  0  0  0  0  0  0  0  0  0  0  0
    4.1855   -6.9660   21.9142 H   0  0  0  0  0  0  0  0  0  0  0  0
    3.7937   -6.1532   20.4050 H   0  0  0  0  0  0  0  0  0  0  0  0
    6.5939   -6.7193   20.3124 H   0  0  0  0  0  0  0  0  0  0  0  0
    8.7682   -5.3613   20.9868 H   0  0  0  0  0  0  0  0  0  0  0  0
    5.0893   -3.5839   22.9244 H   0  0  0  0  0  0  0  0  0  0  0  0
    1.6698   -4.8730   20.4124 H   0  0  0  0  0  0  0  0  0  0  0  0
    2.5777   -2.6338   19.8967 H   0  0  0  0  0  0  0  0  0  0  0  0
    3.6368   -2.6511   21.3657 H   0  0  0  0  0  0  0  0  0  0  0  0
    1.6484   -2.9147   22.8392 H   0  0  0  0  0  0  0  0  0  0  0  0
    0.5611   -2.8575   21.3801 H   0  0  0  0  0  0  0  0  0  0  0  0
   -3.1924   -8.2506   23.4498 H   0  0  0  0  0  0  0  0  0  0  0  0
   -5.6157  -11.6984   28.3633 H   0  0  0  0  0  0  0  0  0  0  0  0
   -3.6550   -9.8738   29.0839 H   0  0  0  0  0  0  0  0  0  0  0  0
   -2.2251   -8.0969   27.6357 H   0  0  0  0  0  0  0  0  0  0  0  0
  1  2  2  0
  2  3  1  0
  3  4  1  0
  4  5  1  0
  5  6  1  0
  6  7  1  0
  7  8  1  0
  8  9  1  0
  9 10  2  0
 10 11  1  0
 11 12  1  0
  6 13  1  0
 13 14  1  0
 14 15  1  0
  2 16  1  0
 16 17  1  0
 17 18  2  0
 18 19  1  0
 19 20  2  0
 20 21  1  0
 21 22  2  0
 22 23  1  0
 23 24  1  0
 12  8  2  0
 15 13  1  0
 24 16  2  0
 23 19  1  0
  3 25  1  0
  4 26  1  0
  4 27  1  0
  5 28  1  0
  5 29  1  0
  7 30  1  0
  7 31  1  0
  9 32  1  0
 10 33  1  0
 12 34  1  0
 13 35  1  0
 14 36  1  0
 14 37  1  0
 15 38  1  0
 15 39  1  0
 17 40  1  0
 21 41  1  0
 22 42  1  0
 24 43  1  0
M  END
>  <Energy>  (93) 
64.413750526116985

>  <compound_id>  (93) 
35544

>  <target_id>  (93) 
1

>  <reference_id>  (93) 
107

>  <inspiration_ids>  (93) 
[107, 76]

>  <energy_score>  (93) 
-17.977364170984913

>  <distance_score>  (93) 
15.6190362491738

>  <path>  (93) 
/opt/xchem-fragalysis-2/maxwin/BulkDock/SCRATCH/511013/C35544-P107/C35544-P107.minimised.mol

>  <scratch_subdir>  (93) 
/opt/xchem-fragalysis-2/maxwin/BulkDock/SCRATCH/511013/C35544-P107

>  <fragmenstein_runtime>  (93) 
24.70578122138977

>  <fragmenstein_outcome>  (93) 
too moved

>  <fragmenstein_mode>  (93) 
expansion

>  <fragmenstein_error>  (93) 


$$$$
C35544-P76
     RDKit          3D

 43 46  0  0  0  0  0  0  0  0999 V2000
    2.8261  -17.2364   26.4915 O   0  0  0  0  0  0  0  0  0  0  0  0
    2.9759  -17.7594   25.3653 C   0  0  0  0  0  0  0  0  0  0  0  0
    3.3974  -16.9923   23.8277 N   0  0  0  0  0  0  0  0  0  0  0  0
    3.6249  -15.0601   23.3335 C   0  0  0  0  0  0  0  0  0  0  0  0
    3.5076  -13.6789   21.6683 C   0  0  0  0  0  0  0  0  0  0  0  0
    5.0498  -13.0545   20.5993 N   0  0  0  0  0  0  0  0  0  0  0  0
    5.8990  -11.7080   20.7005 C   0  0  0  0  0  0  0  0  0  0  0  0
    7.4311  -11.5746   20.7098 C   0  0  0  0  0  0  0  0  0  0  0  0
    8.0335  -10.3117   21.1195 C   0  0  0  0  0  0  0  0  0  0  0  0
    9.3915  -10.2514   20.9215 C   0  0  0  0  0  0  0  0  0  0  0  0
    9.9796  -11.6814   20.2090 S   0  0  0  0  0  0  0  0  0  0  0  0
    8.4178  -12.3966   20.2040 C   0  0  0  0  0  0  0  0  0  0  0  0
    4.8860  -13.3338   19.0303 C   0  0  0  0  0  0  0  0  0  0  0  0
    5.8498  -14.2680   18.3218 C   0  0  0  0  0  0  0  0  0  0  0  0
    5.7908  -12.8323   17.9256 C   0  0  0  0  0  0  0  0  0  0  0  0
    2.5728  -19.3712   25.4371 C   0  0  0  0  0  0  0  0  0  0  0  0
    2.0008  -20.3400   24.4220 C   0  0  0  0  0  0  0  0  0  0  0  0
    0.9197  -21.0823   24.5044 N   0  0  0  0  0  0  0  0  0  0  0  0
    0.2155  -21.0324   25.6714 C   0  0  0  0  0  0  0  0  0  0  0  0
   -0.9882  -21.4891   25.9781 N   0  0  0  0  0  0  0  0  0  0  0  0
   -1.1776  -21.2098   27.3090 C   0  0  0  0  0  0  0  0  0  0  0  0
   -0.0862  -20.5455   27.8180 C   0  0  0  0  0  0  0  0  0  0  0  0
    0.7857  -20.3984   26.7586 N   0  0  0  0  0  0  0  0  0  0  0  0
    1.9503  -19.6230   26.6415 C   0  0  0  0  0  0  0  0  0  0  0  0
    3.4962  -17.6685   23.1509 H   0  0  0  0  0  0  0  0  0  0  0  0
    4.2480  -14.7674   24.1852 H   0  0  0  0  0  0  0  0  0  0  0  0
    2.6610  -14.6882   23.5843 H   0  0  0  0  0  0  0  0  0  0  0  0
    3.8664  -12.6577   21.7904 H   0  0  0  0  0  0  0  0  0  0  0  0
    3.1758  -13.0100   22.5720 H   0  0  0  0  0  0  0  0  0  0  0  0
    5.5392  -11.0448   21.4858 H   0  0  0  0  0  0  0  0  0  0  0  0
    5.7870  -11.1529   19.7669 H   0  0  0  0  0  0  0  0  0  0  0  0
    7.4676   -9.4836   21.5310 H   0  0  0  0  0  0  0  0  0  0  0  0
   10.0565   -9.4360   21.1639 H   0  0  0  0  0  0  0  0  0  0  0  0
    8.3083  -13.3832   19.7812 H   0  0  0  0  0  0  0  0  0  0  0  0
    3.8654  -13.4910   18.7133 H   0  0  0  0  0  0  0  0  0  0  0  0
    5.4184  -15.0054   17.6539 H   0  0  0  0  0  0  0  0  0  0  0  0
    6.7301  -14.6241   18.8317 H   0  0  0  0  0  0  0  0  0  0  0  0
    6.6747  -12.2415   18.1074 H   0  0  0  0  0  0  0  0  0  0  0  0
    5.3272  -12.5935   16.9734 H   0  0  0  0  0  0  0  0  0  0  0  0
    2.6028  -20.4330   23.5002 H   0  0  0  0  0  0  0  0  0  0  0  0
   -2.0862  -21.4972   27.8223 H   0  0  0  0  0  0  0  0  0  0  0  0
    0.1301  -20.1437   28.7971 H   0  0  0  0  0  0  0  0  0  0  0  0
    2.1423  -19.0342   27.5328 H   0  0  0  0  0  0  0  0  0  0  0  0
  1  2  2  0
  2  3  1  0
  3  4  1  0
  4  5  1  0
  5  6  1  0
  6  7  1  0
  7  8  1  0
  8  9  1  0
  9 10  2  0
 10 11  1  0
 11 12  1  0
  6 13  1  0
 13 14  1  0
 14 15  1  0
  2 16  1  0
 16 17  1  0
 17 18  2  0
 18 19  1  0
 19 20  2  0
 20 21  1  0
 21 22  2  0
 22 23  1  0
 23 24  1  0
 12  8  2  0
 15 13  1  0
 24 16  2  0
 23 19  1  0
  3 25  1  0
  4 26  1  0
  4 27  1  0
  5 28  1  0
  5 29  1  0
  7 30  1  0
  7 31  1  0
  9 32  1  0
 10 33  1  0
 12 34  1  0
 13 35  1  0
 14 36  1  0
 14 37  1  0
 15 38  1  0
 15 39  1  0
 17 40  1  0
 21 41  1  0
 22 42  1  0
 24 43  1  0
M  END
>  <Energy>  (94) 
531.40730095084746

>  <compound_id>  (94) 
35544

>  <target_id>  (94) 
1

>  <reference_id>  (94) 
76

>  <inspiration_ids>  (94) 
[107, 76]

>  <energy_score>  (94) 
449.0161862537432

>  <distance_score>  (94) 
15.503857199430877

>  <path>  (94) 
/opt/xchem-fragalysis-2/maxwin/BulkDock/SCRATCH/511013/C35544-P76/C35544-P76.minimised.mol

>  <scratch_subdir>  (94) 
/opt/xchem-fragalysis-2/maxwin/BulkDock/SCRATCH/511013/C35544-P76

>  <fragmenstein_runtime>  (94) 
12.700822830200195

>  <fragmenstein_outcome>  (94) 
too moved

>  <fragmenstein_mode>  (94) 
expansion

>  <fragmenstein_error>  (94) 


$$$$
C35545-P107
     RDKit          3D

 43 46  0  0  0  0  0  0  0  0999 V2000
   -0.0916  -11.0075   22.3872 O   0  0  0  0  0  0  0  0  0  0  0  0
    0.6418  -11.8999   22.8252 C   0  0  0  0  0  0  0  0  0  0  0  0
    2.4909  -11.7725   22.8820 N   0  0  0  0  0  0  0  0  0  0  0  0
    3.7031  -10.3442   22.2980 C   0  0  0  0  0  0  0  0  0  0  0  0
    5.3211  -10.6397   21.8087 C   0  0  0  0  0  0  0  0  0  0  0  0
    6.2160   -9.4157   21.9419 N   0  0  0  0  0  0  0  0  0  0  0  0
    7.0038   -9.0470   20.7559 C   0  0  0  0  0  0  0  0  0  0  0  0
    7.6645   -7.7104   21.0212 C   0  0  0  0  0  0  0  0  0  0  0  0
    9.0415   -7.5234   21.3894 C   0  0  0  0  0  0  0  0  0  0  0  0
    9.3820   -6.1974   21.5517 C   0  0  0  0  0  0  0  0  0  0  0  0
    8.0448   -5.1662   21.3206 S   0  0  0  0  0  0  0  0  0  0  0  0
    7.0285   -6.4826   20.9300 C   0  0  0  0  0  0  0  0  0  0  0  0
    3.2819   -9.0351   21.3331 C   0  0  0  0  0  0  0  0  0  0  0  0
    3.0827   -7.6352   21.8949 C   0  0  0  0  0  0  0  0  0  0  0  0
    1.9593   -8.3006   21.1623 C   0  0  0  0  0  0  0  0  0  0  0  0
   -0.2019  -13.7433   23.4047 C   0  0  0  0  0  0  0  0  0  0  0  0
   -1.1282  -14.8418   23.1115 C   0  0  0  0  0  0  0  0  0  0  0  0
   -1.7295  -15.7808   24.4443 N   0  0  0  0  0  0  0  0  0  0  0  0
   -2.5697  -17.1667   25.1652 C   0  0  0  0  0  0  0  0  0  0  0  0
   -3.8898  -17.3957   25.1383 C   0  0  0  0  0  0  0  0  0  0  0  0
   -4.3265  -16.3894   24.2201 C   0  0  0  0  0  0  0  0  0  0  0  0
   -3.5844  -15.3396   23.9883 N   0  0  0  0  0  0  0  0  0  0  0  0
   -2.3682  -14.8799   25.0024 C   0  0  0  0  0  0  0  0  0  0  0  0
   -1.1907  -13.9518   24.9397 N   0  0  0  0  0  0  0  0  0  0  0  0
    2.8656  -12.5894   23.3567 H   0  0  0  0  0  0  0  0  0  0  0  0
    3.9988   -9.7756   23.1103 H   0  0  0  0  0  0  0  0  0  0  0  0
    5.3551  -11.0087   20.7804 H   0  0  0  0  0  0  0  0  0  0  0  0
    5.7200  -11.4221   22.4625 H   0  0  0  0  0  0  0  0  0  0  0  0
    5.6292   -8.6172   22.1890 H   0  0  0  0  0  0  0  0  0  0  0  0
    6.3589   -8.9604   19.8738 H   0  0  0  0  0  0  0  0  0  0  0  0
    7.7614   -9.8121   20.5555 H   0  0  0  0  0  0  0  0  0  0  0  0
    9.7490   -8.3331   21.5272 H   0  0  0  0  0  0  0  0  0  0  0  0
   10.3484   -5.7855   21.8132 H   0  0  0  0  0  0  0  0  0  0  0  0
    5.9926   -6.2990   20.6763 H   0  0  0  0  0  0  0  0  0  0  0  0
    3.8617   -9.0714   20.4102 H   0  0  0  0  0  0  0  0  0  0  0  0
    2.9024   -7.4630   22.9451 H   0  0  0  0  0  0  0  0  0  0  0  0
    3.5736   -6.8079   21.3975 H   0  0  0  0  0  0  0  0  0  0  0  0
    1.7114   -7.9620   20.1611 H   0  0  0  0  0  0  0  0  0  0  0  0
    1.0703   -8.5984   21.7008 H   0  0  0  0  0  0  0  0  0  0  0  0
   -0.8633  -15.2502   22.1679 H   0  0  0  0  0  0  0  0  0  0  0  0
   -1.9471  -17.8418   25.7603 H   0  0  0  0  0  0  0  0  0  0  0  0
   -4.4636  -18.1923   25.5717 H   0  0  0  0  0  0  0  0  0  0  0  0
   -5.2195  -16.6131   23.6207 H   0  0  0  0  0  0  0  0  0  0  0  0
  1  2  2  0
  2  3  1  0
  3  4  1  0
  4  5  1  0
  5  6  1  0
  6  7  1  0
  7  8  1  0
  8  9  1  0
  9 10  2  0
 10 11  1  0
 11 12  1  0
  4 13  1  0
 13 14  1  0
 14 15  1  0
  2 16  1  0
 16 17  2  0
 17 18  1  0
 18 19  1  0
 19 20  2  0
 20 21  1  0
 21 22  2  0
 22 23  1  0
 23 24  2  0
 12  8  2  0
 15 13  1  0
 24 16  1  0
 23 18  1  0
  3 25  1  0
  4 26  1  0
  5 27  1  0
  5 28  1  0
  6 29  1  0
  7 30  1  0
  7 31  1  0
  9 32  1  0
 10 33  1  0
 12 34  1  0
 13 35  1  0
 14 36  1  0
 14 37  1  0
 15 38  1  0
 15 39  1  0
 17 40  1  0
 19 41  1  0
 20 42  1  0
 21 43  1  0
M  END
>  <Energy>  (95) 
800.46039725894082

>  <compound_id>  (95) 
35545

>  <target_id>  (95) 
1

>  <reference_id>  (95) 
107

>  <inspiration_ids>  (95) 
[107, 76]

>  <energy_score>  (95) 
680.4688960769334

>  <distance_score>  (95) 
13.865812119353384

>  <path>  (95) 
/opt/xchem-fragalysis-2/maxwin/BulkDock/SCRATCH/511013/C35545-P107/C35545-P107.minimised.mol

>  <scratch_subdir>  (95) 
/opt/xchem-fragalysis-2/maxwin/BulkDock/SCRATCH/511013/C35545-P107

>  <fragmenstein_runtime>  (95) 
24.586775302886963

>  <fragmenstein_outcome>  (95) 
too moved

>  <fragmenstein_mode>  (95) 
expansion

>  <fragmenstein_error>  (95) 


$$$$
C35545-P76
     RDKit          3D

 43 46  0  0  0  0  0  0  0  0999 V2000
    6.7891  -15.3944   25.4530 O   0  0  0  0  0  0  0  0  0  0  0  0
    6.1340  -14.6391   26.1144 C   0  0  0  0  0  0  0  0  0  0  0  0
    6.2415  -13.1820   26.2885 N   0  0  0  0  0  0  0  0  0  0  0  0
    7.2872  -12.1712   25.7631 C   0  0  0  0  0  0  0  0  0  0  0  0
    7.4866  -11.6843   24.1779 C   0  0  0  0  0  0  0  0  0  0  0  0
    8.1897  -10.3441   23.9442 N   0  0  0  0  0  0  0  0  0  0  0  0
    8.5003  -10.0615   22.5198 C   0  0  0  0  0  0  0  0  0  0  0  0
    9.0725   -8.6624   22.3480 C   0  0  0  0  0  0  0  0  0  0  0  0
    8.3972   -7.5656   21.6955 C   0  0  0  0  0  0  0  0  0  0  0  0
    9.1416   -6.4050   21.6731 C   0  0  0  0  0  0  0  0  0  0  0  0
   10.6665   -6.6133   22.4161 S   0  0  0  0  0  0  0  0  0  0  0  0
   10.3364   -8.2599   22.7507 C   0  0  0  0  0  0  0  0  0  0  0  0
    8.6510  -12.3635   26.3985 C   0  0  0  0  0  0  0  0  0  0  0  0
    9.4720  -13.6097   26.1857 C   0  0  0  0  0  0  0  0  0  0  0  0
    8.9317  -13.2952   27.5551 C   0  0  0  0  0  0  0  0  0  0  0  0
    5.0251  -15.3576   27.0357 C   0  0  0  0  0  0  0  0  0  0  0  0
    4.2878  -14.9357   28.1494 C   0  0  0  0  0  0  0  0  0  0  0  0
    3.4063  -15.9684   28.5075 N   0  0  0  0  0  0  0  0  0  0  0  0
    2.3523  -16.0017   29.4317 C   0  0  0  0  0  0  0  0  0  0  0  0
    1.5491  -17.0774   29.5037 C   0  0  0  0  0  0  0  0  0  0  0  0
    1.8900  -18.1753   28.5595 C   0  0  0  0  0  0  0  0  0  0  0  0
    2.8714  -18.1759   27.7076 N   0  0  0  0  0  0  0  0  0  0  0  0
    3.6582  -17.0456   27.6610 C   0  0  0  0  0  0  0  0  0  0  0  0
    4.6218  -16.7107   26.8112 N   0  0  0  0  0  0  0  0  0  0  0  0
    5.4705  -12.8593   26.8567 H   0  0  0  0  0  0  0  0  0  0  0  0
    6.9047  -11.2555   26.2354 H   0  0  0  0  0  0  0  0  0  0  0  0
    8.0567  -12.4718   23.6716 H   0  0  0  0  0  0  0  0  0  0  0  0
    6.4920  -11.6356   23.7221 H   0  0  0  0  0  0  0  0  0  0  0  0
    7.5899   -9.5999   24.2958 H   0  0  0  0  0  0  0  0  0  0  0  0
    9.2280  -10.7934   22.1510 H   0  0  0  0  0  0  0  0  0  0  0  0
    7.5880  -10.1561   21.9192 H   0  0  0  0  0  0  0  0  0  0  0  0
    7.3987   -7.6322   21.2797 H   0  0  0  0  0  0  0  0  0  0  0  0
    8.8727   -5.4431   21.2596 H   0  0  0  0  0  0  0  0  0  0  0  0
   11.0810   -8.8611   23.2563 H   0  0  0  0  0  0  0  0  0  0  0  0
    9.2038  -11.4265   26.3866 H   0  0  0  0  0  0  0  0  0  0  0  0
    9.0443  -14.4424   25.6417 H   0  0  0  0  0  0  0  0  0  0  0  0
   10.5376  -13.4919   26.0206 H   0  0  0  0  0  0  0  0  0  0  0  0
    9.6386  -12.9670   28.3095 H   0  0  0  0  0  0  0  0  0  0  0  0
    8.1551  -13.9403   27.9446 H   0  0  0  0  0  0  0  0  0  0  0  0
    4.2696  -14.0010   28.6867 H   0  0  0  0  0  0  0  0  0  0  0  0
    2.2128  -15.1218   30.0459 H   0  0  0  0  0  0  0  0  0  0  0  0
    0.7090  -17.1797   30.1748 H   0  0  0  0  0  0  0  0  0  0  0  0
    1.2366  -19.0617   28.6172 H   0  0  0  0  0  0  0  0  0  0  0  0
  1  2  2  0
  2  3  1  0
  3  4  1  0
  4  5  1  0
  5  6  1  0
  6  7  1  0
  7  8  1  0
  8  9  1  0
  9 10  2  0
 10 11  1  0
 11 12  1  0
  4 13  1  0
 13 14  1  0
 14 15  1  0
  2 16  1  0
 16 17  2  0
 17 18  1  0
 18 19  1  0
 19 20  2  0
 20 21  1  0
 21 22  2  0
 22 23  1  0
 23 24  2  0
 12  8  2  0
 15 13  1  0
 24 16  1  0
 23 18  1  0
  3 25  1  0
  4 26  1  0
  5 27  1  0
  5 28  1  0
  6 29  1  0
  7 30  1  0
  7 31  1  0
  9 32  1  0
 10 33  1  0
 12 34  1  0
 13 35  1  0
 14 36  1  0
 14 37  1  0
 15 38  1  0
 15 39  1  0
 17 40  1  0
 19 41  1  0
 20 42  1  0
 21 43  1  0
M  END
>  <Energy>  (96) 
112.37154649213055

>  <compound_id>  (96) 
35545

>  <target_id>  (96) 
1

>  <reference_id>  (96) 
76

>  <inspiration_ids>  (96) 
[107, 76]

>  <energy_score>  (96) 
-7.61995468988232

>  <distance_score>  (96) 
15.609206775699441

>  <path>  (96) 
/opt/xchem-fragalysis-2/maxwin/BulkDock/SCRATCH/511013/C35545-P76/C35545-P76.minimised.mol

>  <scratch_subdir>  (96) 
/opt/xchem-fragalysis-2/maxwin/BulkDock/SCRATCH/511013/C35545-P76

>  <fragmenstein_runtime>  (96) 
15.17183256149292

>  <fragmenstein_outcome>  (96) 
too moved

>  <fragmenstein_mode>  (96) 
expansion

>  <fragmenstein_error>  (96) 


$$$$
C35546-P107
     RDKit          3D

 42 44  0  0  0  0  0  0  0  0999 V2000
    7.4922  -10.9786   17.3290 C   0  0  0  0  0  0  0  0  0  0  0  0
    7.5396  -11.2722   15.8367 C   0  0  0  0  0  0  0  0  0  0  0  0
    8.2114  -10.0707   14.9075 C   0  0  0  0  0  0  0  0  0  0  0  0
    9.5580   -9.4282   15.3410 N   0  0  0  0  0  0  0  0  0  0  0  0
    9.5669   -7.6714   15.2588 C   0  0  0  0  0  0  0  0  0  0  0  0
   11.0649   -6.3976   15.7125 C   0  0  0  0  0  0  0  0  0  0  0  0
   11.0686   -4.6016   15.6255 C   0  0  0  0  0  0  0  0  0  0  0  0
   12.0927   -3.9329   16.2353 C   0  0  0  0  0  0  0  0  0  0  0  0
   13.2220   -5.0333   16.8042 S   0  0  0  0  0  0  0  0  0  0  0  0
   12.3418   -6.4473   16.2039 C   0  0  0  0  0  0  0  0  0  0  0  0
    6.0479  -11.7847   15.3504 C   0  0  0  0  0  0  0  0  0  0  0  0
    5.0311  -12.6630   16.1338 N   0  0  0  0  0  0  0  0  0  0  0  0
    4.8572  -14.1318   16.1858 C   0  0  0  0  0  0  0  0  0  0  0  0
    5.5126  -15.0119   15.6976 O   0  0  0  0  0  0  0  0  0  0  0  0
    3.5309  -14.6981   16.9057 C   0  0  0  0  0  0  0  0  0  0  0  0
    3.4007  -15.9937   17.4400 C   0  0  0  0  0  0  0  0  0  0  0  0
    2.0611  -16.2598   17.6577 N   0  0  0  0  0  0  0  0  0  0  0  0
    1.4109  -17.4039   18.1504 C   0  0  0  0  0  0  0  0  0  0  0  0
    0.0742  -17.4298   18.2678 C   0  0  0  0  0  0  0  0  0  0  0  0
   -0.6020  -16.2041   17.7629 C   0  0  0  0  0  0  0  0  0  0  0  0
   -0.0227  -15.1459   17.2680 N   0  0  0  0  0  0  0  0  0  0  0  0
    1.3595  -15.1381   17.2291 C   0  0  0  0  0  0  0  0  0  0  0  0
    2.2139  -14.1691   16.8627 N   0  0  0  0  0  0  0  0  0  0  0  0
    6.6464  -10.3395   17.5932 H   0  0  0  0  0  0  0  0  0  0  0  0
    7.3189  -11.9183   17.8695 H   0  0  0  0  0  0  0  0  0  0  0  0
    8.4248  -10.5818   17.7290 H   0  0  0  0  0  0  0  0  0  0  0  0
    8.2058  -12.1373   15.7120 H   0  0  0  0  0  0  0  0  0  0  0  0
    7.4389   -9.3192   14.7113 H   0  0  0  0  0  0  0  0  0  0  0  0
    8.4115  -10.5390   13.9360 H   0  0  0  0  0  0  0  0  0  0  0  0
    9.5406   -9.6138   16.3315 H   0  0  0  0  0  0  0  0  0  0  0  0
    9.1011   -7.8724   14.3406 H   0  0  0  0  0  0  0  0  0  0  0  0
    8.6394   -7.0966   15.1197 H   0  0  0  0  0  0  0  0  0  0  0  0
   10.2707   -4.0832   15.1047 H   0  0  0  0  0  0  0  0  0  0  0  0
   12.2399   -2.8656   16.3177 H   0  0  0  0  0  0  0  0  0  0  0  0
   12.7221   -7.4009   16.0848 H   0  0  0  0  0  0  0  0  0  0  0  0
    5.4734  -10.8787   15.1230 H   0  0  0  0  0  0  0  0  0  0  0  0
    6.2013  -12.3167   14.4040 H   0  0  0  0  0  0  0  0  0  0  0  0
    4.2402  -12.2178   16.5928 H   0  0  0  0  0  0  0  0  0  0  0  0
    4.1549  -16.7495   17.6028 H   0  0  0  0  0  0  0  0  0  0  0  0
    2.0390  -18.2437   18.4183 H   0  0  0  0  0  0  0  0  0  0  0  0
   -0.5043  -18.2650   18.6331 H   0  0  0  0  0  0  0  0  0  0  0  0
   -1.7035  -16.2246   17.8127 H   0  0  0  0  0  0  0  0  0  0  0  0
  1  2  1  0
  2  3  1  0
  3  4  1  0
  4  5  1  0
  5  6  1  0
  6  7  1  0
  7  8  2  0
  8  9  1  0
  9 10  1  0
  2 11  1  0
 11 12  1  0
 12 13  1  0
 13 14  2  0
 13 15  1  0
 15 16  2  0
 16 17  1  0
 17 18  1  0
 18 19  2  0
 19 20  1  0
 20 21  2  0
 21 22  1  0
 22 23  2  0
 10  6  2  0
 23 15  1  0
 22 17  1  0
  1 24  1  0
  1 25  1  0
  1 26  1  0
  2 27  1  0
  3 28  1  0
  3 29  1  0
  4 30  1  0
  5 31  1  0
  5 32  1  0
  7 33  1  0
  8 34  1  0
 10 35  1  0
 11 36  1  0
 11 37  1  0
 12 38  1  0
 16 39  1  0
 18 40  1  0
 19 41  1  0
 20 42  1  0
M  END
>  <Energy>  (97) 
293.23681431015331

>  <compound_id>  (97) 
35546

>  <target_id>  (97) 
1

>  <reference_id>  (97) 
107

>  <inspiration_ids>  (97) 
[107, 76]

>  <energy_score>  (97) 
195.61671931141353

>  <distance_score>  (97) 
15.383755057848154

>  <path>  (97) 
/opt/xchem-fragalysis-2/maxwin/BulkDock/SCRATCH/511013/C35546-P107/C35546-P107.minimised.mol

>  <scratch_subdir>  (97) 
/opt/xchem-fragalysis-2/maxwin/BulkDock/SCRATCH/511013/C35546-P107

>  <fragmenstein_runtime>  (97) 
23.517842769622803

>  <fragmenstein_outcome>  (97) 
too moved

>  <fragmenstein_mode>  (97) 
expansion

>  <fragmenstein_error>  (97) 


$$$$
C35546-P76
     RDKit          3D

 42 44  0  0  0  0  0  0  0  0999 V2000
    5.5866   -7.1764   23.7585 C   0  0  0  0  0  0  0  0  0  0  0  0
    5.1105   -8.8521   24.4716 C   0  0  0  0  0  0  0  0  0  0  0  0
    6.8394   -9.4198   24.9941 C   0  0  0  0  0  0  0  0  0  0  0  0
    7.9806   -8.3739   25.0825 N   0  0  0  0  0  0  0  0  0  0  0  0
    9.3783   -8.9112   25.0940 C   0  0  0  0  0  0  0  0  0  0  0  0
   10.3906   -7.9526   24.4458 C   0  0  0  0  0  0  0  0  0  0  0  0
   11.4507   -8.3822   23.5534 C   0  0  0  0  0  0  0  0  0  0  0  0
   12.1587   -7.3393   22.9936 C   0  0  0  0  0  0  0  0  0  0  0  0
   11.5949   -5.8276   23.5428 S   0  0  0  0  0  0  0  0  0  0  0  0
   10.4396   -6.5733   24.5677 C   0  0  0  0  0  0  0  0  0  0  0  0
    3.5784   -9.9888   23.3782 C   0  0  0  0  0  0  0  0  0  0  0  0
    2.3240  -11.5120   24.2141 N   0  0  0  0  0  0  0  0  0  0  0  0
    1.3728  -11.6293   25.9523 C   0  0  0  0  0  0  0  0  0  0  0  0
    1.5224  -10.7419   26.8448 O   0  0  0  0  0  0  0  0  0  0  0  0
    0.4270  -12.8414   26.5680 C   0  0  0  0  0  0  0  0  0  0  0  0
    0.6430  -13.4064   27.8605 C   0  0  0  0  0  0  0  0  0  0  0  0
   -0.5808  -13.8492   28.3996 N   0  0  0  0  0  0  0  0  0  0  0  0
   -0.8601  -14.6904   29.4860 C   0  0  0  0  0  0  0  0  0  0  0  0
   -2.1181  -15.1154   29.6991 C   0  0  0  0  0  0  0  0  0  0  0  0
   -3.1331  -14.5922   28.7413 C   0  0  0  0  0  0  0  0  0  0  0  0
   -2.9039  -13.7808   27.7539 N   0  0  0  0  0  0  0  0  0  0  0  0
   -1.5984  -13.3985   27.5693 C   0  0  0  0  0  0  0  0  0  0  0  0
   -1.0550  -12.6617   26.6221 N   0  0  0  0  0  0  0  0  0  0  0  0
    5.1532   -7.2425   22.7981 H   0  0  0  0  0  0  0  0  0  0  0  0
    6.6728   -7.0685   23.6526 H   0  0  0  0  0  0  0  0  0  0  0  0
    5.3624   -6.1811   23.9932 H   0  0  0  0  0  0  0  0  0  0  0  0
    4.9029   -8.4438   25.4821 H   0  0  0  0  0  0  0  0  0  0  0  0
    6.7318   -9.8088   26.0161 H   0  0  0  0  0  0  0  0  0  0  0  0
    7.1189  -10.2780   24.3705 H   0  0  0  0  0  0  0  0  0  0  0  0
    7.8686   -7.9557   26.0064 H   0  0  0  0  0  0  0  0  0  0  0  0
    9.4184   -9.8698   24.5685 H   0  0  0  0  0  0  0  0  0  0  0  0
    9.6825   -9.1006   26.1302 H   0  0  0  0  0  0  0  0  0  0  0  0
   11.6529   -9.4197   23.3130 H   0  0  0  0  0  0  0  0  0  0  0  0
   12.9832   -7.3921   22.2964 H   0  0  0  0  0  0  0  0  0  0  0  0
    9.8151   -5.9464   25.1826 H   0  0  0  0  0  0  0  0  0  0  0  0
    2.8909   -8.9777   23.0539 H   0  0  0  0  0  0  0  0  0  0  0  0
    4.1889  -10.6651   22.6563 H   0  0  0  0  0  0  0  0  0  0  0  0
    2.1419  -12.3372   23.6893 H   0  0  0  0  0  0  0  0  0  0  0  0
    1.5542  -13.5218   28.4262 H   0  0  0  0  0  0  0  0  0  0  0  0
   -0.0196  -15.0018   30.0919 H   0  0  0  0  0  0  0  0  0  0  0  0
   -2.4209  -15.7809   30.4943 H   0  0  0  0  0  0  0  0  0  0  0  0
   -4.1663  -14.9326   28.9221 H   0  0  0  0  0  0  0  0  0  0  0  0
  1  2  1  0
  2  3  1  0
  3  4  1  0
  4  5  1  0
  5  6  1  0
  6  7  1  0
  7  8  2  0
  8  9  1  0
  9 10  1  0
  2 11  1  0
 11 12  1  0
 12 13  1  0
 13 14  2  0
 13 15  1  0
 15 16  2  0
 16 17  1  0
 17 18  1  0
 18 19  2  0
 19 20  1  0
 20 21  2  0
 21 22  1  0
 22 23  2  0
 10  6  2  0
 23 15  1  0
 22 17  1  0
  1 24  1  0
  1 25  1  0
  1 26  1  0
  2 27  1  0
  3 28  1  0
  3 29  1  0
  4 30  1  0
  5 31  1  0
  5 32  1  0
  7 33  1  0
  8 34  1  0
 10 35  1  0
 11 36  1  0
 11 37  1  0
 12 38  1  0
 16 39  1  0
 18 40  1  0
 19 41  1  0
 20 42  1  0
M  END
>  <Energy>  (98) 
568.64453528476088

>  <compound_id>  (98) 
35546

>  <target_id>  (98) 
1

>  <reference_id>  (98) 
76

>  <inspiration_ids>  (98) 
[107, 76]

>  <energy_score>  (98) 
471.0244402860221

>  <distance_score>  (98) 
14.225799878645613

>  <path>  (98) 
/opt/xchem-fragalysis-2/maxwin/BulkDock/SCRATCH/511013/C35546-P76/C35546-P76.minimised.mol

>  <scratch_subdir>  (98) 
/opt/xchem-fragalysis-2/maxwin/BulkDock/SCRATCH/511013/C35546-P76

>  <fragmenstein_runtime>  (98) 
16.852132320404053

>  <fragmenstein_outcome>  (98) 
too moved

>  <fragmenstein_mode>  (98) 
expansion

>  <fragmenstein_error>  (98) 


$$$$
C35548-P107
     RDKit          3D

 30 33  0  0  0  0  0  0  0  0999 V2000
   -2.1864  -19.3620   16.9797 O   0  0  0  0  0  0  0  0  0  0  0  0
   -3.1198  -18.6142   17.0779 C   0  0  0  0  0  0  0  0  0  0  0  0
   -3.4508  -17.4101   16.3358 N   0  0  0  0  0  0  0  0  0  0  0  0
   -2.7346  -16.7085   15.3462 C   0  0  0  0  0  0  0  0  0  0  0  0
   -3.0839  -15.5247   14.8771 N   0  0  0  0  0  0  0  0  0  0  0  0
   -2.0746  -14.9032   14.1121 N   0  0  0  0  0  0  0  0  0  0  0  0
   -0.9424  -15.5938   14.0742 C   0  0  0  0  0  0  0  0  0  0  0  0
    0.4984  -14.9451   13.5422 C   0  0  0  0  0  0  0  0  0  0  0  0
    0.6397  -13.6538   12.9112 C   0  0  0  0  0  0  0  0  0  0  0  0
    1.9544  -13.2894   12.6892 C   0  0  0  0  0  0  0  0  0  0  0  0
    3.0392  -14.5162   13.1740 S   0  0  0  0  0  0  0  0  0  0  0  0
    1.7428  -15.5225   13.7142 C   0  0  0  0  0  0  0  0  0  0  0  0
   -1.2271  -17.2402   14.6432 S   0  0  0  0  0  0  0  0  0  0  0  0
   -4.1360  -18.9937   18.2883 C   0  0  0  0  0  0  0  0  0  0  0  0
   -3.7350  -20.2262   19.0988 C   0  0  0  0  0  0  0  0  0  0  0  0
   -4.5132  -20.5815   20.1349 C   0  0  0  0  0  0  0  0  0  0  0  0
   -5.6351  -19.8278   20.4227 N   0  0  0  0  0  0  0  0  0  0  0  0
   -6.5684  -19.9893   21.4158 C   0  0  0  0  0  0  0  0  0  0  0  0
   -7.4552  -18.9576   21.2385 C   0  0  0  0  0  0  0  0  0  0  0  0
   -7.1036  -18.1961   20.1434 N   0  0  0  0  0  0  0  0  0  0  0  0
   -5.9862  -18.7135   19.6552 C   0  0  0  0  0  0  0  0  0  0  0  0
   -5.2151  -18.2974   18.5658 N   0  0  0  0  0  0  0  0  0  0  0  0
   -4.2770  -16.9845   16.7455 H   0  0  0  0  0  0  0  0  0  0  0  0
   -0.2007  -13.0083   12.6894 H   0  0  0  0  0  0  0  0  0  0  0  0
    2.3238  -12.3676   12.2629 H   0  0  0  0  0  0  0  0  0  0  0  0
    1.9784  -16.4702   14.1759 H   0  0  0  0  0  0  0  0  0  0  0  0
   -2.8428  -20.7703   18.8149 H   0  0  0  0  0  0  0  0  0  0  0  0
   -4.3094  -21.4382   20.7638 H   0  0  0  0  0  0  0  0  0  0  0  0
   -6.5180  -20.7947   22.1309 H   0  0  0  0  0  0  0  0  0  0  0  0
   -8.3350  -18.7227   21.8224 H   0  0  0  0  0  0  0  0  0  0  0  0
  1  2  2  0
  2  3  1  0
  3  4  1  0
  4  5  2  0
  5  6  1  0
  6  7  2  0
  7  8  1  0
  8  9  1  0
  9 10  2  0
 10 11  1  0
 11 12  1  0
  7 13  1  0
  2 14  1  0
 14 15  1  0
 15 16  2  0
 16 17  1  0
 17 18  1  0
 18 19  2  0
 19 20  1  0
 20 21  2  0
 21 22  1  0
 13  4  1  0
 22 14  2  0
 12  8  2  0
 21 17  1  0
  3 23  1  0
  9 24  1  0
 10 25  1  0
 12 26  1  0
 15 27  1  0
 16 28  1  0
 18 29  1  0
 19 30  1  0
M  END
>  <Energy>  (99) 
56.385160178928246

>  <compound_id>  (99) 
35548

>  <target_id>  (99) 
1

>  <reference_id>  (99) 
107

>  <inspiration_ids>  (99) 
[107, 76]

>  <energy_score>  (99) 
-102.18307701500942

>  <distance_score>  (99) 
15.07405066014543

>  <path>  (99) 
/opt/xchem-fragalysis-2/maxwin/BulkDock/SCRATCH/511013/C35548-P107/C35548-P107.minimised.mol

>  <scratch_subdir>  (99) 
/opt/xchem-fragalysis-2/maxwin/BulkDock/SCRATCH/511013/C35548-P107

>  <fragmenstein_runtime>  (99) 
18.122464656829834

>  <fragmenstein_outcome>  (99) 
too moved

>  <fragmenstein_mode>  (99) 
expansion

>  <fragmenstein_error>  (99) 


$$$$
C35548-P76
     RDKit          3D

 30 33  0  0  0  0  0  0  0  0999 V2000
   -1.7387  -13.5396   27.4822 O   0  0  0  0  0  0  0  0  0  0  0  0
   -2.1834  -14.3515   26.7007 C   0  0  0  0  0  0  0  0  0  0  0  0
   -1.7672  -14.6666   25.1972 N   0  0  0  0  0  0  0  0  0  0  0  0
   -0.6147  -14.1142   24.3470 C   0  0  0  0  0  0  0  0  0  0  0  0
    0.8533  -13.8679   24.2261 N   0  0  0  0  0  0  0  0  0  0  0  0
    1.5842  -12.2579   23.6790 N   0  0  0  0  0  0  0  0  0  0  0  0
    0.5341  -11.7420   22.8657 C   0  0  0  0  0  0  0  0  0  0  0  0
   -0.2874  -10.3672   21.8666 C   0  0  0  0  0  0  0  0  0  0  0  0
    0.1549   -9.0318   21.6199 C   0  0  0  0  0  0  0  0  0  0  0  0
   -0.4113   -8.6136   20.4624 C   0  0  0  0  0  0  0  0  0  0  0  0
   -1.9711   -9.2902   20.2207 S   0  0  0  0  0  0  0  0  0  0  0  0
   -1.4598  -10.6043   21.1443 C   0  0  0  0  0  0  0  0  0  0  0  0
   -0.1596  -13.9456   22.8257 S   0  0  0  0  0  0  0  0  0  0  0  0
   -3.3074  -15.3169   27.4502 C   0  0  0  0  0  0  0  0  0  0  0  0
   -3.3533  -16.8089   27.1460 C   0  0  0  0  0  0  0  0  0  0  0  0
   -4.1817  -17.5774   27.8762 C   0  0  0  0  0  0  0  0  0  0  0  0
   -4.9513  -16.9921   28.8630 N   0  0  0  0  0  0  0  0  0  0  0  0
   -5.8166  -17.5511   29.7591 C   0  0  0  0  0  0  0  0  0  0  0  0
   -6.3050  -16.5039   30.4962 C   0  0  0  0  0  0  0  0  0  0  0  0
   -5.7659  -15.3197   30.0637 N   0  0  0  0  0  0  0  0  0  0  0  0
   -4.8963  -15.6285   29.1182 C   0  0  0  0  0  0  0  0  0  0  0  0
   -4.0195  -14.8142   28.4400 N   0  0  0  0  0  0  0  0  0  0  0  0
   -2.4000  -15.3499   24.8079 H   0  0  0  0  0  0  0  0  0  0  0  0
    1.0358   -8.5321   21.9681 H   0  0  0  0  0  0  0  0  0  0  0  0
    0.0474   -7.9871   19.7209 H   0  0  0  0  0  0  0  0  0  0  0  0
   -2.0311  -11.5052   21.0228 H   0  0  0  0  0  0  0  0  0  0  0  0
   -2.6938  -17.2593   26.4275 H   0  0  0  0  0  0  0  0  0  0  0  0
   -4.2596  -18.6514   27.7627 H   0  0  0  0  0  0  0  0  0  0  0  0
   -5.9760  -18.6105   29.8310 H   0  0  0  0  0  0  0  0  0  0  0  0
   -6.9939  -16.5381   31.3288 H   0  0  0  0  0  0  0  0  0  0  0  0
  1  2  2  0
  2  3  1  0
  3  4  1  0
  4  5  2  0
  5  6  1  0
  6  7  2  0
  7  8  1  0
  8  9  1  0
  9 10  2  0
 10 11  1  0
 11 12  1  0
  7 13  1  0
  2 14  1  0
 14 15  1  0
 15 16  2  0
 16 17  1  0
 17 18  1  0
 18 19  2  0
 19 20  1  0
 20 21  2  0
 21 22  1  0
 13  4  1  0
 22 14  2  0
 12  8  2  0
 21 17  1  0
  3 23  1  0
  9 24  1  0
 10 25  1  0
 12 26  1  0
 15 27  1  0
 16 28  1  0
 18 29  1  0
 19 30  1  0
M  END
>  <Energy>  (100) 
402.90170773778806

>  <compound_id>  (100) 
35548

>  <target_id>  (100) 
1

>  <reference_id>  (100) 
76

>  <inspiration_ids>  (100) 
[107, 76]

>  <energy_score>  (100) 
244.33347054385285

>  <distance_score>  (100) 
13.610767022751542

>  <path>  (100) 
/opt/xchem-fragalysis-2/maxwin/BulkDock/SCRATCH/511013/C35548-P76/C35548-P76.minimised.mol

>  <scratch_subdir>  (100) 
/opt/xchem-fragalysis-2/maxwin/BulkDock/SCRATCH/511013/C35548-P76

>  <fragmenstein_runtime>  (100) 
17.61745309829712

>  <fragmenstein_outcome>  (100) 
too moved

>  <fragmenstein_mode>  (100) 
expansion

>  <fragmenstein_error>  (100) 


$$$$
C15768-P107
     RDKit          3D

 36 39  0  0  0  0  0  0  0  0999 V2000
   -7.1596  -12.2793   19.3809 O   0  0  0  0  0  0  0  0  0  0  0  0
   -6.6693  -12.0034   20.4811 C   0  0  0  0  0  0  0  0  0  0  0  0
   -4.9561  -11.4308   20.7337 O   0  0  0  0  0  0  0  0  0  0  0  0
   -3.1676  -10.7633   20.5512 C   0  0  0  0  0  0  0  0  0  0  0  0
   -1.9345   -9.4859   19.8237 C   0  0  0  0  0  0  0  0  0  0  0  0
   -2.2672   -9.5192   18.5351 C   0  0  0  0  0  0  0  0  0  0  0  0
   -1.4510   -8.9638   17.6530 N   0  0  0  0  0  0  0  0  0  0  0  0
   -0.0612   -8.5070   17.7099 C   0  0  0  0  0  0  0  0  0  0  0  0
    0.8958   -8.5322   18.6861 C   0  0  0  0  0  0  0  0  0  0  0  0
    2.5970   -8.1560   17.8447 C   0  0  0  0  0  0  0  0  0  0  0  0
    4.2484   -7.1733   17.9909 C   0  0  0  0  0  0  0  0  0  0  0  0
    4.8676   -6.3663   16.9732 C   0  0  0  0  0  0  0  0  0  0  0  0
    3.8303   -6.2295   15.4202 S   0  0  0  0  0  0  0  0  0  0  0  0
    2.5705   -7.9216   16.3407 C   0  0  0  0  0  0  0  0  0  0  0  0
   -0.3024   -8.7563   19.9704 C   0  0  0  0  0  0  0  0  0  0  0  0
   -7.6654  -12.3095   21.9108 C   0  0  0  0  0  0  0  0  0  0  0  0
   -9.0854  -12.7462   21.5398 C   0  0  0  0  0  0  0  0  0  0  0  0
   -9.8028  -13.3709   22.4933 C   0  0  0  0  0  0  0  0  0  0  0  0
   -9.2754  -13.5099   23.7683 N   0  0  0  0  0  0  0  0  0  0  0  0
   -9.7838  -14.1575   24.8694 C   0  0  0  0  0  0  0  0  0  0  0  0
   -8.8540  -13.9616   25.8594 C   0  0  0  0  0  0  0  0  0  0  0  0
   -7.7992  -13.2145   25.3879 N   0  0  0  0  0  0  0  0  0  0  0  0
   -8.0350  -12.9634   24.1100 C   0  0  0  0  0  0  0  0  0  0  0  0
   -7.2133  -12.3749   23.1480 N   0  0  0  0  0  0  0  0  0  0  0  0
   -3.1127  -10.3783   21.5653 H   0  0  0  0  0  0  0  0  0  0  0  0
   -2.6468  -11.7133   20.4143 H   0  0  0  0  0  0  0  0  0  0  0  0
   -3.0954  -10.0336   18.0890 H   0  0  0  0  0  0  0  0  0  0  0  0
    0.2111   -8.2262   16.6978 H   0  0  0  0  0  0  0  0  0  0  0  0
    5.0415   -7.6083   18.5883 H   0  0  0  0  0  0  0  0  0  0  0  0
    5.8800   -6.0205   16.9252 H   0  0  0  0  0  0  0  0  0  0  0  0
    2.7964   -8.4450   15.4695 H   0  0  0  0  0  0  0  0  0  0  0  0
    0.1306   -8.8234   20.9769 H   0  0  0  0  0  0  0  0  0  0  0  0
   -9.4254  -12.6067   20.5210 H   0  0  0  0  0  0  0  0  0  0  0  0
  -10.7923  -13.7737   22.3161 H   0  0  0  0  0  0  0  0  0  0  0  0
  -10.7319  -14.6735   24.8507 H   0  0  0  0  0  0  0  0  0  0  0  0
   -8.8803  -14.3063   26.8852 H   0  0  0  0  0  0  0  0  0  0  0  0
  1  2  2  0
  2  3  1  0
  3  4  1  0
  4  5  1  0
  5  6  2  0
  6  7  1  0
  7  8  2  0
  8  9  1  0
  9 10  1  0
 10 11  1  0
 11 12  2  0
 12 13  1  0
 13 14  1  0
  9 15  2  0
  2 16  1  0
 16 17  1  0
 17 18  2  0
 18 19  1  0
 19 20  1  0
 20 21  2  0
 21 22  1  0
 22 23  2  0
 23 24  1  0
 15  5  1  0
 24 16  2  0
 14 10  2  0
 23 19  1  0
  4 25  1  0
  4 26  1  0
  6 27  1  0
  8 28  1  0
 11 29  1  0
 12 30  1  0
 14 31  1  0
 15 32  1  0
 17 33  1  0
 18 34  1  0
 20 35  1  0
 21 36  1  0
M  END
>  <Energy>  (101) 
787.95672716856564

>  <compound_id>  (101) 
15768

>  <target_id>  (101) 
1

>  <reference_id>  (101) 
107

>  <inspiration_ids>  (101) 
[107, 76]

>  <energy_score>  (101) 
640.2652307533597

>  <distance_score>  (101) 
12.722458218747605

>  <path>  (101) 
/opt/xchem-fragalysis-2/maxwin/BulkDock/SCRATCH/511013/C15768-P107/C15768-P107.minimised.mol

>  <scratch_subdir>  (101) 
/opt/xchem-fragalysis-2/maxwin/BulkDock/SCRATCH/511013/C15768-P107

>  <fragmenstein_runtime>  (101) 
26.038123846054077

>  <fragmenstein_outcome>  (101) 
too moved

>  <fragmenstein_mode>  (101) 
expansion

>  <fragmenstein_error>  (101) 


$$$$
C15768-P76
     RDKit          3D

 36 39  0  0  0  0  0  0  0  0999 V2000
   -0.2224  -11.7833   27.7158 O   0  0  0  0  0  0  0  0  0  0  0  0
   -0.2543  -12.9105   27.2141 C   0  0  0  0  0  0  0  0  0  0  0  0
    0.6398  -13.2266   26.1993 O   0  0  0  0  0  0  0  0  0  0  0  0
    0.6208  -14.0569   24.5695 C   0  0  0  0  0  0  0  0  0  0  0  0
    2.2907  -13.3325   24.0236 C   0  0  0  0  0  0  0  0  0  0  0  0
    2.2159  -12.0744   23.9311 C   0  0  0  0  0  0  0  0  0  0  0  0
    2.7837  -11.3604   22.9912 N   0  0  0  0  0  0  0  0  0  0  0  0
    3.8536  -11.6385   22.3286 C   0  0  0  0  0  0  0  0  0  0  0  0
    3.8400  -12.7515   21.6674 C   0  0  0  0  0  0  0  0  0  0  0  0
    5.4572  -12.6151   20.7794 C   0  0  0  0  0  0  0  0  0  0  0  0
    5.6611  -12.1539   19.5015 C   0  0  0  0  0  0  0  0  0  0  0  0
    6.8918  -11.5591   19.1663 C   0  0  0  0  0  0  0  0  0  0  0  0
    8.0836  -11.9221   20.2640 S   0  0  0  0  0  0  0  0  0  0  0  0
    6.7067  -12.0008   21.2575 C   0  0  0  0  0  0  0  0  0  0  0  0
    3.0930  -13.7548   22.9897 C   0  0  0  0  0  0  0  0  0  0  0  0
   -1.3110  -13.9432   27.9432 C   0  0  0  0  0  0  0  0  0  0  0  0
   -0.9619  -14.2792   29.3803 C   0  0  0  0  0  0  0  0  0  0  0  0
   -1.7506  -15.1571   30.0284 C   0  0  0  0  0  0  0  0  0  0  0  0
   -2.8264  -15.7279   29.3722 N   0  0  0  0  0  0  0  0  0  0  0  0
   -3.7422  -16.6551   29.8065 C   0  0  0  0  0  0  0  0  0  0  0  0
   -4.5343  -16.9150   28.7165 C   0  0  0  0  0  0  0  0  0  0  0  0
   -4.1205  -16.1707   27.6353 N   0  0  0  0  0  0  0  0  0  0  0  0
   -3.1186  -15.4062   28.0507 C   0  0  0  0  0  0  0  0  0  0  0  0
   -2.3754  -14.4515   27.3543 N   0  0  0  0  0  0  0  0  0  0  0  0
    0.1471  -13.8563   23.5663 H   0  0  0  0  0  0  0  0  0  0  0  0
   -0.5027  -14.2133   24.5117 H   0  0  0  0  0  0  0  0  0  0  0  0
    1.6164  -11.6571   24.6776 H   0  0  0  0  0  0  0  0  0  0  0  0
    4.6106  -10.8843   22.2810 H   0  0  0  0  0  0  0  0  0  0  0  0
    4.8331  -12.2681   18.8165 H   0  0  0  0  0  0  0  0  0  0  0  0
    7.2146  -11.0314   18.3028 H   0  0  0  0  0  0  0  0  0  0  0  0
    6.9865  -11.6318   22.2360 H   0  0  0  0  0  0  0  0  0  0  0  0
    3.3442  -14.8098   23.0802 H   0  0  0  0  0  0  0  0  0  0  0  0
   -0.1053  -13.7933   29.8299 H   0  0  0  0  0  0  0  0  0  0  0  0
   -1.5820  -15.4521   31.0566 H   0  0  0  0  0  0  0  0  0  0  0  0
   -3.7433  -17.0456   30.8140 H   0  0  0  0  0  0  0  0  0  0  0  0
   -5.3692  -17.6015   28.6470 H   0  0  0  0  0  0  0  0  0  0  0  0
  1  2  2  0
  2  3  1  0
  3  4  1  0
  4  5  1  0
  5  6  2  0
  6  7  1  0
  7  8  2  0
  8  9  1  0
  9 10  1  0
 10 11  1  0
 11 12  2  0
 12 13  1  0
 13 14  1  0
  9 15  2  0
  2 16  1  0
 16 17  1  0
 17 18  2  0
 18 19  1  0
 19 20  1  0
 20 21  2  0
 21 22  1  0
 22 23  2  0
 23 24  1  0
 15  5  1  0
 24 16  2  0
 14 10  2  0
 23 19  1  0
  4 25  1  0
  4 26  1  0
  6 27  1  0
  8 28  1  0
 11 29  1  0
 12 30  1  0
 14 31  1  0
 15 32  1  0
 17 33  1  0
 18 34  1  0
 20 35  1  0
 21 36  1  0
M  END
>  <Energy>  (102) 
513.53113212187498

>  <compound_id>  (102) 
15768

>  <target_id>  (102) 
1

>  <reference_id>  (102) 
76

>  <inspiration_ids>  (102) 
[107, 76]

>  <energy_score>  (102) 
365.8396357066438

>  <distance_score>  (102) 
13.007224885624064

>  <path>  (102) 
/opt/xchem-fragalysis-2/maxwin/BulkDock/SCRATCH/511013/C15768-P76/C15768-P76.minimised.mol

>  <scratch_subdir>  (102) 
/opt/xchem-fragalysis-2/maxwin/BulkDock/SCRATCH/511013/C15768-P76

>  <fragmenstein_runtime>  (102) 
16.73786997795105

>  <fragmenstein_outcome>  (102) 
too moved

>  <fragmenstein_mode>  (102) 
expansion

>  <fragmenstein_error>  (102) 


$$$$
C35549-P107
     RDKit          3D

 42 44  0  0  0  0  0  0  0  0999 V2000
    2.7321  -10.8232   14.9778 C   0  0  0  0  0  0  0  0  0  0  0  0
    3.5475  -12.0093   15.5329 C   0  0  0  0  0  0  0  0  0  0  0  0
    2.7023  -13.5281   15.5128 C   0  0  0  0  0  0  0  0  0  0  0  0
    1.4739  -14.1192   16.2560 N   0  0  0  0  0  0  0  0  0  0  0  0
    1.2067  -15.5003   16.7491 C   0  0  0  0  0  0  0  0  0  0  0  0
    1.9138  -16.4756   16.7626 O   0  0  0  0  0  0  0  0  0  0  0  0
   -0.2671  -15.8809   17.2853 C   0  0  0  0  0  0  0  0  0  0  0  0
   -1.5661  -15.8357   16.5170 C   0  0  0  0  0  0  0  0  0  0  0  0
   -2.7115  -16.4138   16.7925 N   0  0  0  0  0  0  0  0  0  0  0  0
   -2.7859  -17.1742   17.9315 C   0  0  0  0  0  0  0  0  0  0  0  0
   -3.8139  -17.7984   18.4832 N   0  0  0  0  0  0  0  0  0  0  0  0
   -3.3133  -18.4642   19.5719 C   0  0  0  0  0  0  0  0  0  0  0  0
   -1.9678  -18.2119   19.7141 C   0  0  0  0  0  0  0  0  0  0  0  0
   -1.6458  -17.3383   18.6963 N   0  0  0  0  0  0  0  0  0  0  0  0
   -0.4319  -16.7247   18.3479 C   0  0  0  0  0  0  0  0  0  0  0  0
    4.3796  -11.5364   16.6902 N   0  0  0  0  0  0  0  0  0  0  0  0
    5.0337  -12.6773   17.3421 C   0  0  0  0  0  0  0  0  0  0  0  0
    5.4010  -10.5056   16.3206 C   0  0  0  0  0  0  0  0  0  0  0  0
    5.1938   -9.2364   17.1193 C   0  0  0  0  0  0  0  0  0  0  0  0
    5.6504   -9.0254   18.4735 C   0  0  0  0  0  0  0  0  0  0  0  0
    5.4577   -7.7372   18.9220 C   0  0  0  0  0  0  0  0  0  0  0  0
    4.7137   -6.7683   17.7386 S   0  0  0  0  0  0  0  0  0  0  0  0
    4.6627   -8.0598   16.6195 C   0  0  0  0  0  0  0  0  0  0  0  0
    2.2526  -10.2439   15.7706 H   0  0  0  0  0  0  0  0  0  0  0  0
    3.3565  -10.1360   14.3981 H   0  0  0  0  0  0  0  0  0  0  0  0
    1.9469  -11.1857   14.3064 H   0  0  0  0  0  0  0  0  0  0  0  0
    4.2816  -12.2305   14.7401 H   0  0  0  0  0  0  0  0  0  0  0  0
    2.4052  -13.6378   14.4610 H   0  0  0  0  0  0  0  0  0  0  0  0
    3.4834  -14.2827   15.6705 H   0  0  0  0  0  0  0  0  0  0  0  0
    0.6218  -13.5708   16.3244 H   0  0  0  0  0  0  0  0  0  0  0  0
   -1.5146  -15.2459   15.5860 H   0  0  0  0  0  0  0  0  0  0  0  0
   -3.9489  -19.1004   20.1727 H   0  0  0  0  0  0  0  0  0  0  0  0
   -1.2272  -18.5524   20.4226 H   0  0  0  0  0  0  0  0  0  0  0  0
    0.3872  -17.0147   18.9697 H   0  0  0  0  0  0  0  0  0  0  0  0
    5.6589  -12.3491   18.1797 H   0  0  0  0  0  0  0  0  0  0  0  0
    4.2895  -13.3596   17.7648 H   0  0  0  0  0  0  0  0  0  0  0  0
    5.6685  -13.2363   16.6453 H   0  0  0  0  0  0  0  0  0  0  0  0
    6.4193  -10.8733   16.5076 H   0  0  0  0  0  0  0  0  0  0  0  0
    5.3818  -10.2713   15.2498 H   0  0  0  0  0  0  0  0  0  0  0  0
    6.1284   -9.7921   19.0725 H   0  0  0  0  0  0  0  0  0  0  0  0
    5.7020   -7.3314   19.8937 H   0  0  0  0  0  0  0  0  0  0  0  0
    4.2502   -7.8929   15.6338 H   0  0  0  0  0  0  0  0  0  0  0  0
  1  2  1  0
  2  3  1  0
  3  4  1  0
  4  5  1  0
  5  6  2  0
  5  7  1  0
  7  8  1  0
  8  9  2  0
  9 10  1  0
 10 11  2  0
 11 12  1  0
 12 13  2  0
 13 14  1  0
 14 15  1  0
  2 16  1  0
 16 17  1  0
 16 18  1  0
 18 19  1  0
 19 20  1  0
 20 21  2  0
 21 22  1  0
 22 23  1  0
 15  7  2  0
 23 19  2  0
 14 10  1  0
  1 24  1  0
  1 25  1  0
  1 26  1  0
  2 27  1  0
  3 28  1  0
  3 29  1  0
  4 30  1  0
  8 31  1  0
 12 32  1  0
 13 33  1  0
 15 34  1  0
 17 35  1  0
 17 36  1  0
 17 37  1  0
 18 38  1  0
 18 39  1  0
 20 40  1  0
 21 41  1  0
 23 42  1  0
M  END
>  <Energy>  (103) 
91.921324565012497

>  <compound_id>  (103) 
35549

>  <target_id>  (103) 
1

>  <reference_id>  (103) 
107

>  <inspiration_ids>  (103) 
[107, 76]

>  <energy_score>  (103) 
4.407170483952143

>  <distance_score>  (103) 
15.997579362637312

>  <path>  (103) 
/opt/xchem-fragalysis-2/maxwin/BulkDock/SCRATCH/511013/C35549-P107/C35549-P107.minimised.mol

>  <scratch_subdir>  (103) 
/opt/xchem-fragalysis-2/maxwin/BulkDock/SCRATCH/511013/C35549-P107

>  <fragmenstein_runtime>  (103) 
13.961548328399658

>  <fragmenstein_outcome>  (103) 
too moved

>  <fragmenstein_mode>  (103) 
expansion

>  <fragmenstein_error>  (103) 


$$$$
C35549-P76
     RDKit          3D

 42 44  0  0  0  0  0  0  0  0999 V2000
    3.4192   -5.6763   22.9980 C   0  0  0  0  0  0  0  0  0  0  0  0
    2.6382   -5.8889   21.6970 C   0  0  0  0  0  0  0  0  0  0  0  0
    1.0209   -5.5915   21.9948 C   0  0  0  0  0  0  0  0  0  0  0  0
    0.0390   -6.5231   22.7231 N   0  0  0  0  0  0  0  0  0  0  0  0
   -1.0638   -6.2228   23.6601 C   0  0  0  0  0  0  0  0  0  0  0  0
   -1.4141   -5.1793   24.1478 O   0  0  0  0  0  0  0  0  0  0  0  0
   -2.0592   -7.3881   24.0506 C   0  0  0  0  0  0  0  0  0  0  0  0
   -2.7761   -8.3181   23.0947 C   0  0  0  0  0  0  0  0  0  0  0  0
   -3.6302   -9.2668   23.3812 N   0  0  0  0  0  0  0  0  0  0  0  0
   -3.9995   -9.4314   24.6896 C   0  0  0  0  0  0  0  0  0  0  0  0
   -4.7740  -10.3406   25.2566 N   0  0  0  0  0  0  0  0  0  0  0  0
   -4.7828  -10.0673   26.5976 C   0  0  0  0  0  0  0  0  0  0  0  0
   -3.9875   -8.9765   26.8643 C   0  0  0  0  0  0  0  0  0  0  0  0
   -3.4736   -8.5746   25.6468 N   0  0  0  0  0  0  0  0  0  0  0  0
   -2.5394   -7.5646   25.3180 C   0  0  0  0  0  0  0  0  0  0  0  0
    3.4009   -5.0443   20.6715 N   0  0  0  0  0  0  0  0  0  0  0  0
    2.4967   -4.4773   19.6696 C   0  0  0  0  0  0  0  0  0  0  0  0
    4.4952   -5.7836   19.9740 C   0  0  0  0  0  0  0  0  0  0  0  0
    5.8462   -5.7172   20.6487 C   0  0  0  0  0  0  0  0  0  0  0  0
    6.8211   -6.7725   20.5679 C   0  0  0  0  0  0  0  0  0  0  0  0
    8.0050   -6.4697   21.2033 C   0  0  0  0  0  0  0  0  0  0  0  0
    7.9651   -4.9238   21.9162 S   0  0  0  0  0  0  0  0  0  0  0  0
    6.3608   -4.6622   21.3807 C   0  0  0  0  0  0  0  0  0  0  0  0
    2.8954   -6.1564   23.8324 H   0  0  0  0  0  0  0  0  0  0  0  0
    4.4151   -6.1247   22.9602 H   0  0  0  0  0  0  0  0  0  0  0  0
    3.5164   -4.6131   23.2445 H   0  0  0  0  0  0  0  0  0  0  0  0
    2.6762   -6.9458   21.4049 H   0  0  0  0  0  0  0  0  0  0  0  0
    0.5371   -5.4955   21.0173 H   0  0  0  0  0  0  0  0  0  0  0  0
    0.9397   -4.6175   22.4914 H   0  0  0  0  0  0  0  0  0  0  0  0
   -0.0088   -7.5038   22.4551 H   0  0  0  0  0  0  0  0  0  0  0  0
   -2.5105   -8.1711   22.0334 H   0  0  0  0  0  0  0  0  0  0  0  0
   -5.3585  -10.6661   27.2915 H   0  0  0  0  0  0  0  0  0  0  0  0
   -3.7421   -8.4647   27.7831 H   0  0  0  0  0  0  0  0  0  0  0  0
   -2.2052   -6.9405   26.1394 H   0  0  0  0  0  0  0  0  0  0  0  0
    3.0468   -3.8475   18.9605 H   0  0  0  0  0  0  0  0  0  0  0  0
    1.7646   -3.8104   20.1364 H   0  0  0  0  0  0  0  0  0  0  0  0
    1.9714   -5.2539   19.1029 H   0  0  0  0  0  0  0  0  0  0  0  0
    4.2020   -6.8293   19.8140 H   0  0  0  0  0  0  0  0  0  0  0  0
    4.6506   -5.3734   18.9693 H   0  0  0  0  0  0  0  0  0  0  0  0
    6.6475   -7.7185   20.0686 H   0  0  0  0  0  0  0  0  0  0  0  0
    8.8867   -7.0878   21.3004 H   0  0  0  0  0  0  0  0  0  0  0  0
    5.8615   -3.7296   21.6098 H   0  0  0  0  0  0  0  0  0  0  0  0
  1  2  1  0
  2  3  1  0
  3  4  1  0
  4  5  1  0
  5  6  2  0
  5  7  1  0
  7  8  1  0
  8  9  2  0
  9 10  1  0
 10 11  2  0
 11 12  1  0
 12 13  2  0
 13 14  1  0
 14 15  1  0
  2 16  1  0
 16 17  1  0
 16 18  1  0
 18 19  1  0
 19 20  1  0
 20 21  2  0
 21 22  1  0
 22 23  1  0
 15  7  2  0
 23 19  2  0
 14 10  1  0
  1 24  1  0
  1 25  1  0
  1 26  1  0
  2 27  1  0
  3 28  1  0
  3 29  1  0
  4 30  1  0
  8 31  1  0
 12 32  1  0
 13 33  1  0
 15 34  1  0
 17 35  1  0
 17 36  1  0
 17 37  1  0
 18 38  1  0
 18 39  1  0
 20 40  1  0
 21 41  1  0
 23 42  1  0
M  END
>  <Energy>  (104) 
69.17124482160321

>  <compound_id>  (104) 
35549

>  <target_id>  (104) 
1

>  <reference_id>  (104) 
76

>  <inspiration_ids>  (104) 
[107, 76]

>  <energy_score>  (104) 
-18.34290925946101

>  <distance_score>  (104) 
15.740937703503626

>  <path>  (104) 
/opt/xchem-fragalysis-2/maxwin/BulkDock/SCRATCH/511013/C35549-P76/C35549-P76.minimised.mol

>  <scratch_subdir>  (104) 
/opt/xchem-fragalysis-2/maxwin/BulkDock/SCRATCH/511013/C35549-P76

>  <fragmenstein_runtime>  (104) 
12.745727062225342

>  <fragmenstein_outcome>  (104) 
too moved

>  <fragmenstein_mode>  (104) 
expansion

>  <fragmenstein_error>  (104) 


$$$$
C35550-P107
     RDKit          3D

 42 44  0  0  0  0  0  0  0  0999 V2000
    4.3577  -11.1269   14.4592 C   0  0  0  0  0  0  0  0  0  0  0  0
    4.1097  -11.1347   15.9649 C   0  0  0  0  0  0  0  0  0  0  0  0
    4.6936  -12.3664   16.7294 C   0  0  0  0  0  0  0  0  0  0  0  0
    3.9178  -13.8246   16.3239 C   0  0  0  0  0  0  0  0  0  0  0  0
    2.8272  -14.6073   17.1287 N   0  0  0  0  0  0  0  0  0  0  0  0
    1.4727  -15.0876   16.7243 C   0  0  0  0  0  0  0  0  0  0  0  0
    0.8556  -14.9177   15.7033 O   0  0  0  0  0  0  0  0  0  0  0  0
    0.6760  -16.0989   17.7093 C   0  0  0  0  0  0  0  0  0  0  0  0
    1.2752  -17.0996   18.6561 C   0  0  0  0  0  0  0  0  0  0  0  0
    0.6837  -17.9318   19.4727 N   0  0  0  0  0  0  0  0  0  0  0  0
   -0.6765  -17.9672   19.4758 C   0  0  0  0  0  0  0  0  0  0  0  0
   -1.5146  -18.7049   20.1878 N   0  0  0  0  0  0  0  0  0  0  0  0
   -2.7581  -18.4624   19.6712 C   0  0  0  0  0  0  0  0  0  0  0  0
   -2.6796  -17.5543   18.6424 C   0  0  0  0  0  0  0  0  0  0  0  0
   -1.3535  -17.1863   18.5523 N   0  0  0  0  0  0  0  0  0  0  0  0
   -0.6825  -16.2716   17.6981 C   0  0  0  0  0  0  0  0  0  0  0  0
    6.1958  -12.3962   16.5617 N   0  0  0  0  0  0  0  0  0  0  0  0
    6.9119  -11.1222   16.7861 C   0  0  0  0  0  0  0  0  0  0  0  0
    8.4045  -11.3288   16.7295 C   0  0  0  0  0  0  0  0  0  0  0  0
    9.2452  -10.9827   15.6111 C   0  0  0  0  0  0  0  0  0  0  0  0
   10.5796  -11.2291   15.8487 C   0  0  0  0  0  0  0  0  0  0  0  0
   10.8454  -11.8757   17.4058 S   0  0  0  0  0  0  0  0  0  0  0  0
    9.1769  -11.8086   17.7730 C   0  0  0  0  0  0  0  0  0  0  0  0
    3.9059  -10.2330   14.0163 H   0  0  0  0  0  0  0  0  0  0  0  0
    3.9070  -11.9961   13.9728 H   0  0  0  0  0  0  0  0  0  0  0  0
    5.4221  -11.1132   14.2117 H   0  0  0  0  0  0  0  0  0  0  0  0
    3.0282  -11.1175   16.1071 H   0  0  0  0  0  0  0  0  0  0  0  0
    4.4719  -10.1992   16.4062 H   0  0  0  0  0  0  0  0  0  0  0  0
    4.4969  -12.2505   17.7954 H   0  0  0  0  0  0  0  0  0  0  0  0
    4.7222  -14.5674   16.2542 H   0  0  0  0  0  0  0  0  0  0  0  0
    3.5025  -13.7180   15.3174 H   0  0  0  0  0  0  0  0  0  0  0  0
    3.0691  -15.0107   18.0325 H   0  0  0  0  0  0  0  0  0  0  0  0
    2.3755  -17.1310   18.6108 H   0  0  0  0  0  0  0  0  0  0  0  0
   -3.6378  -18.9729   20.0400 H   0  0  0  0  0  0  0  0  0  0  0  0
   -3.4282  -17.1686   17.9693 H   0  0  0  0  0  0  0  0  0  0  0  0
   -1.3165  -15.7067   17.0244 H   0  0  0  0  0  0  0  0  0  0  0  0
    6.4330  -12.7323   15.6274 H   0  0  0  0  0  0  0  0  0  0  0  0
    6.6400  -10.7209   17.7694 H   0  0  0  0  0  0  0  0  0  0  0  0
    6.6369  -10.3911   16.0218 H   0  0  0  0  0  0  0  0  0  0  0  0
    8.8792  -10.5620   14.6833 H   0  0  0  0  0  0  0  0  0  0  0  0
   11.4231  -11.0704   15.1918 H   0  0  0  0  0  0  0  0  0  0  0  0
    8.8327  -12.1416   18.7424 H   0  0  0  0  0  0  0  0  0  0  0  0
  1  2  1  0
  2  3  1  0
  3  4  1  0
  4  5  1  0
  5  6  1  0
  6  7  2  0
  6  8  1  0
  8  9  1  0
  9 10  2  0
 10 11  1  0
 11 12  2  0
 12 13  1  0
 13 14  2  0
 14 15  1  0
 15 16  1  0
  3 17  1  0
 17 18  1  0
 18 19  1  0
 19 20  1  0
 20 21  2  0
 21 22  1  0
 22 23  1  0
 16  8  2  0
 23 19  2  0
 15 11  1  0
  1 24  1  0
  1 25  1  0
  1 26  1  0
  2 27  1  0
  2 28  1  0
  3 29  1  0
  4 30  1  0
  4 31  1  0
  5 32  1  0
  9 33  1  0
 13 34  1  0
 14 35  1  0
 16 36  1  0
 17 37  1  0
 18 38  1  0
 18 39  1  0
 20 40  1  0
 21 41  1  0
 23 42  1  0
M  END
>  <Energy>  (105) 
64.876216477627565

>  <compound_id>  (105) 
35550

>  <target_id>  (105) 
1

>  <reference_id>  (105) 
107

>  <inspiration_ids>  (105) 
[107, 76]

>  <energy_score>  (105) 
1.688380223786396

>  <distance_score>  (105) 
15.886288859486447

>  <path>  (105) 
/opt/xchem-fragalysis-2/maxwin/BulkDock/SCRATCH/511013/C35550-P107/C35550-P107.minimised.mol

>  <scratch_subdir>  (105) 
/opt/xchem-fragalysis-2/maxwin/BulkDock/SCRATCH/511013/C35550-P107

>  <fragmenstein_runtime>  (105) 
18.236133098602295

>  <fragmenstein_outcome>  (105) 
too moved

>  <fragmenstein_mode>  (105) 
expansion

>  <fragmenstein_error>  (105) 


$$$$
C35550-P76
     RDKit          3D

 42 44  0  0  0  0  0  0  0  0999 V2000
    6.4615   -5.8860   26.0248 C   0  0  0  0  0  0  0  0  0  0  0  0
    5.6937   -6.4035   24.8147 C   0  0  0  0  0  0  0  0  0  0  0  0
    4.4999   -5.5416   24.3642 C   0  0  0  0  0  0  0  0  0  0  0  0
    3.3580   -5.3512   25.5843 C   0  0  0  0  0  0  0  0  0  0  0  0
    2.4692   -6.4704   26.1756 N   0  0  0  0  0  0  0  0  0  0  0  0
    2.0432   -6.7347   27.5700 C   0  0  0  0  0  0  0  0  0  0  0  0
    2.3494   -6.1896   28.5975 O   0  0  0  0  0  0  0  0  0  0  0  0
    1.0471   -7.9519   27.8445 C   0  0  0  0  0  0  0  0  0  0  0  0
    1.5738   -9.2363   28.4931 C   0  0  0  0  0  0  0  0  0  0  0  0
    0.9205  -10.3080   28.8516 N   0  0  0  0  0  0  0  0  0  0  0  0
   -0.4390  -10.2659   28.7794 C   0  0  0  0  0  0  0  0  0  0  0  0
   -1.3341  -11.1865   29.0913 N   0  0  0  0  0  0  0  0  0  0  0  0
   -2.5567  -10.5920   28.9482 C   0  0  0  0  0  0  0  0  0  0  0  0
   -2.4089   -9.2942   28.5075 C   0  0  0  0  0  0  0  0  0  0  0  0
   -1.0525   -9.0914   28.3540 N   0  0  0  0  0  0  0  0  0  0  0  0
   -0.3160   -7.9646   27.8850 C   0  0  0  0  0  0  0  0  0  0  0  0
    5.0124   -4.2453   23.7992 N   0  0  0  0  0  0  0  0  0  0  0  0
    5.6702   -4.2613   22.4721 C   0  0  0  0  0  0  0  0  0  0  0  0
    7.1596   -4.5080   22.4916 C   0  0  0  0  0  0  0  0  0  0  0  0
    7.8393   -5.3215   21.5152 C   0  0  0  0  0  0  0  0  0  0  0  0
    9.1970   -5.3881   21.7226 C   0  0  0  0  0  0  0  0  0  0  0  0
    9.6750   -4.5353   23.1176 S   0  0  0  0  0  0  0  0  0  0  0  0
    8.0799   -3.9731   23.3767 C   0  0  0  0  0  0  0  0  0  0  0  0
    5.8385   -5.8984   26.9240 H   0  0  0  0  0  0  0  0  0  0  0  0
    6.8339   -4.8698   25.8814 H   0  0  0  0  0  0  0  0  0  0  0  0
    7.3239   -6.5324   26.2192 H   0  0  0  0  0  0  0  0  0  0  0  0
    6.3855   -6.5806   23.9863 H   0  0  0  0  0  0  0  0  0  0  0  0
    5.3151   -7.3966   25.0807 H   0  0  0  0  0  0  0  0  0  0  0  0
    3.9646   -6.0706   23.5656 H   0  0  0  0  0  0  0  0  0  0  0  0
    2.6255   -4.6348   25.1917 H   0  0  0  0  0  0  0  0  0  0  0  0
    3.8401   -4.8647   26.4390 H   0  0  0  0  0  0  0  0  0  0  0  0
    1.9464   -7.0708   25.5491 H   0  0  0  0  0  0  0  0  0  0  0  0
    2.6703   -9.2437   28.6251 H   0  0  0  0  0  0  0  0  0  0  0  0
   -3.4723  -11.1249   29.1721 H   0  0  0  0  0  0  0  0  0  0  0  0
   -3.1281   -8.5184   28.2925 H   0  0  0  0  0  0  0  0  0  0  0  0
   -0.9020   -7.0986   27.6024 H   0  0  0  0  0  0  0  0  0  0  0  0
    5.5844   -3.7509   24.4785 H   0  0  0  0  0  0  0  0  0  0  0  0
    5.5113   -3.2739   22.0214 H   0  0  0  0  0  0  0  0  0  0  0  0
    5.1661   -4.9815   21.8170 H   0  0  0  0  0  0  0  0  0  0  0  0
    7.3347   -5.8367   20.7089 H   0  0  0  0  0  0  0  0  0  0  0  0
    9.9432   -5.9101   21.1474 H   0  0  0  0  0  0  0  0  0  0  0  0
    7.8909   -3.3037   24.2047 H   0  0  0  0  0  0  0  0  0  0  0  0
  1  2  1  0
  2  3  1  0
  3  4  1  0
  4  5  1  0
  5  6  1  0
  6  7  2  0
  6  8  1  0
  8  9  1  0
  9 10  2  0
 10 11  1  0
 11 12  2  0
 12 13  1  0
 13 14  2  0
 14 15  1  0
 15 16  1  0
  3 17  1  0
 17 18  1  0
 18 19  1  0
 19 20  1  0
 20 21  2  0
 21 22  1  0
 22 23  1  0
 16  8  2  0
 23 19  2  0
 15 11  1  0
  1 24  1  0
  1 25  1  0
  1 26  1  0
  2 27  1  0
  2 28  1  0
  3 29  1  0
  4 30  1  0
  4 31  1  0
  5 32  1  0
  9 33  1  0
 13 34  1  0
 14 35  1  0
 16 36  1  0
 17 37  1  0
 18 38  1  0
 18 39  1  0
 20 40  1  0
 21 41  1  0
 23 42  1  0
M  END
>  <Energy>  (106) 
61.61668992595132

>  <compound_id>  (106) 
35550

>  <target_id>  (106) 
1

>  <reference_id>  (106) 
76

>  <inspiration_ids>  (106) 
[107, 76]

>  <energy_score>  (106) 
-1.5711463278925066

>  <distance_score>  (106) 
15.983980310067695

>  <path>  (106) 
/opt/xchem-fragalysis-2/maxwin/BulkDock/SCRATCH/511013/C35550-P76/C35550-P76.minimised.mol

>  <scratch_subdir>  (106) 
/opt/xchem-fragalysis-2/maxwin/BulkDock/SCRATCH/511013/C35550-P76

>  <fragmenstein_runtime>  (106) 
12.524757623672485

>  <fragmenstein_outcome>  (106) 
too moved

>  <fragmenstein_mode>  (106) 
expansion

>  <fragmenstein_error>  (106) 


$$$$
C10898-P55
     RDKit          3D

 38 40  0  0  0  0  0  0  0  0999 V2000
   -4.9573    0.8239   33.1449 C   0  0  0  0  0  0  0  0  0  0  0  0
   -3.6108    1.0882   32.4382 C   0  0  0  0  0  0  0  0  0  0  0  0
   -2.7210   -0.1128   31.9223 C   0  0  0  0  0  0  0  0  0  0  0  0
   -1.1897    0.3870   31.6925 C   0  0  0  0  0  0  0  0  0  0  0  0
   -0.2292   -0.0392   30.5859 N   0  0  0  0  0  0  0  0  0  0  0  0
    0.6055    0.7756   29.6499 C   0  0  0  0  0  0  0  0  0  0  0  0
    0.6596    1.9647   29.4884 O   0  0  0  0  0  0  0  0  0  0  0  0
    1.6946    0.0356   28.7781 C   0  0  0  0  0  0  0  0  0  0  0  0
    2.3533   -1.1014   29.2963 C   0  0  0  0  0  0  0  0  0  0  0  0
    3.5163   -1.6450   28.7149 C   0  0  0  0  0  0  0  0  0  0  0  0
    4.4493   -2.9722   29.6993 Br  0  0  0  0  0  0  0  0  0  0  0  0
    4.0729   -1.1557   27.5372 C   0  0  0  0  0  0  0  0  0  0  0  0
    3.4618   -0.0205   27.0165 C   0  0  0  0  0  0  0  0  0  0  0  0
    3.8019    0.7375   25.9168 N   0  0  0  0  0  0  0  0  0  0  0  0
    2.9934    1.8313   25.9088 C   0  0  0  0  0  0  0  0  0  0  0  0
    2.0919    1.7686   26.8668 N   0  0  0  0  0  0  0  0  0  0  0  0
    2.3384    0.6092   27.5997 C   0  0  0  0  0  0  0  0  0  0  0  0
   -2.9541   -1.2283   32.8482 N   0  0  0  0  0  0  0  0  0  0  0  0
   -4.0254   -2.0971   32.7793 C   0  0  0  0  0  0  0  0  0  0  0  0
   -4.1932   -2.6236   34.0385 C   0  0  0  0  0  0  0  0  0  0  0  0
   -3.1513   -2.0607   34.7915 C   0  0  0  0  0  0  0  0  0  0  0  0
   -2.3914   -1.2278   34.0734 N   0  0  0  0  0  0  0  0  0  0  0  0
   -5.4262    1.7873   33.3630 H   0  0  0  0  0  0  0  0  0  0  0  0
   -5.6494    0.2439   32.5341 H   0  0  0  0  0  0  0  0  0  0  0  0
   -4.8211    0.3311   34.1104 H   0  0  0  0  0  0  0  0  0  0  0  0
   -3.0056    1.6727   33.1450 H   0  0  0  0  0  0  0  0  0  0  0  0
   -3.7935    1.7522   31.5836 H   0  0  0  0  0  0  0  0  0  0  0  0
   -3.0761   -0.4446   30.9492 H   0  0  0  0  0  0  0  0  0  0  0  0
   -1.2318    1.4760   31.5662 H   0  0  0  0  0  0  0  0  0  0  0  0
   -0.6276    0.2071   32.6160 H   0  0  0  0  0  0  0  0  0  0  0  0
    0.0414   -1.0100   30.5127 H   0  0  0  0  0  0  0  0  0  0  0  0
    2.0290   -1.5083   30.2511 H   0  0  0  0  0  0  0  0  0  0  0  0
    4.9742   -1.5624   27.1050 H   0  0  0  0  0  0  0  0  0  0  0  0
    4.4950    0.5113   25.2162 H   0  0  0  0  0  0  0  0  0  0  0  0
    3.0748    2.6116   25.1642 H   0  0  0  0  0  0  0  0  0  0  0  0
   -4.6149   -2.1926   31.8793 H   0  0  0  0  0  0  0  0  0  0  0  0
   -4.9621   -3.3074   34.3668 H   0  0  0  0  0  0  0  0  0  0  0  0
   -2.9130   -2.2159   35.8365 H   0  0  0  0  0  0  0  0  0  0  0  0
  1  2  1  0
  2  3  1  0
  3  4  1  0
  4  5  1  0
  5  6  1  0
  6  7  2  0
  6  8  1  0
  8  9  2  0
  9 10  1  0
 10 11  1  0
 10 12  2  0
 12 13  1  0
 13 14  1  0
 14 15  1  0
 15 16  2  0
 16 17  1  0
  3 18  1  0
 18 19  1  0
 19 20  2  0
 20 21  1  0
 21 22  2  0
 17  8  1  0
 22 18  1  0
 17 13  2  0
  1 23  1  0
  1 24  1  0
  1 25  1  0
  2 26  1  0
  2 27  1  0
  3 28  1  0
  4 29  1  0
  4 30  1  0
  5 31  1  0
  9 32  1  0
 12 33  1  0
 14 34  1  0
 15 35  1  0
 19 36  1  0
 20 37  1  0
 21 38  1  0
M  END
>  <Energy>  (107) 
72.090040408155431

>  <compound_id>  (107) 
10898

>  <target_id>  (107) 
1

>  <reference_id>  (107) 
55

>  <inspiration_ids>  (107) 
[55, 7]

>  <energy_score>  (107) 
23.90066242726374

>  <distance_score>  (107) 
12.828260133789012

>  <path>  (107) 
/opt/xchem-fragalysis-2/maxwin/BulkDock/SCRATCH/511013/C10898-P55/C10898-P55.minimised.mol

>  <scratch_subdir>  (107) 
/opt/xchem-fragalysis-2/maxwin/BulkDock/SCRATCH/511013/C10898-P55

>  <fragmenstein_runtime>  (107) 
9.521992921829224

>  <fragmenstein_outcome>  (107) 
too moved

>  <fragmenstein_mode>  (107) 
expansion

>  <fragmenstein_error>  (107) 


$$$$
C10898-P7
     RDKit          3D

 38 40  0  0  0  0  0  0  0  0999 V2000
   -4.3527   -2.2665   32.7132 C   0  0  0  0  0  0  0  0  0  0  0  0
   -3.0264   -2.0473   31.9451 C   0  0  0  0  0  0  0  0  0  0  0  0
   -2.2445   -0.6987   32.1334 C   0  0  0  0  0  0  0  0  0  0  0  0
   -1.6910    0.0045   30.7815 C   0  0  0  0  0  0  0  0  0  0  0  0
   -0.3599   -0.2938   30.1056 N   0  0  0  0  0  0  0  0  0  0  0  0
    0.4618    0.5266   29.1664 C   0  0  0  0  0  0  0  0  0  0  0  0
    0.3099    1.6530   28.7798 O   0  0  0  0  0  0  0  0  0  0  0  0
    1.7860   -0.0943   28.5726 C   0  0  0  0  0  0  0  0  0  0  0  0
    2.4678   -1.1549   29.2031 C   0  0  0  0  0  0  0  0  0  0  0  0
    3.7256   -1.6174   28.7617 C   0  0  0  0  0  0  0  0  0  0  0  0
    4.6512   -2.8653   29.8544 Br  0  0  0  0  0  0  0  0  0  0  0  0
    4.3624   -1.1215   27.6263 C   0  0  0  0  0  0  0  0  0  0  0  0
    3.7087   -0.0806   26.9797 C   0  0  0  0  0  0  0  0  0  0  0  0
    4.0682    0.6296   25.8558 N   0  0  0  0  0  0  0  0  0  0  0  0
    3.1803    1.6479   25.7118 C   0  0  0  0  0  0  0  0  0  0  0  0
    2.2269    1.5813   26.6164 N   0  0  0  0  0  0  0  0  0  0  0  0
    2.4935    0.4792   27.4281 C   0  0  0  0  0  0  0  0  0  0  0  0
   -3.0452    0.1969   32.9989 N   0  0  0  0  0  0  0  0  0  0  0  0
   -3.9956    1.1143   32.6369 C   0  0  0  0  0  0  0  0  0  0  0  0
   -4.6275    1.5033   33.7965 C   0  0  0  0  0  0  0  0  0  0  0  0
   -3.9962    0.7734   34.8124 C   0  0  0  0  0  0  0  0  0  0  0  0
   -3.0343   -0.0220   34.3388 N   0  0  0  0  0  0  0  0  0  0  0  0
   -4.8495   -3.1665   32.3517 H   0  0  0  0  0  0  0  0  0  0  0  0
   -4.1702   -2.3986   33.7834 H   0  0  0  0  0  0  0  0  0  0  0  0
   -5.0648   -1.4532   32.5642 H   0  0  0  0  0  0  0  0  0  0  0  0
   -2.3411   -2.8550   32.2349 H   0  0  0  0  0  0  0  0  0  0  0  0
   -3.1957   -2.2159   30.8817 H   0  0  0  0  0  0  0  0  0  0  0  0
   -1.3465   -0.9132   32.7303 H   0  0  0  0  0  0  0  0  0  0  0  0
   -2.4392   -0.1181   29.9922 H   0  0  0  0  0  0  0  0  0  0  0  0
   -1.6367    1.0846   30.9676 H   0  0  0  0  0  0  0  0  0  0  0  0
    0.0150   -1.2313   30.1422 H   0  0  0  0  0  0  0  0  0  0  0  0
    2.0643   -1.5731   30.1210 H   0  0  0  0  0  0  0  0  0  0  0  0
    5.3408   -1.4562   27.3153 H   0  0  0  0  0  0  0  0  0  0  0  0
    4.8301    0.4230   25.2258 H   0  0  0  0  0  0  0  0  0  0  0  0
    3.2517    2.3780   24.9172 H   0  0  0  0  0  0  0  0  0  0  0  0
   -4.1532    1.4045   31.6077 H   0  0  0  0  0  0  0  0  0  0  0  0
   -5.4241    2.2215   33.8917 H   0  0  0  0  0  0  0  0  0  0  0  0
   -4.1879    0.7884   35.8774 H   0  0  0  0  0  0  0  0  0  0  0  0
  1  2  1  0
  2  3  1  0
  3  4  1  0
  4  5  1  0
  5  6  1  0
  6  7  2  0
  6  8  1  0
  8  9  2  0
  9 10  1  0
 10 11  1  0
 10 12  2  0
 12 13  1  0
 13 14  1  0
 14 15  1  0
 15 16  2  0
 16 17  1  0
  3 18  1  0
 18 19  1  0
 19 20  2  0
 20 21  1  0
 21 22  2  0
 17  8  1  0
 22 18  1  0
 17 13  2  0
  1 23  1  0
  1 24  1  0
  1 25  1  0
  2 26  1  0
  2 27  1  0
  3 28  1  0
  4 29  1  0
  4 30  1  0
  5 31  1  0
  9 32  1  0
 12 33  1  0
 14 34  1  0
 15 35  1  0
 19 36  1  0
 20 37  1  0
 21 38  1  0
M  END
>  <Energy>  (108) 
70.145599968157754

>  <compound_id>  (108) 
10898

>  <target_id>  (108) 
1

>  <reference_id>  (108) 
7

>  <inspiration_ids>  (108) 
[55, 7]

>  <energy_score>  (108) 
21.956221987264485

>  <distance_score>  (108) 
12.578182340259763

>  <path>  (108) 
/opt/xchem-fragalysis-2/maxwin/BulkDock/SCRATCH/511013/C10898-P7/C10898-P7.minimised.mol

>  <scratch_subdir>  (108) 
/opt/xchem-fragalysis-2/maxwin/BulkDock/SCRATCH/511013/C10898-P7

>  <fragmenstein_runtime>  (108) 
10.993130922317505

>  <fragmenstein_outcome>  (108) 
too moved

>  <fragmenstein_mode>  (108) 
expansion

>  <fragmenstein_error>  (108) 


$$$$
C10903-P55
     RDKit          3D

 45 48  0  0  0  0  0  0  0  0999 V2000
    5.8156    0.3323   28.1442 O   0  0  0  0  0  0  0  0  0  0  0  0
    5.4934    0.1146   27.0106 C   0  0  0  0  0  0  0  0  0  0  0  0
    4.0345   -0.3306   26.6834 C   0  0  0  0  0  0  0  0  0  0  0  0
    2.9730   -0.3533   27.7924 C   0  0  0  0  0  0  0  0  0  0  0  0
    2.0777   -1.4407   27.8837 C   0  0  0  0  0  0  0  0  0  0  0  0
    0.9709   -1.4559   28.7762 C   0  0  0  0  0  0  0  0  0  0  0  0
    0.7009   -0.3703   29.6199 C   0  0  0  0  0  0  0  0  0  0  0  0
   -0.4538   -0.3892   30.5033 N   0  0  0  0  0  0  0  0  0  0  0  0
   -0.8968    0.6093   31.3650 C   0  0  0  0  0  0  0  0  0  0  0  0
   -2.0153    0.1439   32.0208 C   0  0  0  0  0  0  0  0  0  0  0  0
   -2.2025   -1.1443   31.5087 C   0  0  0  0  0  0  0  0  0  0  0  0
   -1.2833   -1.4758   30.5982 N   0  0  0  0  0  0  0  0  0  0  0  0
    1.5902    0.7187   29.5474 C   0  0  0  0  0  0  0  0  0  0  0  0
    2.7009    0.7251   28.6474 C   0  0  0  0  0  0  0  0  0  0  0  0
    6.2630    0.2049   25.7653 N   0  0  0  0  0  0  0  0  0  0  0  0
    7.6420    0.6853   25.5097 C   0  0  0  0  0  0  0  0  0  0  0  0
    8.2853    0.2084   24.1824 C   0  0  0  0  0  0  0  0  0  0  0  0
    9.5983    0.8640   23.8259 C   0  0  0  0  0  0  0  0  0  0  0  0
    9.7632    2.0370   23.2378 N   0  0  0  0  0  0  0  0  0  0  0  0
   11.0988    2.1041   22.8845 C   0  0  0  0  0  0  0  0  0  0  0  0
   11.8015    3.0703   22.1507 C   0  0  0  0  0  0  0  0  0  0  0  0
   13.1314    2.8138   21.7829 C   0  0  0  0  0  0  0  0  0  0  0  0
   13.7765    1.6493   22.1966 C   0  0  0  0  0  0  0  0  0  0  0  0
   13.1180    0.7149   22.9984 C   0  0  0  0  0  0  0  0  0  0  0  0
   11.7734    0.9689   23.2986 C   0  0  0  0  0  0  0  0  0  0  0  0
   10.8142    0.2206   23.9398 N   0  0  0  0  0  0  0  0  0  0  0  0
    3.6451    0.3275   25.8990 H   0  0  0  0  0  0  0  0  0  0  0  0
    4.1156   -1.3386   26.2568 H   0  0  0  0  0  0  0  0  0  0  0  0
    2.2008   -2.2957   27.2181 H   0  0  0  0  0  0  0  0  0  0  0  0
    0.3129   -2.3243   28.7664 H   0  0  0  0  0  0  0  0  0  0  0  0
   -0.3729    1.5495   31.4359 H   0  0  0  0  0  0  0  0  0  0  0  0
   -2.5978    0.6599   32.7684 H   0  0  0  0  0  0  0  0  0  0  0  0
   -2.9700   -1.8659   31.7561 H   0  0  0  0  0  0  0  0  0  0  0  0
    1.4541    1.6000   30.1682 H   0  0  0  0  0  0  0  0  0  0  0  0
    3.3398    1.6073   28.6193 H   0  0  0  0  0  0  0  0  0  0  0  0
    5.6418    0.0263   24.9750 H   0  0  0  0  0  0  0  0  0  0  0  0
    7.5860    1.7798   25.5261 H   0  0  0  0  0  0  0  0  0  0  0  0
    8.2562    0.3875   26.3668 H   0  0  0  0  0  0  0  0  0  0  0  0
    7.5886    0.3890   23.3556 H   0  0  0  0  0  0  0  0  0  0  0  0
    8.4158   -0.8799   24.2298 H   0  0  0  0  0  0  0  0  0  0  0  0
   11.3046    3.9762   21.8228 H   0  0  0  0  0  0  0  0  0  0  0  0
   13.6602    3.5371   21.1667 H   0  0  0  0  0  0  0  0  0  0  0  0
   14.8072    1.4694   21.9003 H   0  0  0  0  0  0  0  0  0  0  0  0
   13.6068   -0.2025   23.3094 H   0  0  0  0  0  0  0  0  0  0  0  0
   10.9649   -0.7188   24.2773 H   0  0  0  0  0  0  0  0  0  0  0  0
  1  2  2  0
  2  3  1  0
  3  4  1  0
  4  5  2  0
  5  6  1  0
  6  7  2  0
  7  8  1  0
  8  9  1  0
  9 10  2  0
 10 11  1  0
 11 12  2  0
  7 13  1  0
 13 14  2  0
  2 15  1  0
 15 16  1  0
 16 17  1  0
 17 18  1  0
 18 19  2  0
 19 20  1  0
 20 21  2  0
 21 22  1  0
 22 23  2  0
 23 24  1  0
 24 25  2  0
 25 26  1  0
 14  4  1  0
 26 18  1  0
 12  8  1  0
 25 20  1  0
  3 27  1  0
  3 28  1  0
  5 29  1  0
  6 30  1  0
  9 31  1  0
 10 32  1  0
 11 33  1  0
 13 34  1  0
 14 35  1  0
 15 36  1  0
 16 37  1  0
 16 38  1  0
 17 39  1  0
 17 40  1  0
 21 41  1  0
 22 42  1  0
 23 43  1  0
 24 44  1  0
 26 45  1  0
M  END
>  <Energy>  (109) 
75.750705225890428

>  <compound_id>  (109) 
10903

>  <target_id>  (109) 
1

>  <reference_id>  (109) 
55

>  <inspiration_ids>  (109) 
[55, 7]

>  <energy_score>  (109) 
-24.8858563378146

>  <distance_score>  (109) 
11.017501405324769

>  <path>  (109) 
/opt/xchem-fragalysis-2/maxwin/BulkDock/SCRATCH/511013/C10903-P55/C10903-P55.minimised.mol

>  <scratch_subdir>  (109) 
/opt/xchem-fragalysis-2/maxwin/BulkDock/SCRATCH/511013/C10903-P55

>  <fragmenstein_runtime>  (109) 
7.477588176727295

>  <fragmenstein_outcome>  (109) 
too moved

>  <fragmenstein_mode>  (109) 
expansion

>  <fragmenstein_error>  (109) 


$$$$
C10903-P7
     RDKit          3D

 45 48  0  0  0  0  0  0  0  0999 V2000
    5.7854    0.4402   27.9210 O   0  0  0  0  0  0  0  0  0  0  0  0
    5.4121    0.4604   26.7822 C   0  0  0  0  0  0  0  0  0  0  0  0
    3.9114    0.2227   26.4533 C   0  0  0  0  0  0  0  0  0  0  0  0
    2.9023    0.0926   27.6031 C   0  0  0  0  0  0  0  0  0  0  0  0
    2.0791   -1.0474   27.7089 C   0  0  0  0  0  0  0  0  0  0  0  0
    1.0027   -1.1344   28.6346 C   0  0  0  0  0  0  0  0  0  0  0  0
    0.7059   -0.0803   29.5098 C   0  0  0  0  0  0  0  0  0  0  0  0
   -0.4220   -0.1699   30.4230 N   0  0  0  0  0  0  0  0  0  0  0  0
   -0.8526    0.7680   31.3559 C   0  0  0  0  0  0  0  0  0  0  0  0
   -1.9466    0.2487   32.0129 C   0  0  0  0  0  0  0  0  0  0  0  0
   -2.1348   -1.0067   31.4255 C   0  0  0  0  0  0  0  0  0  0  0  0
   -1.2364   -1.2698   30.4730 N   0  0  0  0  0  0  0  0  0  0  0  0
    1.5421    1.0499   29.4396 C   0  0  0  0  0  0  0  0  0  0  0  0
    2.6158    1.1327   28.5009 C   0  0  0  0  0  0  0  0  0  0  0  0
    6.1562    0.6720   25.5384 N   0  0  0  0  0  0  0  0  0  0  0  0
    7.5703    1.0210   25.3071 C   0  0  0  0  0  0  0  0  0  0  0  0
    8.1107    0.7208   23.8886 C   0  0  0  0  0  0  0  0  0  0  0  0
    9.5696    1.0497   23.6870 C   0  0  0  0  0  0  0  0  0  0  0  0
   10.0638    2.0945   23.0466 N   0  0  0  0  0  0  0  0  0  0  0  0
   11.4271    1.8816   22.9539 C   0  0  0  0  0  0  0  0  0  0  0  0
   12.4341    2.6271   22.3199 C   0  0  0  0  0  0  0  0  0  0  0  0
   13.7277    2.0942   22.2288 C   0  0  0  0  0  0  0  0  0  0  0  0
   14.0392    0.8773   22.8309 C   0  0  0  0  0  0  0  0  0  0  0  0
   13.0763    0.1696   23.5555 C   0  0  0  0  0  0  0  0  0  0  0  0
   11.7767    0.6930   23.5713 C   0  0  0  0  0  0  0  0  0  0  0  0
   10.5906    0.2042   24.0661 N   0  0  0  0  0  0  0  0  0  0  0  0
    3.5671    1.0488   25.8179 H   0  0  0  0  0  0  0  0  0  0  0  0
    3.8710   -0.6916   25.8470 H   0  0  0  0  0  0  0  0  0  0  0  0
    2.2290   -1.8863   27.0280 H   0  0  0  0  0  0  0  0  0  0  0  0
    0.3914   -2.0364   28.6286 H   0  0  0  0  0  0  0  0  0  0  0  0
   -0.3321    1.7051   31.4765 H   0  0  0  0  0  0  0  0  0  0  0  0
   -2.5093    0.7071   32.8116 H   0  0  0  0  0  0  0  0  0  0  0  0
   -2.8854   -1.7534   31.6494 H   0  0  0  0  0  0  0  0  0  0  0  0
    1.3853    1.9090   30.0860 H   0  0  0  0  0  0  0  0  0  0  0  0
    3.2102    2.0453   28.4710 H   0  0  0  0  0  0  0  0  0  0  0  0
    5.5006    0.7062   24.7597 H   0  0  0  0  0  0  0  0  0  0  0  0
    7.6632    2.0913   25.5241 H   0  0  0  0  0  0  0  0  0  0  0  0
    8.1580    0.4928   26.0665 H   0  0  0  0  0  0  0  0  0  0  0  0
    7.5191    1.2838   23.1560 H   0  0  0  0  0  0  0  0  0  0  0  0
    7.9490   -0.3402   23.6600 H   0  0  0  0  0  0  0  0  0  0  0  0
   12.2024    3.5818   21.8622 H   0  0  0  0  0  0  0  0  0  0  0  0
   14.4948    2.6468   21.6923 H   0  0  0  0  0  0  0  0  0  0  0  0
   15.0480    0.4789   22.7524 H   0  0  0  0  0  0  0  0  0  0  0  0
   13.3100   -0.7856   24.0136 H   0  0  0  0  0  0  0  0  0  0  0  0
   10.4866   -0.6924   24.5186 H   0  0  0  0  0  0  0  0  0  0  0  0
  1  2  2  0
  2  3  1  0
  3  4  1  0
  4  5  2  0
  5  6  1  0
  6  7  2  0
  7  8  1  0
  8  9  1  0
  9 10  2  0
 10 11  1  0
 11 12  2  0
  7 13  1  0
 13 14  2  0
  2 15  1  0
 15 16  1  0
 16 17  1  0
 17 18  1  0
 18 19  2  0
 19 20  1  0
 20 21  2  0
 21 22  1  0
 22 23  2  0
 23 24  1  0
 24 25  2  0
 25 26  1  0
 14  4  1  0
 26 18  1  0
 12  8  1  0
 25 20  1  0
  3 27  1  0
  3 28  1  0
  5 29  1  0
  6 30  1  0
  9 31  1  0
 10 32  1  0
 11 33  1  0
 13 34  1  0
 14 35  1  0
 15 36  1  0
 16 37  1  0
 16 38  1  0
 17 39  1  0
 17 40  1  0
 21 41  1  0
 22 42  1  0
 23 43  1  0
 24 44  1  0
 26 45  1  0
M  END
>  <Energy>  (110) 
74.679527164877129

>  <compound_id>  (110) 
10903

>  <target_id>  (110) 
1

>  <reference_id>  (110) 
7

>  <inspiration_ids>  (110) 
[55, 7]

>  <energy_score>  (110) 
-25.95703439882837

>  <distance_score>  (110) 
10.983114182184588

>  <path>  (110) 
/opt/xchem-fragalysis-2/maxwin/BulkDock/SCRATCH/511013/C10903-P7/C10903-P7.minimised.mol

>  <scratch_subdir>  (110) 
/opt/xchem-fragalysis-2/maxwin/BulkDock/SCRATCH/511013/C10903-P7

>  <fragmenstein_runtime>  (110) 
7.3402063846588135

>  <fragmenstein_outcome>  (110) 
too moved

>  <fragmenstein_mode>  (110) 
expansion

>  <fragmenstein_error>  (110) 


$$$$
C10911-P55
     RDKit          3D

 45 48  0  0  0  0  0  0  0  0999 V2000
   -0.4656    0.5055   27.5492 O   0  0  0  0  0  0  0  0  0  0  0  0
    0.1009   -0.3225   28.2091 C   0  0  0  0  0  0  0  0  0  0  0  0
   -0.4035   -1.2298   29.2251 N   0  0  0  0  0  0  0  0  0  0  0  0
   -1.7885   -1.4896   29.6978 C   0  0  0  0  0  0  0  0  0  0  0  0
   -2.1272   -1.1006   31.1681 C   0  0  0  0  0  0  0  0  0  0  0  0
   -3.5612   -1.4348   31.6755 C   0  0  0  0  0  0  0  0  0  0  0  0
   -4.6113   -0.6997   30.9996 N   0  0  0  0  0  0  0  0  0  0  0  0
   -4.7969    0.6543   31.0641 C   0  0  0  0  0  0  0  0  0  0  0  0
   -5.5224    1.0888   30.0563 N   0  0  0  0  0  0  0  0  0  0  0  0
   -5.9003   -0.0426   29.3778 C   0  0  0  0  0  0  0  0  0  0  0  0
   -6.6412   -0.1705   28.1926 C   0  0  0  0  0  0  0  0  0  0  0  0
   -6.9505   -1.4560   27.7292 C   0  0  0  0  0  0  0  0  0  0  0  0
   -6.5504   -2.5871   28.4469 C   0  0  0  0  0  0  0  0  0  0  0  0
   -5.7730   -2.4805   29.6051 C   0  0  0  0  0  0  0  0  0  0  0  0
   -5.4456   -1.1894   30.0271 C   0  0  0  0  0  0  0  0  0  0  0  0
    1.6073   -0.4467   27.8514 C   0  0  0  0  0  0  0  0  0  0  0  0
    2.2495    0.6755   27.2687 C   0  0  0  0  0  0  0  0  0  0  0  0
    3.5822    0.6454   26.8049 C   0  0  0  0  0  0  0  0  0  0  0  0
    4.3449   -0.5074   26.9786 C   0  0  0  0  0  0  0  0  0  0  0  0
    5.7340   -0.5033   26.6921 N   0  0  0  0  0  0  0  0  0  0  0  0
    6.4254    0.3730   25.8778 C   0  0  0  0  0  0  0  0  0  0  0  0
    7.7586    0.0571   25.9808 C   0  0  0  0  0  0  0  0  0  0  0  0
    7.7955   -1.0010   26.8994 C   0  0  0  0  0  0  0  0  0  0  0  0
    6.5873   -1.3268   27.3577 N   0  0  0  0  0  0  0  0  0  0  0  0
    3.7319   -1.6433   27.5264 C   0  0  0  0  0  0  0  0  0  0  0  0
    2.3696   -1.6222   27.9270 C   0  0  0  0  0  0  0  0  0  0  0  0
    0.3735   -1.7332   29.6331 H   0  0  0  0  0  0  0  0  0  0  0  0
   -2.4578   -0.9579   29.0138 H   0  0  0  0  0  0  0  0  0  0  0  0
   -1.9526   -2.5640   29.5653 H   0  0  0  0  0  0  0  0  0  0  0  0
   -1.9362   -0.0270   31.2903 H   0  0  0  0  0  0  0  0  0  0  0  0
   -1.4110   -1.6123   31.8233 H   0  0  0  0  0  0  0  0  0  0  0  0
   -3.7540   -2.5071   31.5727 H   0  0  0  0  0  0  0  0  0  0  0  0
   -3.6408   -1.1867   32.7404 H   0  0  0  0  0  0  0  0  0  0  0  0
   -4.3272    1.2786   31.8133 H   0  0  0  0  0  0  0  0  0  0  0  0
   -6.9804    0.7144   27.6671 H   0  0  0  0  0  0  0  0  0  0  0  0
   -7.5375   -1.5679   26.8212 H   0  0  0  0  0  0  0  0  0  0  0  0
   -6.8335   -3.5713   28.0835 H   0  0  0  0  0  0  0  0  0  0  0  0
   -5.4204   -3.3621   30.1260 H   0  0  0  0  0  0  0  0  0  0  0  0
    1.6849    1.6002   27.1481 H   0  0  0  0  0  0  0  0  0  0  0  0
    3.9958    1.5547   26.3802 H   0  0  0  0  0  0  0  0  0  0  0  0
    5.9099    1.1025   25.2715 H   0  0  0  0  0  0  0  0  0  0  0  0
    8.5840    0.5214   25.4616 H   0  0  0  0  0  0  0  0  0  0  0  0
    8.6551   -1.5484   27.2627 H   0  0  0  0  0  0  0  0  0  0  0  0
    4.3013   -2.5646   27.6320 H   0  0  0  0  0  0  0  0  0  0  0  0
    1.9227   -2.5479   28.2758 H   0  0  0  0  0  0  0  0  0  0  0  0
  1  2  2  0
  2  3  1  0
  3  4  1  0
  4  5  1  0
  5  6  1  0
  6  7  1  0
  7  8  1  0
  8  9  2  0
  9 10  1  0
 10 11  2  0
 11 12  1  0
 12 13  2  0
 13 14  1  0
 14 15  2  0
  2 16  1  0
 16 17  2  0
 17 18  1  0
 18 19  2  0
 19 20  1  0
 20 21  1  0
 21 22  2  0
 22 23  1  0
 23 24  2  0
 19 25  1  0
 25 26  2  0
 15  7  1  0
 26 16  1  0
 15 10  1  0
 24 20  1  0
  3 27  1  0
  4 28  1  0
  4 29  1  0
  5 30  1  0
  5 31  1  0
  6 32  1  0
  6 33  1  0
  8 34  1  0
 11 35  1  0
 12 36  1  0
 13 37  1  0
 14 38  1  0
 17 39  1  0
 18 40  1  0
 21 41  1  0
 22 42  1  0
 23 43  1  0
 25 44  1  0
 26 45  1  0
M  END
>  <Energy>  (111) 
64.420662087438259

>  <compound_id>  (111) 
10911

>  <target_id>  (111) 
1

>  <reference_id>  (111) 
55

>  <inspiration_ids>  (111) 
[55, 7]

>  <energy_score>  (111) 
-8.466321285325705

>  <distance_score>  (111) 
13.334299615802248

>  <path>  (111) 
/opt/xchem-fragalysis-2/maxwin/BulkDock/SCRATCH/511013/C10911-P55/C10911-P55.minimised.mol

>  <scratch_subdir>  (111) 
/opt/xchem-fragalysis-2/maxwin/BulkDock/SCRATCH/511013/C10911-P55

>  <fragmenstein_runtime>  (111) 
13.290628671646118

>  <fragmenstein_outcome>  (111) 
too moved

>  <fragmenstein_mode>  (111) 
expansion

>  <fragmenstein_error>  (111) 


$$$$
C10911-P7
     RDKit          3D

 45 48  0  0  0  0  0  0  0  0999 V2000
   -1.7297    0.2299   27.5242 O   0  0  0  0  0  0  0  0  0  0  0  0
   -1.2323   -0.4513   28.3794 C   0  0  0  0  0  0  0  0  0  0  0  0
   -1.8203   -1.0779   29.5535 N   0  0  0  0  0  0  0  0  0  0  0  0
   -3.2260   -1.1553   30.0092 C   0  0  0  0  0  0  0  0  0  0  0  0
   -3.4692   -1.2442   31.5407 C   0  0  0  0  0  0  0  0  0  0  0  0
   -4.9624   -1.3330   31.9770 C   0  0  0  0  0  0  0  0  0  0  0  0
   -5.1606   -1.3190   33.4235 N   0  0  0  0  0  0  0  0  0  0  0  0
   -4.3883   -2.0090   34.3197 C   0  0  0  0  0  0  0  0  0  0  0  0
   -4.6721   -1.6986   35.5607 N   0  0  0  0  0  0  0  0  0  0  0  0
   -5.7287   -0.8311   35.4785 C   0  0  0  0  0  0  0  0  0  0  0  0
   -6.4397   -0.2096   36.5169 C   0  0  0  0  0  0  0  0  0  0  0  0
   -7.5071    0.6314   36.1946 C   0  0  0  0  0  0  0  0  0  0  0  0
   -7.8579    0.8434   34.8632 C   0  0  0  0  0  0  0  0  0  0  0  0
   -7.1633    0.2245   33.8132 C   0  0  0  0  0  0  0  0  0  0  0  0
   -6.0911   -0.6063   34.1506 C   0  0  0  0  0  0  0  0  0  0  0  0
    0.2772   -0.6735   28.1871 C   0  0  0  0  0  0  0  0  0  0  0  0
    1.0693    0.3734   27.6590 C   0  0  0  0  0  0  0  0  0  0  0  0
    2.4543    0.2278   27.4178 C   0  0  0  0  0  0  0  0  0  0  0  0
    3.0843   -0.9751   27.7388 C   0  0  0  0  0  0  0  0  0  0  0  0
    4.4985   -1.0875   27.7330 N   0  0  0  0  0  0  0  0  0  0  0  0
    5.4132   -0.2429   27.1397 C   0  0  0  0  0  0  0  0  0  0  0  0
    6.6625   -0.6687   27.5213 C   0  0  0  0  0  0  0  0  0  0  0  0
    6.4172   -1.7644   28.3609 C   0  0  0  0  0  0  0  0  0  0  0  0
    5.1165   -2.0156   28.5166 N   0  0  0  0  0  0  0  0  0  0  0  0
    2.3033   -2.0467   28.1955 C   0  0  0  0  0  0  0  0  0  0  0  0
    0.9125   -1.9027   28.3983 C   0  0  0  0  0  0  0  0  0  0  0  0
   -1.0849   -1.5121   30.1000 H   0  0  0  0  0  0  0  0  0  0  0  0
   -3.7443   -0.2828   29.5970 H   0  0  0  0  0  0  0  0  0  0  0  0
   -3.6492   -2.0418   29.5243 H   0  0  0  0  0  0  0  0  0  0  0  0
   -3.0077   -0.3688   32.0158 H   0  0  0  0  0  0  0  0  0  0  0  0
   -2.9208   -2.1173   31.9143 H   0  0  0  0  0  0  0  0  0  0  0  0
   -5.5143   -0.4863   31.5561 H   0  0  0  0  0  0  0  0  0  0  0  0
   -5.4131   -2.2596   31.6075 H   0  0  0  0  0  0  0  0  0  0  0  0
   -3.6116   -2.7011   34.0226 H   0  0  0  0  0  0  0  0  0  0  0  0
   -6.1506   -0.3802   37.5479 H   0  0  0  0  0  0  0  0  0  0  0  0
   -8.0551    1.1343   36.9870 H   0  0  0  0  0  0  0  0  0  0  0  0
   -8.6696    1.5278   34.6240 H   0  0  0  0  0  0  0  0  0  0  0  0
   -7.4320    0.4247   32.7826 H   0  0  0  0  0  0  0  0  0  0  0  0
    0.5971    1.3286   27.4330 H   0  0  0  0  0  0  0  0  0  0  0  0
    3.0039    1.0871   27.0466 H   0  0  0  0  0  0  0  0  0  0  0  0
    5.1055    0.5479   26.4730 H   0  0  0  0  0  0  0  0  0  0  0  0
    7.6140   -0.2579   27.2185 H   0  0  0  0  0  0  0  0  0  0  0  0
    7.1347   -2.3976   28.8648 H   0  0  0  0  0  0  0  0  0  0  0  0
    2.7675   -3.0043   28.4195 H   0  0  0  0  0  0  0  0  0  0  0  0
    0.3393   -2.7677   28.7197 H   0  0  0  0  0  0  0  0  0  0  0  0
  1  2  2  0
  2  3  1  0
  3  4  1  0
  4  5  1  0
  5  6  1  0
  6  7  1  0
  7  8  1  0
  8  9  2  0
  9 10  1  0
 10 11  2  0
 11 12  1  0
 12 13  2  0
 13 14  1  0
 14 15  2  0
  2 16  1  0
 16 17  2  0
 17 18  1  0
 18 19  2  0
 19 20  1  0
 20 21  1  0
 21 22  2  0
 22 23  1  0
 23 24  2  0
 19 25  1  0
 25 26  2  0
 15  7  1  0
 26 16  1  0
 15 10  1  0
 24 20  1  0
  3 27  1  0
  4 28  1  0
  4 29  1  0
  5 30  1  0
  5 31  1  0
  6 32  1  0
  6 33  1  0
  8 34  1  0
 11 35  1  0
 12 36  1  0
 13 37  1  0
 14 38  1  0
 17 39  1  0
 18 40  1  0
 21 41  1  0
 22 42  1  0
 23 43  1  0
 25 44  1  0
 26 45  1  0
M  END
>  <Energy>  (112) 
61.5213627438537

>  <compound_id>  (112) 
10911

>  <target_id>  (112) 
1

>  <reference_id>  (112) 
7

>  <inspiration_ids>  (112) 
[55, 7]

>  <energy_score>  (112) 
-11.365620628909937

>  <distance_score>  (112) 
12.922335811584157

>  <path>  (112) 
/opt/xchem-fragalysis-2/maxwin/BulkDock/SCRATCH/511013/C10911-P7/C10911-P7.minimised.mol

>  <scratch_subdir>  (112) 
/opt/xchem-fragalysis-2/maxwin/BulkDock/SCRATCH/511013/C10911-P7

>  <fragmenstein_runtime>  (112) 
14.66859745979309

>  <fragmenstein_outcome>  (112) 
too moved

>  <fragmenstein_mode>  (112) 
expansion

>  <fragmenstein_error>  (112) 


$$$$
C10912-P55
     RDKit          3D

 45 48  0  0  0  0  0  0  0  0999 V2000
    1.3661   -2.4322   31.2753 O   0  0  0  0  0  0  0  0  0  0  0  0
    1.0211   -1.6076   30.4713 C   0  0  0  0  0  0  0  0  0  0  0  0
   -0.5022   -1.1348   30.4525 C   0  0  0  0  0  0  0  0  0  0  0  0
   -1.4975   -1.6654   31.5826 C   0  0  0  0  0  0  0  0  0  0  0  0
   -2.9554   -1.1391   31.4100 C   0  0  0  0  0  0  0  0  0  0  0  0
   -3.9470   -1.3848   32.4530 N   0  0  0  0  0  0  0  0  0  0  0  0
   -3.8718   -1.0376   33.7775 C   0  0  0  0  0  0  0  0  0  0  0  0
   -5.1491   -1.1274   34.2854 C   0  0  0  0  0  0  0  0  0  0  0  0
   -5.9332   -1.5307   33.1938 C   0  0  0  0  0  0  0  0  0  0  0  0
   -5.2066   -1.7244   32.0897 N   0  0  0  0  0  0  0  0  0  0  0  0
    1.7999   -0.8815   29.4361 N   0  0  0  0  0  0  0  0  0  0  0  0
    3.1708   -1.0140   29.0235 C   0  0  0  0  0  0  0  0  0  0  0  0
    4.0559   -1.9763   29.5015 C   0  0  0  0  0  0  0  0  0  0  0  0
    5.3994   -2.0771   28.9999 C   0  0  0  0  0  0  0  0  0  0  0  0
    5.9318   -1.2040   28.0167 C   0  0  0  0  0  0  0  0  0  0  0  0
    7.2812   -1.4049   27.4578 N   0  0  0  0  0  0  0  0  0  0  0  0
    7.9723   -2.6051   27.5332 C   0  0  0  0  0  0  0  0  0  0  0  0
    9.0944   -2.6352   26.8556 N   0  0  0  0  0  0  0  0  0  0  0  0
    9.2231   -1.3878   26.3385 C   0  0  0  0  0  0  0  0  0  0  0  0
   10.2678   -0.9010   25.5271 C   0  0  0  0  0  0  0  0  0  0  0  0
   10.2998    0.4503   25.2032 C   0  0  0  0  0  0  0  0  0  0  0  0
    9.3079    1.2946   25.6970 C   0  0  0  0  0  0  0  0  0  0  0  0
    8.2323    0.8148   26.4782 C   0  0  0  0  0  0  0  0  0  0  0  0
    8.1698   -0.5590   26.7581 C   0  0  0  0  0  0  0  0  0  0  0  0
    5.0529   -0.2165   27.5634 C   0  0  0  0  0  0  0  0  0  0  0  0
    3.6991   -0.1387   28.0488 C   0  0  0  0  0  0  0  0  0  0  0  0
   -0.4977   -0.0390   30.5000 H   0  0  0  0  0  0  0  0  0  0  0  0
   -0.9072   -1.4308   29.4770 H   0  0  0  0  0  0  0  0  0  0  0  0
   -1.4987   -2.7616   31.5730 H   0  0  0  0  0  0  0  0  0  0  0  0
   -1.1007   -1.3594   32.5574 H   0  0  0  0  0  0  0  0  0  0  0  0
   -2.9286   -0.0484   31.2928 H   0  0  0  0  0  0  0  0  0  0  0  0
   -3.3614   -1.5516   30.4779 H   0  0  0  0  0  0  0  0  0  0  0  0
   -2.9395   -0.7266   34.2271 H   0  0  0  0  0  0  0  0  0  0  0  0
   -5.4672   -0.9039   35.2927 H   0  0  0  0  0  0  0  0  0  0  0  0
   -7.0025   -1.6889   33.1488 H   0  0  0  0  0  0  0  0  0  0  0  0
    1.2031   -0.1972   28.9902 H   0  0  0  0  0  0  0  0  0  0  0  0
    3.7298   -2.6903   30.2552 H   0  0  0  0  0  0  0  0  0  0  0  0
    6.0088   -2.8707   29.4266 H   0  0  0  0  0  0  0  0  0  0  0  0
    7.5718   -3.4621   28.0526 H   0  0  0  0  0  0  0  0  0  0  0  0
   11.0521   -1.5772   25.2020 H   0  0  0  0  0  0  0  0  0  0  0  0
   11.1113    0.8428   24.5968 H   0  0  0  0  0  0  0  0  0  0  0  0
    9.3589    2.3586   25.4718 H   0  0  0  0  0  0  0  0  0  0  0  0
    7.4784    1.5005   26.8499 H   0  0  0  0  0  0  0  0  0  0  0  0
    5.3454    0.4665   26.7713 H   0  0  0  0  0  0  0  0  0  0  0  0
    3.0585    0.6255   27.6121 H   0  0  0  0  0  0  0  0  0  0  0  0
  1  2  2  0
  2  3  1  0
  3  4  1  0
  4  5  1  0
  5  6  1  0
  6  7  1  0
  7  8  2  0
  8  9  1  0
  9 10  2  0
  2 11  1  0
 11 12  1  0
 12 13  2  0
 13 14  1  0
 14 15  2  0
 15 16  1  0
 16 17  1  0
 17 18  2  0
 18 19  1  0
 19 20  2  0
 20 21  1  0
 21 22  2  0
 22 23  1  0
 23 24  2  0
 15 25  1  0
 25 26  2  0
 10  6  1  0
 26 12  1  0
 24 16  1  0
 24 19  1  0
  3 27  1  0
  3 28  1  0
  4 29  1  0
  4 30  1  0
  5 31  1  0
  5 32  1  0
  7 33  1  0
  8 34  1  0
  9 35  1  0
 11 36  1  0
 13 37  1  0
 14 38  1  0
 17 39  1  0
 20 40  1  0
 21 41  1  0
 22 42  1  0
 23 43  1  0
 25 44  1  0
 26 45  1  0
M  END
>  <Energy>  (113) 
68.188976107161508

>  <compound_id>  (113) 
10912

>  <target_id>  (113) 
1

>  <reference_id>  (113) 
55

>  <inspiration_ids>  (113) 
[55, 7]

>  <energy_score>  (113) 
-13.077279978586262

>  <distance_score>  (113) 
11.461678061279569

>  <path>  (113) 
/opt/xchem-fragalysis-2/maxwin/BulkDock/SCRATCH/511013/C10912-P55/C10912-P55.minimised.mol

>  <scratch_subdir>  (113) 
/opt/xchem-fragalysis-2/maxwin/BulkDock/SCRATCH/511013/C10912-P55

>  <fragmenstein_runtime>  (113) 
10.615656614303589

>  <fragmenstein_outcome>  (113) 
too moved

>  <fragmenstein_mode>  (113) 
expansion

>  <fragmenstein_error>  (113) 


$$$$
C10912-P7
     RDKit          3D

 45 48  0  0  0  0  0  0  0  0999 V2000
   -3.5587    1.9021   27.8923 O   0  0  0  0  0  0  0  0  0  0  0  0
   -2.6719    1.4475   28.5608 C   0  0  0  0  0  0  0  0  0  0  0  0
   -2.9962    0.6289   29.8831 C   0  0  0  0  0  0  0  0  0  0  0  0
   -4.4406    0.6731   30.5225 C   0  0  0  0  0  0  0  0  0  0  0  0
   -4.5879   -0.3416   31.6940 C   0  0  0  0  0  0  0  0  0  0  0  0
   -5.6741   -0.1526   32.6463 N   0  0  0  0  0  0  0  0  0  0  0  0
   -5.7176    0.7727   33.6594 C   0  0  0  0  0  0  0  0  0  0  0  0
   -6.7722    0.4247   34.4715 C   0  0  0  0  0  0  0  0  0  0  0  0
   -7.2768   -0.7493   33.8959 C   0  0  0  0  0  0  0  0  0  0  0  0
   -6.5965   -1.1235   32.8094 N   0  0  0  0  0  0  0  0  0  0  0  0
   -1.2116    1.4339   28.3409 N   0  0  0  0  0  0  0  0  0  0  0  0
   -0.4124    2.0352   27.3209 C   0  0  0  0  0  0  0  0  0  0  0  0
   -0.8612    2.7048   26.1758 C   0  0  0  0  0  0  0  0  0  0  0  0
    0.0597    3.2268   25.1914 C   0  0  0  0  0  0  0  0  0  0  0  0
    1.4540    3.1321   25.3620 C   0  0  0  0  0  0  0  0  0  0  0  0
    2.4355    3.7253   24.4582 N   0  0  0  0  0  0  0  0  0  0  0  0
    3.6541    4.2425   24.8827 C   0  0  0  0  0  0  0  0  0  0  0  0
    4.3401    4.8459   23.9365 N   0  0  0  0  0  0  0  0  0  0  0  0
    3.5470    4.7704   22.8313 C   0  0  0  0  0  0  0  0  0  0  0  0
    3.7867    5.3179   21.5546 C   0  0  0  0  0  0  0  0  0  0  0  0
    2.9388    4.9705   20.4998 C   0  0  0  0  0  0  0  0  0  0  0  0
    1.8625    4.1190   20.7306 C   0  0  0  0  0  0  0  0  0  0  0  0
    1.5515    3.6574   22.0225 C   0  0  0  0  0  0  0  0  0  0  0  0
    2.4027    3.9997   23.0833 C   0  0  0  0  0  0  0  0  0  0  0  0
    1.8918    2.4792   26.5266 C   0  0  0  0  0  0  0  0  0  0  0  0
    0.9799    1.9290   27.4657 C   0  0  0  0  0  0  0  0  0  0  0  0
   -2.2881    0.9625   30.6524 H   0  0  0  0  0  0  0  0  0  0  0  0
   -2.7629   -0.4180   29.6488 H   0  0  0  0  0  0  0  0  0  0  0  0
   -5.1927    0.4618   29.7539 H   0  0  0  0  0  0  0  0  0  0  0  0
   -4.6292    1.6933   30.8768 H   0  0  0  0  0  0  0  0  0  0  0  0
   -3.6710   -0.3311   32.2973 H   0  0  0  0  0  0  0  0  0  0  0  0
   -4.6803   -1.3536   31.2807 H   0  0  0  0  0  0  0  0  0  0  0  0
   -5.0059    1.5842   33.7056 H   0  0  0  0  0  0  0  0  0  0  0  0
   -7.1123    0.9340   35.3605 H   0  0  0  0  0  0  0  0  0  0  0  0
   -8.1028   -1.3617   34.2297 H   0  0  0  0  0  0  0  0  0  0  0  0
   -0.7703    0.8896   29.0723 H   0  0  0  0  0  0  0  0  0  0  0  0
   -1.9304    2.8405   26.0155 H   0  0  0  0  0  0  0  0  0  0  0  0
   -0.3561    3.7596   24.3378 H   0  0  0  0  0  0  0  0  0  0  0  0
    3.9728    4.1824   25.9146 H   0  0  0  0  0  0  0  0  0  0  0  0
    4.6525    5.9519   21.3931 H   0  0  0  0  0  0  0  0  0  0  0  0
    3.1284    5.3487   19.4986 H   0  0  0  0  0  0  0  0  0  0  0  0
    1.2182    3.8283   19.9015 H   0  0  0  0  0  0  0  0  0  0  0  0
    0.6651    3.0525   22.1661 H   0  0  0  0  0  0  0  0  0  0  0  0
    2.9523    2.3262   26.7227 H   0  0  0  0  0  0  0  0  0  0  0  0
    1.4001    1.4092   28.3260 H   0  0  0  0  0  0  0  0  0  0  0  0
  1  2  2  0
  2  3  1  0
  3  4  1  0
  4  5  1  0
  5  6  1  0
  6  7  1  0
  7  8  2  0
  8  9  1  0
  9 10  2  0
  2 11  1  0
 11 12  1  0
 12 13  2  0
 13 14  1  0
 14 15  2  0
 15 16  1  0
 16 17  1  0
 17 18  2  0
 18 19  1  0
 19 20  2  0
 20 21  1  0
 21 22  2  0
 22 23  1  0
 23 24  2  0
 15 25  1  0
 25 26  2  0
 10  6  1  0
 26 12  1  0
 24 16  1  0
 24 19  1  0
  3 27  1  0
  3 28  1  0
  4 29  1  0
  4 30  1  0
  5 31  1  0
  5 32  1  0
  7 33  1  0
  8 34  1  0
  9 35  1  0
 11 36  1  0
 13 37  1  0
 14 38  1  0
 17 39  1  0
 20 40  1  0
 21 41  1  0
 22 42  1  0
 23 43  1  0
 25 44  1  0
 26 45  1  0
M  END
>  <Energy>  (114) 
67.244837187412003

>  <compound_id>  (114) 
10912

>  <target_id>  (114) 
1

>  <reference_id>  (114) 
7

>  <inspiration_ids>  (114) 
[55, 7]

>  <energy_score>  (114) 
-14.021418898334673

>  <distance_score>  (114) 
11.730741285991424

>  <path>  (114) 
/opt/xchem-fragalysis-2/maxwin/BulkDock/SCRATCH/511013/C10912-P7/C10912-P7.minimised.mol

>  <scratch_subdir>  (114) 
/opt/xchem-fragalysis-2/maxwin/BulkDock/SCRATCH/511013/C10912-P7

>  <fragmenstein_runtime>  (114) 
10.317679405212402

>  <fragmenstein_outcome>  (114) 
too moved

>  <fragmenstein_mode>  (114) 
expansion

>  <fragmenstein_error>  (114) 


$$$$
C10913-P55
     RDKit          3D

 39 42  0  0  0  0  0  0  0  0999 V2000
   -1.1549    2.8768   23.3831 O   0  0  0  0  0  0  0  0  0  0  0  0
   -0.9472    4.0157   23.7178 C   0  0  0  0  0  0  0  0  0  0  0  0
   -1.6897    4.6679   24.9230 C   0  0  0  0  0  0  0  0  0  0  0  0
   -2.5177    3.8346   25.8299 N   0  0  0  0  0  0  0  0  0  0  0  0
   -3.8908    3.7078   25.7840 C   0  0  0  0  0  0  0  0  0  0  0  0
   -4.3061    3.2874   27.0263 C   0  0  0  0  0  0  0  0  0  0  0  0
   -3.1207    3.1670   27.7672 C   0  0  0  0  0  0  0  0  0  0  0  0
   -2.0372    3.5069   27.0598 N   0  0  0  0  0  0  0  0  0  0  0  0
   -0.0685    5.0678   23.1082 N   0  0  0  0  0  0  0  0  0  0  0  0
    0.8469    5.0030   22.0145 C   0  0  0  0  0  0  0  0  0  0  0  0
    1.0766    3.9167   21.1832 C   0  0  0  0  0  0  0  0  0  0  0  0
    2.0831    3.9356   20.1480 C   0  0  0  0  0  0  0  0  0  0  0  0
    2.9253    5.0417   19.9320 C   0  0  0  0  0  0  0  0  0  0  0  0
    4.1511    5.0122   19.0941 N   0  0  0  0  0  0  0  0  0  0  0  0
    5.1065    6.0265   19.0903 C   0  0  0  0  0  0  0  0  0  0  0  0
    6.2675    5.6805   18.5831 N   0  0  0  0  0  0  0  0  0  0  0  0
    6.0777    4.4175   18.1178 C   0  0  0  0  0  0  0  0  0  0  0  0
    7.0287    3.5808   17.5057 C   0  0  0  0  0  0  0  0  0  0  0  0
    6.6743    2.2798   17.1787 C   0  0  0  0  0  0  0  0  0  0  0  0
    5.3480    1.8821   17.3025 C   0  0  0  0  0  0  0  0  0  0  0  0
    4.3621    2.7399   17.8336 C   0  0  0  0  0  0  0  0  0  0  0  0
    4.7584    3.9896   18.3307 C   0  0  0  0  0  0  0  0  0  0  0  0
    2.6305    6.1641   20.7304 C   0  0  0  0  0  0  0  0  0  0  0  0
    1.6182    6.1415   21.7377 C   0  0  0  0  0  0  0  0  0  0  0  0
   -2.3636    5.4370   24.5263 H   0  0  0  0  0  0  0  0  0  0  0  0
   -0.9484    5.1596   25.5650 H   0  0  0  0  0  0  0  0  0  0  0  0
   -4.4430    3.9449   24.8845 H   0  0  0  0  0  0  0  0  0  0  0  0
   -5.3210    3.0944   27.3408 H   0  0  0  0  0  0  0  0  0  0  0  0
   -2.9955    2.8539   28.7958 H   0  0  0  0  0  0  0  0  0  0  0  0
   -0.1989    5.9405   23.6052 H   0  0  0  0  0  0  0  0  0  0  0  0
    0.5010    3.0081   21.3234 H   0  0  0  0  0  0  0  0  0  0  0  0
    2.2092    3.0028   19.6030 H   0  0  0  0  0  0  0  0  0  0  0  0
    4.9197    7.0007   19.5167 H   0  0  0  0  0  0  0  0  0  0  0  0
    8.0417    3.9376   17.3522 H   0  0  0  0  0  0  0  0  0  0  0  0
    7.4346    1.6028   16.8016 H   0  0  0  0  0  0  0  0  0  0  0  0
    5.0502    0.8795   16.9962 H   0  0  0  0  0  0  0  0  0  0  0  0
    3.3349    2.3951   17.9067 H   0  0  0  0  0  0  0  0  0  0  0  0
    3.1859    7.0940   20.6443 H   0  0  0  0  0  0  0  0  0  0  0  0
    1.4806    7.0455   22.3292 H   0  0  0  0  0  0  0  0  0  0  0  0
  1  2  2  0
  2  3  1  0
  3  4  1  0
  4  5  1  0
  5  6  2  0
  6  7  1  0
  7  8  2  0
  2  9  1  0
  9 10  1  0
 10 11  2  0
 11 12  1  0
 12 13  2  0
 13 14  1  0
 14 15  1  0
 15 16  2  0
 16 17  1  0
 17 18  2  0
 18 19  1  0
 19 20  2  0
 20 21  1  0
 21 22  2  0
 13 23  1  0
 23 24  2  0
  8  4  1  0
 24 10  1  0
 22 14  1  0
 22 17  1  0
  3 25  1  0
  3 26  1  0
  5 27  1  0
  6 28  1  0
  7 29  1  0
  9 30  1  0
 11 31  1  0
 12 32  1  0
 15 33  1  0
 18 34  1  0
 19 35  1  0
 20 36  1  0
 21 37  1  0
 23 38  1  0
 24 39  1  0
M  END
>  <Energy>  (115) 
87.79081459280313

>  <compound_id>  (115) 
10913

>  <target_id>  (115) 
1

>  <reference_id>  (115) 
55

>  <inspiration_ids>  (115) 
[55, 7]

>  <energy_score>  (115) 
-24.975931507304097

>  <distance_score>  (115) 
13.968937295772447

>  <path>  (115) 
/opt/xchem-fragalysis-2/maxwin/BulkDock/SCRATCH/511013/C10913-P55/C10913-P55.minimised.mol

>  <scratch_subdir>  (115) 
/opt/xchem-fragalysis-2/maxwin/BulkDock/SCRATCH/511013/C10913-P55

>  <fragmenstein_runtime>  (115) 
11.76911211013794

>  <fragmenstein_outcome>  (115) 
too moved

>  <fragmenstein_mode>  (115) 
expansion

>  <fragmenstein_error>  (115) 


$$$$
C10913-P7
     RDKit          3D

 39 42  0  0  0  0  0  0  0  0999 V2000
   -2.5004    2.4720   32.8643 O   0  0  0  0  0  0  0  0  0  0  0  0
   -2.8675    1.4733   32.3086 C   0  0  0  0  0  0  0  0  0  0  0  0
   -4.2501    0.8469   32.5984 C   0  0  0  0  0  0  0  0  0  0  0  0
   -4.8619    0.9782   33.9256 N   0  0  0  0  0  0  0  0  0  0  0  0
   -5.1123    2.1179   34.6413 C   0  0  0  0  0  0  0  0  0  0  0  0
   -5.9496    1.7637   35.6750 C   0  0  0  0  0  0  0  0  0  0  0  0
   -6.1727    0.3896   35.4963 C   0  0  0  0  0  0  0  0  0  0  0  0
   -5.5293   -0.0959   34.4319 N   0  0  0  0  0  0  0  0  0  0  0  0
   -2.2395    0.6882   31.2299 N   0  0  0  0  0  0  0  0  0  0  0  0
   -1.0761    0.9255   30.4719 C   0  0  0  0  0  0  0  0  0  0  0  0
   -0.2937    2.0824   30.5022 C   0  0  0  0  0  0  0  0  0  0  0  0
    0.8404    2.2247   29.6477 C   0  0  0  0  0  0  0  0  0  0  0  0
    1.2291    1.1839   28.7903 C   0  0  0  0  0  0  0  0  0  0  0  0
    2.3688    1.2637   27.9081 N   0  0  0  0  0  0  0  0  0  0  0  0
    2.8756    2.3805   27.2677 C   0  0  0  0  0  0  0  0  0  0  0  0
    3.6678    2.0699   26.2586 N   0  0  0  0  0  0  0  0  0  0  0  0
    3.7635    0.7003   26.3092 C   0  0  0  0  0  0  0  0  0  0  0  0
    4.3799   -0.2100   25.4553 C   0  0  0  0  0  0  0  0  0  0  0  0
    4.3933   -1.5547   25.7318 C   0  0  0  0  0  0  0  0  0  0  0  0
    3.8739   -1.9923   26.9286 C   0  0  0  0  0  0  0  0  0  0  0  0
    3.2196   -1.1383   27.8019 C   0  0  0  0  0  0  0  0  0  0  0  0
    3.1020    0.1970   27.4164 C   0  0  0  0  0  0  0  0  0  0  0  0
    0.4257    0.0334   28.7601 C   0  0  0  0  0  0  0  0  0  0  0  0
   -0.7076   -0.0875   29.5800 C   0  0  0  0  0  0  0  0  0  0  0  0
   -4.9662    1.2960   31.9016 H   0  0  0  0  0  0  0  0  0  0  0  0
   -4.1988   -0.2333   32.4224 H   0  0  0  0  0  0  0  0  0  0  0  0
   -4.6781    3.0665   34.3545 H   0  0  0  0  0  0  0  0  0  0  0  0
   -6.3395    2.4089   36.4491 H   0  0  0  0  0  0  0  0  0  0  0  0
   -6.7768   -0.2790   36.0951 H   0  0  0  0  0  0  0  0  0  0  0  0
   -2.7901   -0.1449   31.0611 H   0  0  0  0  0  0  0  0  0  0  0  0
   -0.5503    2.8993   31.1739 H   0  0  0  0  0  0  0  0  0  0  0  0
    1.4174    3.1447   29.7112 H   0  0  0  0  0  0  0  0  0  0  0  0
    2.5612    3.3820   27.5257 H   0  0  0  0  0  0  0  0  0  0  0  0
    4.7852    0.0874   24.5125 H   0  0  0  0  0  0  0  0  0  0  0  0
    4.8176   -2.2292   25.0037 H   0  0  0  0  0  0  0  0  0  0  0  0
    3.9421   -3.0275   27.1944 H   0  0  0  0  0  0  0  0  0  0  0  0
    2.7781   -1.5206   28.7153 H   0  0  0  0  0  0  0  0  0  0  0  0
    0.6205   -0.7797   28.0619 H   0  0  0  0  0  0  0  0  0  0  0  0
   -1.2976   -0.9988   29.4976 H   0  0  0  0  0  0  0  0  0  0  0  0
  1  2  2  0
  2  3  1  0
  3  4  1  0
  4  5  1  0
  5  6  2  0
  6  7  1  0
  7  8  2  0
  2  9  1  0
  9 10  1  0
 10 11  2  0
 11 12  1  0
 12 13  2  0
 13 14  1  0
 14 15  1  0
 15 16  2  0
 16 17  1  0
 17 18  2  0
 18 19  1  0
 19 20  2  0
 20 21  1  0
 21 22  2  0
 13 23  1  0
 23 24  2  0
  8  4  1  0
 24 10  1  0
 22 14  1  0
 22 17  1  0
  3 25  1  0
  3 26  1  0
  5 27  1  0
  6 28  1  0
  7 29  1  0
  9 30  1  0
 11 31  1  0
 12 32  1  0
 15 33  1  0
 18 34  1  0
 19 35  1  0
 20 36  1  0
 21 37  1  0
 23 38  1  0
 24 39  1  0
M  END
>  <Energy>  (116) 
81.264549732158784

>  <compound_id>  (116) 
10913

>  <target_id>  (116) 
1

>  <reference_id>  (116) 
7

>  <inspiration_ids>  (116) 
[55, 7]

>  <energy_score>  (116) 
-31.502196367950262

>  <distance_score>  (116) 
12.402512124182786

>  <path>  (116) 
/opt/xchem-fragalysis-2/maxwin/BulkDock/SCRATCH/511013/C10913-P7/C10913-P7.minimised.mol

>  <scratch_subdir>  (116) 
/opt/xchem-fragalysis-2/maxwin/BulkDock/SCRATCH/511013/C10913-P7

>  <fragmenstein_runtime>  (116) 
11.546288967132568

>  <fragmenstein_outcome>  (116) 
too moved

>  <fragmenstein_mode>  (116) 
expansion

>  <fragmenstein_error>  (116) 


$$$$
C10914-P55
     RDKit          3D

 46 49  0  0  0  0  0  0  0  0999 V2000
   -0.2193   -3.5273   29.6165 C   0  0  0  0  0  0  0  0  0  0  0  0
   -0.2160   -2.0184   29.3692 C   0  0  0  0  0  0  0  0  0  0  0  0
   -1.7108   -1.4607   29.3493 C   0  0  0  0  0  0  0  0  0  0  0  0
   -2.5922   -1.5432   30.5174 N   0  0  0  0  0  0  0  0  0  0  0  0
   -3.9629   -1.3653   30.4959 C   0  0  0  0  0  0  0  0  0  0  0  0
   -4.3967   -1.3968   31.8004 C   0  0  0  0  0  0  0  0  0  0  0  0
   -3.2205   -1.5801   32.5456 C   0  0  0  0  0  0  0  0  0  0  0  0
   -2.1256   -1.6572   31.7782 N   0  0  0  0  0  0  0  0  0  0  0  0
    0.5664   -1.7172   28.0701 N   0  0  0  0  0  0  0  0  0  0  0  0
    2.0532   -2.1091   27.9876 C   0  0  0  0  0  0  0  0  0  0  0  0
    2.9899   -1.8583   26.6808 C   0  0  0  0  0  0  0  0  0  0  0  0
    3.7220   -0.7884   26.3034 C   0  0  0  0  0  0  0  0  0  0  0  0
    4.4529   -0.7536   24.9392 C   0  0  0  0  0  0  0  0  0  0  0  0
    4.6456   -1.6333   23.6637 C   0  0  0  0  0  0  0  0  0  0  0  0
    5.4495   -1.2105   21.9913 N   0  0  0  0  0  0  0  0  0  0  0  0
    6.0919   -2.0064   20.9505 C   0  0  0  0  0  0  0  0  0  0  0  0
    7.0006   -1.3941   20.1971 N   0  0  0  0  0  0  0  0  0  0  0  0
    6.6495   -0.0958   20.0171 C   0  0  0  0  0  0  0  0  0  0  0  0
    6.7335    0.6887   18.8415 C   0  0  0  0  0  0  0  0  0  0  0  0
    6.1792    1.9600   18.8003 C   0  0  0  0  0  0  0  0  0  0  0  0
    5.4509    2.4213   19.8826 C   0  0  0  0  0  0  0  0  0  0  0  0
    5.2629    1.6273   21.0250 C   0  0  0  0  0  0  0  0  0  0  0  0
    5.9700    0.3653   21.1870 C   0  0  0  0  0  0  0  0  0  0  0  0
    3.7778   -2.5701   24.1374 C   0  0  0  0  0  0  0  0  0  0  0  0
    3.1889   -2.7403   25.6153 C   0  0  0  0  0  0  0  0  0  0  0  0
    0.7917   -3.9069   29.7946 H   0  0  0  0  0  0  0  0  0  0  0  0
   -0.6383   -4.0679   28.7615 H   0  0  0  0  0  0  0  0  0  0  0  0
   -0.8093   -3.7843   30.5011 H   0  0  0  0  0  0  0  0  0  0  0  0
    0.3169   -1.5193   30.1873 H   0  0  0  0  0  0  0  0  0  0  0  0
   -2.2522   -1.9371   28.5260 H   0  0  0  0  0  0  0  0  0  0  0  0
   -1.6603   -0.3879   29.1203 H   0  0  0  0  0  0  0  0  0  0  0  0
   -4.4890   -1.2320   29.5610 H   0  0  0  0  0  0  0  0  0  0  0  0
   -5.4107   -1.2908   32.1581 H   0  0  0  0  0  0  0  0  0  0  0  0
   -3.1086   -1.6552   33.6196 H   0  0  0  0  0  0  0  0  0  0  0  0
    0.5231   -0.7194   27.8741 H   0  0  0  0  0  0  0  0  0  0  0  0
    2.1251   -3.1868   28.1686 H   0  0  0  0  0  0  0  0  0  0  0  0
    2.5695   -1.6053   28.8136 H   0  0  0  0  0  0  0  0  0  0  0  0
    3.7826    0.1011   26.9242 H   0  0  0  0  0  0  0  0  0  0  0  0
    4.7980    0.2490   24.9599 H   0  0  0  0  0  0  0  0  0  0  0  0
    5.7778   -3.0055   20.8207 H   0  0  0  0  0  0  0  0  0  0  0  0
    7.1977    0.2890   17.9473 H   0  0  0  0  0  0  0  0  0  0  0  0
    6.2534    2.5595   17.8979 H   0  0  0  0  0  0  0  0  0  0  0  0
    4.9064    3.3595   19.8002 H   0  0  0  0  0  0  0  0  0  0  0  0
    4.4040    1.8422   21.6514 H   0  0  0  0  0  0  0  0  0  0  0  0
    3.1688   -3.0913   23.4060 H   0  0  0  0  0  0  0  0  0  0  0  0
    2.5920   -3.6151   25.7216 H   0  0  0  0  0  0  0  0  0  0  0  0
  1  2  1  0
  2  3  1  0
  3  4  1  0
  4  5  1  0
  5  6  2  0
  6  7  1  0
  7  8  2  0
  2  9  1  0
  9 10  1  0
 10 11  1  0
 11 12  2  0
 12 13  1  0
 13 14  2  0
 14 15  1  0
 15 16  1  0
 16 17  2  0
 17 18  1  0
 18 19  2  0
 19 20  1  0
 20 21  2  0
 21 22  1  0
 22 23  2  0
 14 24  1  0
 24 25  2  0
  8  4  1  0
 25 11  1  0
 23 15  1  0
 23 18  1  0
  1 26  1  0
  1 27  1  0
  1 28  1  0
  2 29  1  0
  3 30  1  0
  3 31  1  0
  5 32  1  0
  6 33  1  0
  7 34  1  0
  9 35  1  0
 10 36  1  0
 10 37  1  0
 12 38  1  0
 13 39  1  0
 16 40  1  0
 19 41  1  0
 20 42  1  0
 21 43  1  0
 22 44  1  0
 24 45  1  0
 25 46  1  0
M  END
>  <Energy>  (117) 
361.457921720375

>  <compound_id>  (117) 
10914

>  <target_id>  (117) 
1

>  <reference_id>  (117) 
55

>  <inspiration_ids>  (117) 
[55, 7]

>  <energy_score>  (117) 
247.48962379834882

>  <distance_score>  (117) 
11.2335622030891

>  <path>  (117) 
/opt/xchem-fragalysis-2/maxwin/BulkDock/SCRATCH/511013/C10914-P55/C10914-P55.minimised.mol

>  <scratch_subdir>  (117) 
/opt/xchem-fragalysis-2/maxwin/BulkDock/SCRATCH/511013/C10914-P55

>  <fragmenstein_runtime>  (117) 
9.402163982391357

>  <fragmenstein_outcome>  (117) 
too moved

>  <fragmenstein_mode>  (117) 
expansion

>  <fragmenstein_error>  (117) 


$$$$
C10914-P7
     RDKit          3D

 46 49  0  0  0  0  0  0  0  0999 V2000
   -1.7663   -1.7757   32.4988 C   0  0  0  0  0  0  0  0  0  0  0  0
   -2.6375   -2.7465   31.6876 C   0  0  0  0  0  0  0  0  0  0  0  0
   -3.7783   -3.3250   32.6059 C   0  0  0  0  0  0  0  0  0  0  0  0
   -4.7534   -2.3405   33.0832 N   0  0  0  0  0  0  0  0  0  0  0  0
   -5.6661   -1.6432   32.3354 C   0  0  0  0  0  0  0  0  0  0  0  0
   -6.3950   -0.8752   33.2154 C   0  0  0  0  0  0  0  0  0  0  0  0
   -5.8641   -1.1885   34.4760 C   0  0  0  0  0  0  0  0  0  0  0  0
   -4.8853   -2.0968   34.4060 N   0  0  0  0  0  0  0  0  0  0  0  0
   -1.7229   -3.7908   31.0222 N   0  0  0  0  0  0  0  0  0  0  0  0
   -1.1576   -3.2957   29.6957 C   0  0  0  0  0  0  0  0  0  0  0  0
   -0.1787   -4.1268   28.7075 C   0  0  0  0  0  0  0  0  0  0  0  0
    0.9631   -3.4520   28.2315 C   0  0  0  0  0  0  0  0  0  0  0  0
    1.8160   -3.9437   27.1616 C   0  0  0  0  0  0  0  0  0  0  0  0
    1.7113   -5.3046   26.3507 C   0  0  0  0  0  0  0  0  0  0  0  0
    3.1835   -5.9548   25.1905 N   0  0  0  0  0  0  0  0  0  0  0  0
    4.3902   -4.6896   24.9387 C   0  0  0  0  0  0  0  0  0  0  0  0
    5.6075   -5.3784   24.2558 N   0  0  0  0  0  0  0  0  0  0  0  0
    5.5381   -6.6937   23.7284 C   0  0  0  0  0  0  0  0  0  0  0  0
    6.6349   -7.3311   23.0148 C   0  0  0  0  0  0  0  0  0  0  0  0
    6.9243   -8.6511   23.1954 C   0  0  0  0  0  0  0  0  0  0  0  0
    6.3938   -9.1157   24.3493 C   0  0  0  0  0  0  0  0  0  0  0  0
    5.3825   -8.3336   24.9735 C   0  0  0  0  0  0  0  0  0  0  0  0
    4.2462   -7.2738   24.2897 C   0  0  0  0  0  0  0  0  0  0  0  0
    0.3728   -5.8909   26.8318 C   0  0  0  0  0  0  0  0  0  0  0  0
   -0.4398   -5.3316   27.9753 C   0  0  0  0  0  0  0  0  0  0  0  0
   -0.9943   -1.3098   31.8786 H   0  0  0  0  0  0  0  0  0  0  0  0
   -2.3675   -0.9628   32.9188 H   0  0  0  0  0  0  0  0  0  0  0  0
   -1.2683   -2.2901   33.3281 H   0  0  0  0  0  0  0  0  0  0  0  0
   -3.1277   -2.1784   30.8869 H   0  0  0  0  0  0  0  0  0  0  0  0
   -4.3599   -4.0750   32.0628 H   0  0  0  0  0  0  0  0  0  0  0  0
   -3.3445   -3.8172   33.4846 H   0  0  0  0  0  0  0  0  0  0  0  0
   -5.7160   -1.7440   31.2603 H   0  0  0  0  0  0  0  0  0  0  0  0
   -7.1919   -0.1860   32.9734 H   0  0  0  0  0  0  0  0  0  0  0  0
   -6.1505   -0.7998   35.4445 H   0  0  0  0  0  0  0  0  0  0  0  0
   -0.9273   -3.9707   31.6372 H   0  0  0  0  0  0  0  0  0  0  0  0
   -0.5831   -2.3972   29.9532 H   0  0  0  0  0  0  0  0  0  0  0  0
   -1.9754   -2.9363   29.0663 H   0  0  0  0  0  0  0  0  0  0  0  0
    1.2131   -2.4655   28.6254 H   0  0  0  0  0  0  0  0  0  0  0  0
    2.6043   -3.2230   26.8883 H   0  0  0  0  0  0  0  0  0  0  0  0
    4.0910   -3.6496   25.1615 H   0  0  0  0  0  0  0  0  0  0  0  0
    7.3698   -6.6966   22.5260 H   0  0  0  0  0  0  0  0  0  0  0  0
    7.7578   -9.1343   22.7026 H   0  0  0  0  0  0  0  0  0  0  0  0
    6.8306   -9.9666   24.8634 H   0  0  0  0  0  0  0  0  0  0  0  0
    5.2898   -8.5372   26.0416 H   0  0  0  0  0  0  0  0  0  0  0  0
   -0.0428   -6.8011   26.3896 H   0  0  0  0  0  0  0  0  0  0  0  0
   -1.3275   -5.9111   28.2025 H   0  0  0  0  0  0  0  0  0  0  0  0
  1  2  1  0
  2  3  1  0
  3  4  1  0
  4  5  1  0
  5  6  2  0
  6  7  1  0
  7  8  2  0
  2  9  1  0
  9 10  1  0
 10 11  1  0
 11 12  2  0
 12 13  1  0
 13 14  2  0
 14 15  1  0
 15 16  1  0
 16 17  2  0
 17 18  1  0
 18 19  2  0
 19 20  1  0
 20 21  2  0
 21 22  1  0
 22 23  2  0
 14 24  1  0
 24 25  2  0
  8  4  1  0
 25 11  1  0
 23 15  1  0
 23 18  1  0
  1 26  1  0
  1 27  1  0
  1 28  1  0
  2 29  1  0
  3 30  1  0
  3 31  1  0
  5 32  1  0
  6 33  1  0
  7 34  1  0
  9 35  1  0
 10 36  1  0
 10 37  1  0
 12 38  1  0
 13 39  1  0
 16 40  1  0
 19 41  1  0
 20 42  1  0
 21 43  1  0
 22 44  1  0
 24 45  1  0
 25 46  1  0
M  END
>  <Energy>  (118) 
548.79716672763698

>  <compound_id>  (118) 
10914

>  <target_id>  (118) 
1

>  <reference_id>  (118) 
7

>  <inspiration_ids>  (118) 
[55, 7]

>  <energy_score>  (118) 
434.8288688056099

>  <distance_score>  (118) 
11.387209842078729

>  <path>  (118) 
/opt/xchem-fragalysis-2/maxwin/BulkDock/SCRATCH/511013/C10914-P7/C10914-P7.minimised.mol

>  <scratch_subdir>  (118) 
/opt/xchem-fragalysis-2/maxwin/BulkDock/SCRATCH/511013/C10914-P7

>  <fragmenstein_runtime>  (118) 
8.283790588378906

>  <fragmenstein_outcome>  (118) 
too moved

>  <fragmenstein_mode>  (118) 
expansion

>  <fragmenstein_error>  (118) 


$$$$
C10916-P55
     RDKit          3D

 45 48  0  0  0  0  0  0  0  0999 V2000
    0.3104   -4.0111   29.1673 C   0  0  0  0  0  0  0  0  0  0  0  0
    0.4975   -2.5017   29.0087 C   0  0  0  0  0  0  0  0  0  0  0  0
   -0.9021   -1.7639   28.9278 C   0  0  0  0  0  0  0  0  0  0  0  0
   -1.8640   -1.7891   30.0377 N   0  0  0  0  0  0  0  0  0  0  0  0
   -3.1456   -1.2716   29.9935 C   0  0  0  0  0  0  0  0  0  0  0  0
   -3.6823   -1.4035   31.2535 C   0  0  0  0  0  0  0  0  0  0  0  0
   -2.6596   -2.0143   31.9967 C   0  0  0  0  0  0  0  0  0  0  0  0
   -1.5623   -2.2561   31.2677 N   0  0  0  0  0  0  0  0  0  0  0  0
    1.4648   -2.2794   27.8508 N   0  0  0  0  0  0  0  0  0  0  0  0
    2.9197   -2.3708   27.7904 C   0  0  0  0  0  0  0  0  0  0  0  0
    3.7264   -2.5665   28.6564 O   0  0  0  0  0  0  0  0  0  0  0  0
    3.5612   -2.1572   26.4129 C   0  0  0  0  0  0  0  0  0  0  0  0
    4.3422   -1.1191   26.1511 C   0  0  0  0  0  0  0  0  0  0  0  0
    4.7635   -0.9936   24.7584 C   0  0  0  0  0  0  0  0  0  0  0  0
    4.8888   -1.7303   23.3343 C   0  0  0  0  0  0  0  0  0  0  0  0
    5.5475   -0.9049   21.7149 N   0  0  0  0  0  0  0  0  0  0  0  0
    5.1302    0.4705   21.6084 C   0  0  0  0  0  0  0  0  0  0  0  0
    6.0489    1.3565   21.3109 N   0  0  0  0  0  0  0  0  0  0  0  0
    6.3324    1.0960   20.1360 C   0  0  0  0  0  0  0  0  0  0  0  0
    6.3794    1.9276   18.9939 C   0  0  0  0  0  0  0  0  0  0  0  0
    6.8476    1.4285   17.8277 C   0  0  0  0  0  0  0  0  0  0  0  0
    7.3869    0.1949   17.9695 C   0  0  0  0  0  0  0  0  0  0  0  0
    7.3818   -0.5544   19.2846 C   0  0  0  0  0  0  0  0  0  0  0  0
    6.7284   -0.1900   20.4552 C   0  0  0  0  0  0  0  0  0  0  0  0
    3.8012   -2.4944   23.7509 C   0  0  0  0  0  0  0  0  0  0  0  0
    3.3761   -2.8314   25.2198 C   0  0  0  0  0  0  0  0  0  0  0  0
   -0.3206   -4.2600   30.0238 H   0  0  0  0  0  0  0  0  0  0  0  0
    1.2771   -4.5000   29.3249 H   0  0  0  0  0  0  0  0  0  0  0  0
   -0.1415   -4.4483   28.2708 H   0  0  0  0  0  0  0  0  0  0  0  0
    1.0282   -2.1349   29.8957 H   0  0  0  0  0  0  0  0  0  0  0  0
   -1.4442   -2.1320   28.0521 H   0  0  0  0  0  0  0  0  0  0  0  0
   -0.7045   -0.6987   28.7515 H   0  0  0  0  0  0  0  0  0  0  0  0
   -3.5436   -0.8584   29.0777 H   0  0  0  0  0  0  0  0  0  0  0  0
   -4.6644   -1.0982   31.5846 H   0  0  0  0  0  0  0  0  0  0  0  0
   -2.6616   -2.2952   33.0422 H   0  0  0  0  0  0  0  0  0  0  0  0
    1.0992   -2.1878   26.9077 H   0  0  0  0  0  0  0  0  0  0  0  0
    4.5003   -0.3162   26.8598 H   0  0  0  0  0  0  0  0  0  0  0  0
    4.6322    0.0871   24.6879 H   0  0  0  0  0  0  0  0  0  0  0  0
    4.1719    0.7616   21.9253 H   0  0  0  0  0  0  0  0  0  0  0  0
    6.0330    2.9499   19.0670 H   0  0  0  0  0  0  0  0  0  0  0  0
    6.9189    2.0239   16.9314 H   0  0  0  0  0  0  0  0  0  0  0  0
    7.9499   -0.1634   17.1057 H   0  0  0  0  0  0  0  0  0  0  0  0
    8.0527   -1.3358   19.4189 H   0  0  0  0  0  0  0  0  0  0  0  0
    3.0924   -2.9729   23.0802 H   0  0  0  0  0  0  0  0  0  0  0  0
    2.7331   -3.6689   25.3025 H   0  0  0  0  0  0  0  0  0  0  0  0
  1  2  1  0
  2  3  1  0
  3  4  1  0
  4  5  1  0
  5  6  2  0
  6  7  1  0
  7  8  2  0
  2  9  1  0
  9 10  1  0
 10 11  2  0
 10 12  1  0
 12 13  2  0
 13 14  1  0
 14 15  2  0
 15 16  1  0
 16 17  1  0
 17 18  2  0
 18 19  1  0
 19 20  2  0
 20 21  1  0
 21 22  2  0
 22 23  1  0
 23 24  2  0
 15 25  1  0
 25 26  2  0
  8  4  1  0
 26 12  1  0
 24 16  1  0
 24 19  1  0
  1 27  1  0
  1 28  1  0
  1 29  1  0
  2 30  1  0
  3 31  1  0
  3 32  1  0
  5 33  1  0
  6 34  1  0
  7 35  1  0
  9 36  1  0
 13 37  1  0
 14 38  1  0
 17 39  1  0
 20 40  1  0
 21 41  1  0
 22 42  1  0
 23 43  1  0
 25 44  1  0
 26 45  1  0
M  END
>  <Energy>  (119) 
531.15317894097188

>  <compound_id>  (119) 
10916

>  <target_id>  (119) 
1

>  <reference_id>  (119) 
55

>  <inspiration_ids>  (119) 
[55, 7]

>  <energy_score>  (119) 
432.9348424358683

>  <distance_score>  (119) 
11.513221643547856

>  <path>  (119) 
/opt/xchem-fragalysis-2/maxwin/BulkDock/SCRATCH/511013/C10916-P55/C10916-P55.minimised.mol

>  <scratch_subdir>  (119) 
/opt/xchem-fragalysis-2/maxwin/BulkDock/SCRATCH/511013/C10916-P55

>  <fragmenstein_runtime>  (119) 
14.235280513763428

>  <fragmenstein_outcome>  (119) 
too moved

>  <fragmenstein_mode>  (119) 
expansion

>  <fragmenstein_error>  (119) 


$$$$
C10916-P7
     RDKit          3D

 45 48  0  0  0  0  0  0  0  0999 V2000
   -0.2980   -0.1503   29.1244 C   0  0  0  0  0  0  0  0  0  0  0  0
    0.3435   -1.2298   30.0005 C   0  0  0  0  0  0  0  0  0  0  0  0
   -0.1023   -1.0712   31.5025 C   0  0  0  0  0  0  0  0  0  0  0  0
   -1.5424   -1.1029   31.7977 N   0  0  0  0  0  0  0  0  0  0  0  0
   -2.3196   -0.0493   32.2239 C   0  0  0  0  0  0  0  0  0  0  0  0
   -3.5630   -0.5580   32.5220 C   0  0  0  0  0  0  0  0  0  0  0  0
   -3.4437   -1.9327   32.2631 C   0  0  0  0  0  0  0  0  0  0  0  0
   -2.2231   -2.2746   31.8310 N   0  0  0  0  0  0  0  0  0  0  0  0
    1.8270   -1.2800   29.6872 N   0  0  0  0  0  0  0  0  0  0  0  0
    2.8562   -0.2561   29.7766 C   0  0  0  0  0  0  0  0  0  0  0  0
    2.8070    0.8659   30.1974 O   0  0  0  0  0  0  0  0  0  0  0  0
    4.2313   -0.6306   29.1411 C   0  0  0  0  0  0  0  0  0  0  0  0
    4.8045   -1.9001   29.1898 C   0  0  0  0  0  0  0  0  0  0  0  0
    6.0828   -2.1633   28.5951 C   0  0  0  0  0  0  0  0  0  0  0  0
    6.8524   -1.1840   27.9127 C   0  0  0  0  0  0  0  0  0  0  0  0
    8.0906   -1.5452   27.1922 N   0  0  0  0  0  0  0  0  0  0  0  0
    8.5107   -2.8504   26.9815 C   0  0  0  0  0  0  0  0  0  0  0  0
    9.4399   -2.9907   26.0649 N   0  0  0  0  0  0  0  0  0  0  0  0
    9.8330   -1.7179   25.7994 C   0  0  0  0  0  0  0  0  0  0  0  0
   10.8671   -1.3080   24.9400 C   0  0  0  0  0  0  0  0  0  0  0  0
   11.2135    0.0383   24.8876 C   0  0  0  0  0  0  0  0  0  0  0  0
   10.5496    0.9518   25.7040 C   0  0  0  0  0  0  0  0  0  0  0  0
    9.4852    0.5647   26.5492 C   0  0  0  0  0  0  0  0  0  0  0  0
    9.0981   -0.7873   26.5578 C   0  0  0  0  0  0  0  0  0  0  0  0
    6.2939    0.0974   27.8994 C   0  0  0  0  0  0  0  0  0  0  0  0
    5.0163    0.3628   28.5064 C   0  0  0  0  0  0  0  0  0  0  0  0
    0.0152    0.8510   29.4385 H   0  0  0  0  0  0  0  0  0  0  0  0
   -1.3905   -0.1967   29.1684 H   0  0  0  0  0  0  0  0  0  0  0  0
   -0.0045   -0.2756   28.0760 H   0  0  0  0  0  0  0  0  0  0  0  0
   -0.0316   -2.2014   29.6542 H   0  0  0  0  0  0  0  0  0  0  0  0
    0.3502   -1.8716   32.1005 H   0  0  0  0  0  0  0  0  0  0  0  0
    0.2838   -0.1238   31.8979 H   0  0  0  0  0  0  0  0  0  0  0  0
   -1.9189    0.9535   32.2788 H   0  0  0  0  0  0  0  0  0  0  0  0
   -4.4253   -0.0134   32.8784 H   0  0  0  0  0  0  0  0  0  0  0  0
   -4.1940   -2.7045   32.3725 H   0  0  0  0  0  0  0  0  0  0  0  0
    2.2026   -2.0850   29.1984 H   0  0  0  0  0  0  0  0  0  0  0  0
    4.2957   -2.7179   29.6922 H   0  0  0  0  0  0  0  0  0  0  0  0
    6.4283   -3.1914   28.6719 H   0  0  0  0  0  0  0  0  0  0  0  0
    8.0566   -3.6834   27.4925 H   0  0  0  0  0  0  0  0  0  0  0  0
   11.4088   -2.0472   24.3592 H   0  0  0  0  0  0  0  0  0  0  0  0
   12.0202    0.3606   24.2345 H   0  0  0  0  0  0  0  0  0  0  0  0
   10.8493    1.9981   25.6808 H   0  0  0  0  0  0  0  0  0  0  0  0
    8.9859    1.3042   27.1648 H   0  0  0  0  0  0  0  0  0  0  0  0
    6.7795    0.9178   27.3808 H   0  0  0  0  0  0  0  0  0  0  0  0
    4.6241    1.3787   28.4495 H   0  0  0  0  0  0  0  0  0  0  0  0
  1  2  1  0
  2  3  1  0
  3  4  1  0
  4  5  1  0
  5  6  2  0
  6  7  1  0
  7  8  2  0
  2  9  1  0
  9 10  1  0
 10 11  2  0
 10 12  1  0
 12 13  2  0
 13 14  1  0
 14 15  2  0
 15 16  1  0
 16 17  1  0
 17 18  2  0
 18 19  1  0
 19 20  2  0
 20 21  1  0
 21 22  2  0
 22 23  1  0
 23 24  2  0
 15 25  1  0
 25 26  2  0
  8  4  1  0
 26 12  1  0
 24 16  1  0
 24 19  1  0
  1 27  1  0
  1 28  1  0
  1 29  1  0
  2 30  1  0
  3 31  1  0
  3 32  1  0
  5 33  1  0
  6 34  1  0
  7 35  1  0
  9 36  1  0
 13 37  1  0
 14 38  1  0
 17 39  1  0
 20 40  1  0
 21 41  1  0
 22 42  1  0
 23 43  1  0
 25 44  1  0
 26 45  1  0
M  END
>  <Energy>  (120) 
90.491562829095471

>  <compound_id>  (120) 
10916

>  <target_id>  (120) 
1

>  <reference_id>  (120) 
7

>  <inspiration_ids>  (120) 
[55, 7]

>  <energy_score>  (120) 
-7.7267736760024945

>  <distance_score>  (120) 
12.323547164001013

>  <path>  (120) 
/opt/xchem-fragalysis-2/maxwin/BulkDock/SCRATCH/511013/C10916-P7/C10916-P7.minimised.mol

>  <scratch_subdir>  (120) 
/opt/xchem-fragalysis-2/maxwin/BulkDock/SCRATCH/511013/C10916-P7

>  <fragmenstein_runtime>  (120) 
23.326380729675293

>  <fragmenstein_outcome>  (120) 
too moved

>  <fragmenstein_mode>  (120) 
expansion

>  <fragmenstein_error>  (120) 


$$$$
C10917-P55
     RDKit          3D

 42 45  0  0  0  0  0  0  0  0999 V2000
   -0.1959    0.6330   29.0668 O   0  0  0  0  0  0  0  0  0  0  0  0
    0.6655    0.0496   29.6649 C   0  0  0  0  0  0  0  0  0  0  0  0
    0.2938   -0.6386   31.0053 C   0  0  0  0  0  0  0  0  0  0  0  0
   -1.1069   -0.4822   31.4738 N   0  0  0  0  0  0  0  0  0  0  0  0
   -2.2653   -0.8871   30.8507 C   0  0  0  0  0  0  0  0  0  0  0  0
   -3.3000   -0.6623   31.7324 C   0  0  0  0  0  0  0  0  0  0  0  0
   -2.6743   -0.1698   32.8873 C   0  0  0  0  0  0  0  0  0  0  0  0
   -1.3451   -0.0932   32.7567 N   0  0  0  0  0  0  0  0  0  0  0  0
    2.0796   -0.1767   29.3276 N   0  0  0  0  0  0  0  0  0  0  0  0
    2.8380    0.1534   28.1257 C   0  0  0  0  0  0  0  0  0  0  0  0
    4.3640    0.0978   28.0950 C   0  0  0  0  0  0  0  0  0  0  0  0
    5.0467   -1.0549   27.6816 C   0  0  0  0  0  0  0  0  0  0  0  0
    6.4157   -1.0218   27.2882 C   0  0  0  0  0  0  0  0  0  0  0  0
    7.1563    0.1642   27.2716 C   0  0  0  0  0  0  0  0  0  0  0  0
    8.4450    0.2701   26.5799 N   0  0  0  0  0  0  0  0  0  0  0  0
    9.0116    1.4733   26.1734 C   0  0  0  0  0  0  0  0  0  0  0  0
   10.0403    1.3409   25.3698 N   0  0  0  0  0  0  0  0  0  0  0  0
   10.2488   -0.0039   25.2954 C   0  0  0  0  0  0  0  0  0  0  0  0
   11.2453   -0.6847   24.5782 C   0  0  0  0  0  0  0  0  0  0  0  0
   11.3114   -2.0778   24.6441 C   0  0  0  0  0  0  0  0  0  0  0  0
   10.4109   -2.7811   25.4315 C   0  0  0  0  0  0  0  0  0  0  0  0
    9.4118   -2.1164   26.1643 C   0  0  0  0  0  0  0  0  0  0  0  0
    9.3123   -0.7131   26.0631 C   0  0  0  0  0  0  0  0  0  0  0  0
    6.5055    1.2971   27.7990 C   0  0  0  0  0  0  0  0  0  0  0  0
    5.1411    1.2614   28.2074 C   0  0  0  0  0  0  0  0  0  0  0  0
    0.9374   -0.2369   31.7956 H   0  0  0  0  0  0  0  0  0  0  0  0
    0.4546   -1.7180   30.9124 H   0  0  0  0  0  0  0  0  0  0  0  0
   -2.2501   -1.2668   29.8376 H   0  0  0  0  0  0  0  0  0  0  0  0
   -4.3525   -0.8348   31.5610 H   0  0  0  0  0  0  0  0  0  0  0  0
   -3.1261    0.1280   33.8244 H   0  0  0  0  0  0  0  0  0  0  0  0
    2.5358   -0.6413   30.1036 H   0  0  0  0  0  0  0  0  0  0  0  0
    2.4531   -0.5101   27.3406 H   0  0  0  0  0  0  0  0  0  0  0  0
    2.5119    1.1562   27.8215 H   0  0  0  0  0  0  0  0  0  0  0  0
    4.4994   -1.9858   27.5268 H   0  0  0  0  0  0  0  0  0  0  0  0
    6.8120   -1.9334   26.8631 H   0  0  0  0  0  0  0  0  0  0  0  0
    8.5952    2.4305   26.4496 H   0  0  0  0  0  0  0  0  0  0  0  0
   11.9564   -0.1254   23.9784 H   0  0  0  0  0  0  0  0  0  0  0  0
   12.0823   -2.6016   24.0835 H   0  0  0  0  0  0  0  0  0  0  0  0
   10.4951   -3.8628   25.4979 H   0  0  0  0  0  0  0  0  0  0  0  0
    8.7431   -2.6927   26.7933 H   0  0  0  0  0  0  0  0  0  0  0  0
    7.0059    2.2598   27.8656 H   0  0  0  0  0  0  0  0  0  0  0  0
    4.6722    2.1930   28.5230 H   0  0  0  0  0  0  0  0  0  0  0  0
  1  2  2  0
  2  3  1  0
  3  4  1  0
  4  5  1  0
  5  6  2  0
  6  7  1  0
  7  8  2  0
  2  9  1  0
  9 10  1  0
 10 11  1  0
 11 12  2  0
 12 13  1  0
 13 14  2  0
 14 15  1  0
 15 16  1  0
 16 17  2  0
 17 18  1  0
 18 19  2  0
 19 20  1  0
 20 21  2  0
 21 22  1  0
 22 23  2  0
 14 24  1  0
 24 25  2  0
  8  4  1  0
 25 11  1  0
 23 15  1  0
 23 18  1  0
  3 26  1  0
  3 27  1  0
  5 28  1  0
  6 29  1  0
  7 30  1  0
  9 31  1  0
 10 32  1  0
 10 33  1  0
 12 34  1  0
 13 35  1  0
 16 36  1  0
 19 37  1  0
 20 38  1  0
 21 39  1  0
 22 40  1  0
 24 41  1  0
 25 42  1  0
M  END
>  <Energy>  (121) 
82.994886256371458

>  <compound_id>  (121) 
10917

>  <target_id>  (121) 
1

>  <reference_id>  (121) 
55

>  <inspiration_ids>  (121) 
[55, 7]

>  <energy_score>  (121) 
-1.9431345710545571

>  <distance_score>  (121) 
12.222882821315038

>  <path>  (121) 
/opt/xchem-fragalysis-2/maxwin/BulkDock/SCRATCH/511013/C10917-P55/C10917-P55.minimised.mol

>  <scratch_subdir>  (121) 
/opt/xchem-fragalysis-2/maxwin/BulkDock/SCRATCH/511013/C10917-P55

>  <fragmenstein_runtime>  (121) 
15.40147614479065

>  <fragmenstein_outcome>  (121) 
too moved

>  <fragmenstein_mode>  (121) 
expansion

>  <fragmenstein_error>  (121) 


$$$$
C10917-P7
     RDKit          3D

 42 45  0  0  0  0  0  0  0  0999 V2000
   -1.3169    1.2583   29.9038 O   0  0  0  0  0  0  0  0  0  0  0  0
   -0.6997    0.2334   29.8166 C   0  0  0  0  0  0  0  0  0  0  0  0
   -1.3463   -1.0780   30.3378 C   0  0  0  0  0  0  0  0  0  0  0  0
   -2.4985   -0.9097   31.2515 N   0  0  0  0  0  0  0  0  0  0  0  0
   -3.7825   -1.3640   31.0477 C   0  0  0  0  0  0  0  0  0  0  0  0
   -4.5022   -1.0653   32.1822 C   0  0  0  0  0  0  0  0  0  0  0  0
   -3.5501   -0.5221   33.0589 C   0  0  0  0  0  0  0  0  0  0  0  0
   -2.3214   -0.4935   32.5293 N   0  0  0  0  0  0  0  0  0  0  0  0
    0.6610   -0.0229   29.3337 N   0  0  0  0  0  0  0  0  0  0  0  0
    1.7103    0.8948   28.9052 C   0  0  0  0  0  0  0  0  0  0  0  0
    2.4675    0.6230   27.6133 C   0  0  0  0  0  0  0  0  0  0  0  0
    3.2723   -0.5102   27.4137 C   0  0  0  0  0  0  0  0  0  0  0  0
    4.0511   -0.6775   26.2356 C   0  0  0  0  0  0  0  0  0  0  0  0
    4.0415    0.2813   25.2078 C   0  0  0  0  0  0  0  0  0  0  0  0
    4.7816    0.0041   23.8752 N   0  0  0  0  0  0  0  0  0  0  0  0
    4.8032   -1.4509   23.3426 C   0  0  0  0  0  0  0  0  0  0  0  0
    5.2172   -1.4111   21.9883 N   0  0  0  0  0  0  0  0  0  0  0  0
    5.2972    0.1425   21.2892 C   0  0  0  0  0  0  0  0  0  0  0  0
    5.7391    0.8263   19.6626 C   0  0  0  0  0  0  0  0  0  0  0  0
    6.8415    0.7416   19.0036 C   0  0  0  0  0  0  0  0  0  0  0  0
    7.3140    0.8585   20.2203 C   0  0  0  0  0  0  0  0  0  0  0  0
    6.5209    1.4834   21.5279 C   0  0  0  0  0  0  0  0  0  0  0  0
    5.0748    0.9214   22.3379 C   0  0  0  0  0  0  0  0  0  0  0  0
    3.2301    1.4179   25.4057 C   0  0  0  0  0  0  0  0  0  0  0  0
    2.4871    1.5968   26.5964 C   0  0  0  0  0  0  0  0  0  0  0  0
   -0.6099   -1.6668   30.8957 H   0  0  0  0  0  0  0  0  0  0  0  0
   -1.6974   -1.6567   29.4769 H   0  0  0  0  0  0  0  0  0  0  0  0
   -4.0653   -1.8225   30.1117 H   0  0  0  0  0  0  0  0  0  0  0  0
   -5.5559   -1.2308   32.3533 H   0  0  0  0  0  0  0  0  0  0  0  0
   -3.6898   -0.1643   34.0705 H   0  0  0  0  0  0  0  0  0  0  0  0
    0.8270   -1.0220   29.3243 H   0  0  0  0  0  0  0  0  0  0  0  0
    1.2565    1.8922   28.8683 H   0  0  0  0  0  0  0  0  0  0  0  0
    2.4422    0.9228   29.7213 H   0  0  0  0  0  0  0  0  0  0  0  0
    3.3266   -1.2832   28.1775 H   0  0  0  0  0  0  0  0  0  0  0  0
    4.6571   -1.5768   26.1489 H   0  0  0  0  0  0  0  0  0  0  0  0
    4.4482   -2.2081   24.0115 H   0  0  0  0  0  0  0  0  0  0  0  0
    5.3320    1.8154   19.3554 H   0  0  0  0  0  0  0  0  0  0  0  0
    7.0475    1.3720   18.1527 H   0  0  0  0  0  0  0  0  0  0  0  0
    7.6465   -0.2240   20.3697 H   0  0  0  0  0  0  0  0  0  0  0  0
    6.6364    2.5961   21.4065 H   0  0  0  0  0  0  0  0  0  0  0  0
    3.1147    2.1509   24.6104 H   0  0  0  0  0  0  0  0  0  0  0  0
    1.8891    2.5012   26.6999 H   0  0  0  0  0  0  0  0  0  0  0  0
  1  2  2  0
  2  3  1  0
  3  4  1  0
  4  5  1  0
  5  6  2  0
  6  7  1  0
  7  8  2  0
  2  9  1  0
  9 10  1  0
 10 11  1  0
 11 12  2  0
 12 13  1  0
 13 14  2  0
 14 15  1  0
 15 16  1  0
 16 17  2  0
 17 18  1  0
 18 19  2  0
 19 20  1  0
 20 21  2  0
 21 22  1  0
 22 23  2  0
 14 24  1  0
 24 25  2  0
  8  4  1  0
 25 11  1  0
 23 15  1  0
 23 18  1  0
  3 26  1  0
  3 27  1  0
  5 28  1  0
  6 29  1  0
  7 30  1  0
  9 31  1  0
 10 32  1  0
 10 33  1  0
 12 34  1  0
 13 35  1  0
 16 36  1  0
 19 37  1  0
 20 38  1  0
 21 39  1  0
 22 40  1  0
 24 41  1  0
 25 42  1  0
M  END
>  <Energy>  (122) 
532.55810166825472

>  <compound_id>  (122) 
10917

>  <target_id>  (122) 
1

>  <reference_id>  (122) 
7

>  <inspiration_ids>  (122) 
[55, 7]

>  <energy_score>  (122) 
447.620080840824

>  <distance_score>  (122) 
11.449780265560218

>  <path>  (122) 
/opt/xchem-fragalysis-2/maxwin/BulkDock/SCRATCH/511013/C10917-P7/C10917-P7.minimised.mol

>  <scratch_subdir>  (122) 
/opt/xchem-fragalysis-2/maxwin/BulkDock/SCRATCH/511013/C10917-P7

>  <fragmenstein_runtime>  (122) 
11.27336311340332

>  <fragmenstein_outcome>  (122) 
too moved

>  <fragmenstein_mode>  (122) 
expansion

>  <fragmenstein_error>  (122) 


$$$$
C10918-P55
     RDKit          3D

 46 49  0  0  0  0  0  0  0  0999 V2000
   -5.3903    1.2840   36.4880 F   0  0  0  0  0  0  0  0  0  0  0  0
   -5.6014    0.8654   35.2215 C   0  0  0  0  0  0  0  0  0  0  0  0
   -6.5116    1.7024   34.6627 F   0  0  0  0  0  0  0  0  0  0  0  0
   -4.4311    1.0802   34.5633 F   0  0  0  0  0  0  0  0  0  0  0  0
   -6.0299   -0.5933   35.1225 C   0  0  0  0  0  0  0  0  0  0  0  0
   -5.8955   -1.0840   33.6398 C   0  0  0  0  0  0  0  0  0  0  0  0
   -4.4786   -1.2087   33.1551 N   0  0  0  0  0  0  0  0  0  0  0  0
   -4.3531   -1.2942   31.6760 C   0  0  0  0  0  0  0  0  0  0  0  0
   -2.8992   -1.3180   31.0736 C   0  0  0  0  0  0  0  0  0  0  0  0
   -2.0210   -2.3863   31.2869 C   0  0  0  0  0  0  0  0  0  0  0  0
   -0.7923   -2.5238   30.5545 C   0  0  0  0  0  0  0  0  0  0  0  0
   -0.3465   -1.5895   29.5821 C   0  0  0  0  0  0  0  0  0  0  0  0
    0.8483   -1.8736   28.7538 N   0  0  0  0  0  0  0  0  0  0  0  0
    1.2974   -3.1685   28.5406 C   0  0  0  0  0  0  0  0  0  0  0  0
    2.3232   -3.2693   27.7391 N   0  0  0  0  0  0  0  0  0  0  0  0
    2.6081   -1.9928   27.3690 C   0  0  0  0  0  0  0  0  0  0  0  0
    3.6241   -1.5644   26.5010 C   0  0  0  0  0  0  0  0  0  0  0  0
    3.8299   -0.2059   26.3313 C   0  0  0  0  0  0  0  0  0  0  0  0
    3.0199    0.7114   26.9922 C   0  0  0  0  0  0  0  0  0  0  0  0
    1.9544    0.2984   27.8212 C   0  0  0  0  0  0  0  0  0  0  0  0
    1.7411   -1.0790   27.9993 C   0  0  0  0  0  0  0  0  0  0  0  0
   -1.1717   -0.4723   29.4239 C   0  0  0  0  0  0  0  0  0  0  0  0
   -2.4264   -0.3544   30.1430 C   0  0  0  0  0  0  0  0  0  0  0  0
   -7.3575   -0.7225   35.7285 N   0  0  0  0  0  0  0  0  0  0  0  0
   -8.5041   -1.2460   35.2071 C   0  0  0  0  0  0  0  0  0  0  0  0
   -9.4988   -1.0583   36.1389 C   0  0  0  0  0  0  0  0  0  0  0  0
   -8.8362   -0.5085   37.2433 C   0  0  0  0  0  0  0  0  0  0  0  0
   -7.5297   -0.3599   37.0176 N   0  0  0  0  0  0  0  0  0  0  0  0
   -5.3653   -1.2048   35.7458 H   0  0  0  0  0  0  0  0  0  0  0  0
   -6.3450   -2.0754   33.5378 H   0  0  0  0  0  0  0  0  0  0  0  0
   -6.4513   -0.3980   32.9882 H   0  0  0  0  0  0  0  0  0  0  0  0
   -3.9385   -0.3842   33.4394 H   0  0  0  0  0  0  0  0  0  0  0  0
   -4.8615   -2.1984   31.3202 H   0  0  0  0  0  0  0  0  0  0  0  0
   -4.8687   -0.4347   31.2299 H   0  0  0  0  0  0  0  0  0  0  0  0
   -2.2932   -3.1661   31.9984 H   0  0  0  0  0  0  0  0  0  0  0  0
   -0.1947   -3.4018   30.7942 H   0  0  0  0  0  0  0  0  0  0  0  0
    0.7955   -4.0217   28.9703 H   0  0  0  0  0  0  0  0  0  0  0  0
    4.2353   -2.2874   25.9781 H   0  0  0  0  0  0  0  0  0  0  0  0
    4.6205    0.1138   25.6721 H   0  0  0  0  0  0  0  0  0  0  0  0
    3.1976    1.7749   26.8527 H   0  0  0  0  0  0  0  0  0  0  0  0
    1.3402    1.0353   28.3263 H   0  0  0  0  0  0  0  0  0  0  0  0
   -0.9288    0.2952   28.6933 H   0  0  0  0  0  0  0  0  0  0  0  0
   -3.0529    0.5086   29.9150 H   0  0  0  0  0  0  0  0  0  0  0  0
   -8.5321   -1.6779   34.2207 H   0  0  0  0  0  0  0  0  0  0  0  0
  -10.5425   -1.3246   36.0470 H   0  0  0  0  0  0  0  0  0  0  0  0
   -9.2393   -0.2321   38.2101 H   0  0  0  0  0  0  0  0  0  0  0  0
  1  2  1  0
  2  3  1  0
  2  4  1  0
  2  5  1  0
  5  6  1  0
  6  7  1  0
  7  8  1  0
  8  9  1  0
  9 10  2  0
 10 11  1  0
 11 12  2  0
 12 13  1  0
 13 14  1  0
 14 15  2  0
 15 16  1  0
 16 17  2  0
 17 18  1  0
 18 19  2  0
 19 20  1  0
 20 21  2  0
 12 22  1  0
 22 23  2  0
  5 24  1  0
 24 25  1  0
 25 26  2  0
 26 27  1  0
 27 28  2  0
 23  9  1  0
 28 24  1  0
 21 13  1  0
 21 16  1  0
  5 29  1  0
  6 30  1  0
  6 31  1  0
  7 32  1  0
  8 33  1  0
  8 34  1  0
 10 35  1  0
 11 36  1  0
 14 37  1  0
 17 38  1  0
 18 39  1  0
 19 40  1  0
 20 41  1  0
 22 42  1  0
 23 43  1  0
 25 44  1  0
 26 45  1  0
 27 46  1  0
M  END
>  <Energy>  (123) 
92.43263614913009

>  <compound_id>  (123) 
10918

>  <target_id>  (123) 
1

>  <reference_id>  (123) 
55

>  <inspiration_ids>  (123) 
[55, 7]

>  <energy_score>  (123) 
-30.370916930403382

>  <distance_score>  (123) 
12.361827999570018

>  <path>  (123) 
/opt/xchem-fragalysis-2/maxwin/BulkDock/SCRATCH/511013/C10918-P55/C10918-P55.minimised.mol

>  <scratch_subdir>  (123) 
/opt/xchem-fragalysis-2/maxwin/BulkDock/SCRATCH/511013/C10918-P55

>  <fragmenstein_runtime>  (123) 
14.894414186477661

>  <fragmenstein_outcome>  (123) 
too moved

>  <fragmenstein_mode>  (123) 
expansion

>  <fragmenstein_error>  (123) 


$$$$
C10918-P7
     RDKit          3D

 46 49  0  0  0  0  0  0  0  0999 V2000
   -5.0415   -2.6921   34.8024 F   0  0  0  0  0  0  0  0  0  0  0  0
   -4.9157   -1.3609   34.9775 C   0  0  0  0  0  0  0  0  0  0  0  0
   -3.6595   -1.0268   34.5797 F   0  0  0  0  0  0  0  0  0  0  0  0
   -4.9454   -1.1082   36.3095 F   0  0  0  0  0  0  0  0  0  0  0  0
   -5.9474   -0.5474   34.2252 C   0  0  0  0  0  0  0  0  0  0  0  0
   -6.1400   -1.0262   32.7669 C   0  0  0  0  0  0  0  0  0  0  0  0
   -4.9297   -1.4240   31.9859 N   0  0  0  0  0  0  0  0  0  0  0  0
   -4.0574   -0.3024   31.5573 C   0  0  0  0  0  0  0  0  0  0  0  0
   -2.7681   -0.6547   30.7385 C   0  0  0  0  0  0  0  0  0  0  0  0
   -2.0545   -1.8444   30.8920 C   0  0  0  0  0  0  0  0  0  0  0  0
   -0.8398   -2.1012   30.1723 C   0  0  0  0  0  0  0  0  0  0  0  0
   -0.2434   -1.1784   29.2703 C   0  0  0  0  0  0  0  0  0  0  0  0
    0.9740   -1.5408   28.5094 N   0  0  0  0  0  0  0  0  0  0  0  0
    1.3919   -2.8557   28.3835 C   0  0  0  0  0  0  0  0  0  0  0  0
    2.4310   -3.0281   27.6158 N   0  0  0  0  0  0  0  0  0  0  0  0
    2.7473   -1.7905   27.1652 C   0  0  0  0  0  0  0  0  0  0  0  0
    3.7483   -1.4584   26.2449 C   0  0  0  0  0  0  0  0  0  0  0  0
    3.9868   -0.1258   25.9708 C   0  0  0  0  0  0  0  0  0  0  0  0
    3.2446    0.8631   26.6084 C   0  0  0  0  0  0  0  0  0  0  0  0
    2.1982    0.5443   27.5030 C   0  0  0  0  0  0  0  0  0  0  0  0
    1.9220   -0.8123   27.7515 C   0  0  0  0  0  0  0  0  0  0  0  0
   -0.9257    0.0331   29.1422 C   0  0  0  0  0  0  0  0  0  0  0  0
   -2.1577    0.2812   29.8597 C   0  0  0  0  0  0  0  0  0  0  0  0
   -7.1896   -0.4399   34.9891 N   0  0  0  0  0  0  0  0  0  0  0  0
   -7.6705    0.6921   35.6008 C   0  0  0  0  0  0  0  0  0  0  0  0
   -8.8118    0.3240   36.2727 C   0  0  0  0  0  0  0  0  0  0  0  0
   -8.9466   -1.0470   36.0067 C   0  0  0  0  0  0  0  0  0  0  0  0
   -7.9660   -1.5147   35.2290 N   0  0  0  0  0  0  0  0  0  0  0  0
   -5.5587    0.4790   34.1735 H   0  0  0  0  0  0  0  0  0  0  0  0
   -6.7918   -1.8994   32.7710 H   0  0  0  0  0  0  0  0  0  0  0  0
   -6.6939   -0.2633   32.2044 H   0  0  0  0  0  0  0  0  0  0  0  0
   -5.2387   -1.9009   31.1360 H   0  0  0  0  0  0  0  0  0  0  0  0
   -4.6546    0.3777   30.9375 H   0  0  0  0  0  0  0  0  0  0  0  0
   -3.7163    0.2543   32.4370 H   0  0  0  0  0  0  0  0  0  0  0  0
   -2.4165   -2.6017   31.5867 H   0  0  0  0  0  0  0  0  0  0  0  0
   -0.3704   -3.0585   30.3877 H   0  0  0  0  0  0  0  0  0  0  0  0
    0.8671   -3.6770   28.8447 H   0  0  0  0  0  0  0  0  0  0  0  0
    4.3044   -2.2351   25.7387 H   0  0  0  0  0  0  0  0  0  0  0  0
    4.7342    0.0982   25.2250 H   0  0  0  0  0  0  0  0  0  0  0  0
    3.4446    1.9073   26.3843 H   0  0  0  0  0  0  0  0  0  0  0  0
    1.6251    1.3356   27.9710 H   0  0  0  0  0  0  0  0  0  0  0  0
   -0.5645    0.8066   28.4706 H   0  0  0  0  0  0  0  0  0  0  0  0
   -2.6351    1.2504   29.7110 H   0  0  0  0  0  0  0  0  0  0  0  0
   -7.1549    1.6391   35.5311 H   0  0  0  0  0  0  0  0  0  0  0  0
   -9.4512    0.9534   36.8751 H   0  0  0  0  0  0  0  0  0  0  0  0
   -9.7236   -1.7229   36.3407 H   0  0  0  0  0  0  0  0  0  0  0  0
  1  2  1  0
  2  3  1  0
  2  4  1  0
  2  5  1  0
  5  6  1  0
  6  7  1  0
  7  8  1  0
  8  9  1  0
  9 10  2  0
 10 11  1  0
 11 12  2  0
 12 13  1  0
 13 14  1  0
 14 15  2  0
 15 16  1  0
 16 17  2  0
 17 18  1  0
 18 19  2  0
 19 20  1  0
 20 21  2  0
 12 22  1  0
 22 23  2  0
  5 24  1  0
 24 25  1  0
 25 26  2  0
 26 27  1  0
 27 28  2  0
 23  9  1  0
 28 24  1  0
 21 13  1  0
 21 16  1  0
  5 29  1  0
  6 30  1  0
  6 31  1  0
  7 32  1  0
  8 33  1  0
  8 34  1  0
 10 35  1  0
 11 36  1  0
 14 37  1  0
 17 38  1  0
 18 39  1  0
 19 40  1  0
 20 41  1  0
 22 42  1  0
 23 43  1  0
 25 44  1  0
 26 45  1  0
 27 46  1  0
M  END
>  <Energy>  (124) 
89.25601339583433

>  <compound_id>  (124) 
10918

>  <target_id>  (124) 
1

>  <reference_id>  (124) 
7

>  <inspiration_ids>  (124) 
[55, 7]

>  <energy_score>  (124) 
-33.54753968369812

>  <distance_score>  (124) 
12.25538907476983

>  <path>  (124) 
/opt/xchem-fragalysis-2/maxwin/BulkDock/SCRATCH/511013/C10918-P7/C10918-P7.minimised.mol

>  <scratch_subdir>  (124) 
/opt/xchem-fragalysis-2/maxwin/BulkDock/SCRATCH/511013/C10918-P7

>  <fragmenstein_runtime>  (124) 
13.190489530563354

>  <fragmenstein_outcome>  (124) 
too moved

>  <fragmenstein_mode>  (124) 
expansion

>  <fragmenstein_error>  (124) 


$$$$
C10919-P55
     RDKit          3D

 39 42  0  0  0  0  0  0  0  0999 V2000
    1.5940    0.4425   28.0507 O   0  0  0  0  0  0  0  0  0  0  0  0
    1.8450   -0.7053   27.7871 C   0  0  0  0  0  0  0  0  0  0  0  0
    0.9904   -1.8303   28.4417 C   0  0  0  0  0  0  0  0  0  0  0  0
   -0.2020   -1.4237   29.2376 N   0  0  0  0  0  0  0  0  0  0  0  0
   -1.2783   -0.6628   28.8381 C   0  0  0  0  0  0  0  0  0  0  0  0
   -2.2055   -0.6956   29.8571 C   0  0  0  0  0  0  0  0  0  0  0  0
   -1.6312   -1.5347   30.8237 C   0  0  0  0  0  0  0  0  0  0  0  0
   -0.4380   -2.0100   30.4475 N   0  0  0  0  0  0  0  0  0  0  0  0
    2.8932   -1.2900   26.9031 N   0  0  0  0  0  0  0  0  0  0  0  0
    3.8426   -0.6637   26.0393 C   0  0  0  0  0  0  0  0  0  0  0  0
    3.9432    0.7238   26.0033 C   0  0  0  0  0  0  0  0  0  0  0  0
    4.6389    1.4000   24.9935 C   0  0  0  0  0  0  0  0  0  0  0  0
    5.2089    0.6378   23.9733 C   0  0  0  0  0  0  0  0  0  0  0  0
    5.3519   -0.7408   24.0857 C   0  0  0  0  0  0  0  0  0  0  0  0
    4.6428   -1.4075   25.1304 C   0  0  0  0  0  0  0  0  0  0  0  0
    6.1823   -1.2004   23.0801 N   0  0  0  0  0  0  0  0  0  0  0  0
    6.3673   -0.1606   22.2861 C   0  0  0  0  0  0  0  0  0  0  0  0
    5.6475    0.9456   22.6963 N   0  0  0  0  0  0  0  0  0  0  0  0
    5.2864    2.0945   21.9233 C   0  0  0  0  0  0  0  0  0  0  0  0
    5.9791    2.4088   20.7599 C   0  0  0  0  0  0  0  0  0  0  0  0
    5.5892    3.4954   19.9635 C   0  0  0  0  0  0  0  0  0  0  0  0
    4.4968    4.2773   20.3187 C   0  0  0  0  0  0  0  0  0  0  0  0
    3.7837    3.9667   21.4675 C   0  0  0  0  0  0  0  0  0  0  0  0
    4.1700    2.8799   22.2583 C   0  0  0  0  0  0  0  0  0  0  0  0
    0.6067   -2.5058   27.6752 H   0  0  0  0  0  0  0  0  0  0  0  0
    1.6394   -2.3906   29.1242 H   0  0  0  0  0  0  0  0  0  0  0  0
   -1.2742   -0.1620   27.8809 H   0  0  0  0  0  0  0  0  0  0  0  0
   -3.1596   -0.1908   29.8887 H   0  0  0  0  0  0  0  0  0  0  0  0
   -2.0324   -1.8315   31.7838 H   0  0  0  0  0  0  0  0  0  0  0  0
    2.7615   -2.2950   26.8490 H   0  0  0  0  0  0  0  0  0  0  0  0
    3.4125    1.3306   26.7351 H   0  0  0  0  0  0  0  0  0  0  0  0
    4.6368    2.4854   24.9774 H   0  0  0  0  0  0  0  0  0  0  0  0
    4.6505   -2.4902   25.1618 H   0  0  0  0  0  0  0  0  0  0  0  0
    6.9288   -0.1876   21.3657 H   0  0  0  0  0  0  0  0  0  0  0  0
    6.8441    1.8316   20.4619 H   0  0  0  0  0  0  0  0  0  0  0  0
    6.1393    3.7352   19.0578 H   0  0  0  0  0  0  0  0  0  0  0  0
    4.1909    5.1127   19.6941 H   0  0  0  0  0  0  0  0  0  0  0  0
    2.9078    4.5512   21.7388 H   0  0  0  0  0  0  0  0  0  0  0  0
    3.5213    2.6390   23.0936 H   0  0  0  0  0  0  0  0  0  0  0  0
  1  2  2  0
  2  3  1  0
  3  4  1  0
  4  5  1  0
  5  6  2  0
  6  7  1  0
  7  8  2  0
  2  9  1  0
  9 10  1  0
 10 11  2  0
 11 12  1  0
 12 13  2  0
 13 14  1  0
 14 15  2  0
 14 16  1  0
 16 17  2  0
 17 18  1  0
 18 19  1  0
 19 20  2  0
 20 21  1  0
 21 22  2  0
 22 23  1  0
 23 24  2  0
  8  4  1  0
 15 10  1  0
 24 19  1  0
 18 13  1  0
  3 25  1  0
  3 26  1  0
  5 27  1  0
  6 28  1  0
  7 29  1  0
  9 30  1  0
 11 31  1  0
 12 32  1  0
 15 33  1  0
 17 34  1  0
 20 35  1  0
 21 36  1  0
 22 37  1  0
 23 38  1  0
 24 39  1  0
M  END
>  <Energy>  (125) 
80.889896383707992

>  <compound_id>  (125) 
10919

>  <target_id>  (125) 
1

>  <reference_id>  (125) 
55

>  <inspiration_ids>  (125) 
[55, 7]

>  <energy_score>  (125) 
-31.328770484469743

>  <distance_score>  (125) 
12.909672534654025

>  <path>  (125) 
/opt/xchem-fragalysis-2/maxwin/BulkDock/SCRATCH/511013/C10919-P55/C10919-P55.minimised.mol

>  <scratch_subdir>  (125) 
/opt/xchem-fragalysis-2/maxwin/BulkDock/SCRATCH/511013/C10919-P55

>  <fragmenstein_runtime>  (125) 
9.58980393409729

>  <fragmenstein_outcome>  (125) 
too moved

>  <fragmenstein_mode>  (125) 
expansion

>  <fragmenstein_error>  (125) 


$$$$
C10919-P7
     RDKit          3D

 39 42  0  0  0  0  0  0  0  0999 V2000
    1.8440    0.6382   27.7829 O   0  0  0  0  0  0  0  0  0  0  0  0
    1.9812   -0.5382   27.5702 C   0  0  0  0  0  0  0  0  0  0  0  0
    1.0599   -1.5729   28.2896 C   0  0  0  0  0  0  0  0  0  0  0  0
   -0.1185   -1.0883   29.0588 N   0  0  0  0  0  0  0  0  0  0  0  0
   -1.1226   -0.2398   28.6512 C   0  0  0  0  0  0  0  0  0  0  0  0
   -2.0907   -0.2477   29.6326 C   0  0  0  0  0  0  0  0  0  0  0  0
   -1.6142   -1.1584   30.5872 C   0  0  0  0  0  0  0  0  0  0  0  0
   -0.4395   -1.6961   30.2398 N   0  0  0  0  0  0  0  0  0  0  0  0
    2.9602   -1.2590   26.7116 N   0  0  0  0  0  0  0  0  0  0  0  0
    4.0778   -0.7808   25.9646 C   0  0  0  0  0  0  0  0  0  0  0  0
    4.4012    0.5661   25.8469 C   0  0  0  0  0  0  0  0  0  0  0  0
    5.5629    1.0171   25.1713 C   0  0  0  0  0  0  0  0  0  0  0  0
    6.4338    0.0761   24.5949 C   0  0  0  0  0  0  0  0  0  0  0  0
    6.1209   -1.2833   24.6620 C   0  0  0  0  0  0  0  0  0  0  0  0
    4.9346   -1.7037   25.3273 C   0  0  0  0  0  0  0  0  0  0  0  0
    7.1142   -2.0421   24.0990 N   0  0  0  0  0  0  0  0  0  0  0  0
    8.0681   -1.1885   23.8112 C   0  0  0  0  0  0  0  0  0  0  0  0
    7.7123    0.1265   24.0332 N   0  0  0  0  0  0  0  0  0  0  0  0
    8.5632    1.2564   23.8358 C   0  0  0  0  0  0  0  0  0  0  0  0
    8.0397    2.5476   23.7028 C   0  0  0  0  0  0  0  0  0  0  0  0
    8.8915    3.6502   23.5795 C   0  0  0  0  0  0  0  0  0  0  0  0
   10.2713    3.4707   23.5501 C   0  0  0  0  0  0  0  0  0  0  0  0
   10.8029    2.1884   23.6439 C   0  0  0  0  0  0  0  0  0  0  0  0
    9.9572    1.0852   23.7889 C   0  0  0  0  0  0  0  0  0  0  0  0
    0.6543   -2.2847   27.5693 H   0  0  0  0  0  0  0  0  0  0  0  0
    1.6848   -2.1166   29.0084 H   0  0  0  0  0  0  0  0  0  0  0  0
   -1.0461    0.2958   27.7159 H   0  0  0  0  0  0  0  0  0  0  0  0
   -3.0091    0.3202   29.6485 H   0  0  0  0  0  0  0  0  0  0  0  0
   -2.0732   -1.4626   31.5185 H   0  0  0  0  0  0  0  0  0  0  0  0
    2.7317   -2.2486   26.7031 H   0  0  0  0  0  0  0  0  0  0  0  0
    3.7703    1.3155   26.3232 H   0  0  0  0  0  0  0  0  0  0  0  0
    5.7875    2.0767   25.2091 H   0  0  0  0  0  0  0  0  0  0  0  0
    4.7344   -2.7671   25.3976 H   0  0  0  0  0  0  0  0  0  0  0  0
    9.0410   -1.4824   23.4528 H   0  0  0  0  0  0  0  0  0  0  0  0
    6.9732    2.7332   23.6459 H   0  0  0  0  0  0  0  0  0  0  0  0
    8.4746    4.6505   23.4925 H   0  0  0  0  0  0  0  0  0  0  0  0
   10.9341    4.3259   23.4422 H   0  0  0  0  0  0  0  0  0  0  0  0
   11.8812    2.0446   23.6188 H   0  0  0  0  0  0  0  0  0  0  0  0
   10.4323    0.1140   23.9092 H   0  0  0  0  0  0  0  0  0  0  0  0
  1  2  2  0
  2  3  1  0
  3  4  1  0
  4  5  1  0
  5  6  2  0
  6  7  1  0
  7  8  2  0
  2  9  1  0
  9 10  1  0
 10 11  2  0
 11 12  1  0
 12 13  2  0
 13 14  1  0
 14 15  2  0
 14 16  1  0
 16 17  2  0
 17 18  1  0
 18 19  1  0
 19 20  2  0
 20 21  1  0
 21 22  2  0
 22 23  1  0
 23 24  2  0
  8  4  1  0
 15 10  1  0
 24 19  1  0
 18 13  1  0
  3 25  1  0
  3 26  1  0
  5 27  1  0
  6 28  1  0
  7 29  1  0
  9 30  1  0
 11 31  1  0
 12 32  1  0
 15 33  1  0
 17 34  1  0
 20 35  1  0
 21 36  1  0
 22 37  1  0
 23 38  1  0
 24 39  1  0
M  END
>  <Energy>  (126) 
74.759205043715781

>  <compound_id>  (126) 
10919

>  <target_id>  (126) 
1

>  <reference_id>  (126) 
7

>  <inspiration_ids>  (126) 
[55, 7]

>  <energy_score>  (126) 
-37.45946182446079

>  <distance_score>  (126) 
12.957360148342865

>  <path>  (126) 
/opt/xchem-fragalysis-2/maxwin/BulkDock/SCRATCH/511013/C10919-P7/C10919-P7.minimised.mol

>  <scratch_subdir>  (126) 
/opt/xchem-fragalysis-2/maxwin/BulkDock/SCRATCH/511013/C10919-P7

>  <fragmenstein_runtime>  (126) 
12.168509244918823

>  <fragmenstein_outcome>  (126) 
too moved

>  <fragmenstein_mode>  (126) 
expansion

>  <fragmenstein_error>  (126) 


$$$$
C10921-P55
     RDKit          3D

 46 49  0  0  0  0  0  0  0  0999 V2000
   -1.3744   -2.7863   32.3117 C   0  0  0  0  0  0  0  0  0  0  0  0
   -1.7177   -1.4218   31.9111 N   0  0  0  0  0  0  0  0  0  0  0  0
   -3.1888   -1.1626   32.1763 C   0  0  0  0  0  0  0  0  0  0  0  0
   -3.6383   -1.2135   33.6658 C   0  0  0  0  0  0  0  0  0  0  0  0
   -5.0219   -0.8362   33.9216 N   0  0  0  0  0  0  0  0  0  0  0  0
   -6.1212   -1.6243   33.7311 C   0  0  0  0  0  0  0  0  0  0  0  0
   -7.1625   -1.0048   34.3805 C   0  0  0  0  0  0  0  0  0  0  0  0
   -6.6061    0.1752   34.8954 C   0  0  0  0  0  0  0  0  0  0  0  0
   -5.3072    0.2922   34.6050 N   0  0  0  0  0  0  0  0  0  0  0  0
   -1.3257   -1.1897   30.4436 C   0  0  0  0  0  0  0  0  0  0  0  0
    0.1703   -1.1378   29.9341 C   0  0  0  0  0  0  0  0  0  0  0  0
    0.5369   -1.6757   28.6692 C   0  0  0  0  0  0  0  0  0  0  0  0
    1.8295   -1.4771   28.0275 C   0  0  0  0  0  0  0  0  0  0  0  0
    2.8391   -0.7065   28.6082 C   0  0  0  0  0  0  0  0  0  0  0  0
    4.1729   -0.4322   27.9757 N   0  0  0  0  0  0  0  0  0  0  0  0
    5.1935    0.2579   28.6289 C   0  0  0  0  0  0  0  0  0  0  0  0
    6.3100    0.3891   27.9510 N   0  0  0  0  0  0  0  0  0  0  0  0
    6.0698   -0.2228   26.7628 C   0  0  0  0  0  0  0  0  0  0  0  0
    6.9727   -0.3450   25.6798 C   0  0  0  0  0  0  0  0  0  0  0  0
    6.5476   -0.9301   24.4997 C   0  0  0  0  0  0  0  0  0  0  0  0
    5.2372   -1.3743   24.4297 C   0  0  0  0  0  0  0  0  0  0  0  0
    4.3287   -1.3114   25.5151 C   0  0  0  0  0  0  0  0  0  0  0  0
    4.7528   -0.7223   26.7109 C   0  0  0  0  0  0  0  0  0  0  0  0
    2.4824   -0.1842   29.8853 C   0  0  0  0  0  0  0  0  0  0  0  0
    1.1915   -0.3871   30.5244 C   0  0  0  0  0  0  0  0  0  0  0  0
   -1.8594   -3.5320   31.6782 H   0  0  0  0  0  0  0  0  0  0  0  0
   -0.2924   -2.9372   32.2237 H   0  0  0  0  0  0  0  0  0  0  0  0
   -1.6152   -2.9868   33.3590 H   0  0  0  0  0  0  0  0  0  0  0  0
   -3.7860   -1.8796   31.6022 H   0  0  0  0  0  0  0  0  0  0  0  0
   -3.4141   -0.1573   31.8020 H   0  0  0  0  0  0  0  0  0  0  0  0
   -3.0032   -0.5489   34.2640 H   0  0  0  0  0  0  0  0  0  0  0  0
   -3.5275   -2.2256   34.0704 H   0  0  0  0  0  0  0  0  0  0  0  0
   -6.0532   -2.5540   33.1881 H   0  0  0  0  0  0  0  0  0  0  0  0
   -8.1773   -1.3614   34.4706 H   0  0  0  0  0  0  0  0  0  0  0  0
   -7.0870    0.9515   35.4756 H   0  0  0  0  0  0  0  0  0  0  0  0
   -1.7382   -0.2129   30.1575 H   0  0  0  0  0  0  0  0  0  0  0  0
   -1.8519   -1.9409   29.8396 H   0  0  0  0  0  0  0  0  0  0  0  0
   -0.2020   -2.2517   28.1082 H   0  0  0  0  0  0  0  0  0  0  0  0
    1.9783   -1.9485   27.0603 H   0  0  0  0  0  0  0  0  0  0  0  0
    5.0734    0.6395   29.6309 H   0  0  0  0  0  0  0  0  0  0  0  0
    7.9779    0.0477   25.7823 H   0  0  0  0  0  0  0  0  0  0  0  0
    7.2055   -1.0024   23.6434 H   0  0  0  0  0  0  0  0  0  0  0  0
    4.8610   -1.7505   23.4881 H   0  0  0  0  0  0  0  0  0  0  0  0
    3.3201   -1.6767   25.3734 H   0  0  0  0  0  0  0  0  0  0  0  0
    3.1742    0.4411   30.4454 H   0  0  0  0  0  0  0  0  0  0  0  0
    1.0063    0.1024   31.4803 H   0  0  0  0  0  0  0  0  0  0  0  0
  1  2  1  0
  2  3  1  0
  3  4  1  0
  4  5  1  0
  5  6  1  0
  6  7  2  0
  7  8  1  0
  8  9  2  0
  2 10  1  0
 10 11  1  0
 11 12  2  0
 12 13  1  0
 13 14  2  0
 14 15  1  0
 15 16  1  0
 16 17  2  0
 17 18  1  0
 18 19  2  0
 19 20  1  0
 20 21  2  0
 21 22  1  0
 22 23  2  0
 14 24  1  0
 24 25  2  0
  9  5  1  0
 25 11  1  0
 23 15  1  0
 23 18  1  0
  1 26  1  0
  1 27  1  0
  1 28  1  0
  3 29  1  0
  3 30  1  0
  4 31  1  0
  4 32  1  0
  6 33  1  0
  7 34  1  0
  8 35  1  0
 10 36  1  0
 10 37  1  0
 12 38  1  0
 13 39  1  0
 16 40  1  0
 19 41  1  0
 20 42  1  0
 21 43  1  0
 22 44  1  0
 24 45  1  0
 25 46  1  0
M  END
>  <Energy>  (127) 
108.52655144556518

>  <compound_id>  (127) 
10921

>  <target_id>  (127) 
1

>  <reference_id>  (127) 
55

>  <inspiration_ids>  (127) 
[55, 7]

>  <energy_score>  (127) 
-15.621105915308448

>  <distance_score>  (127) 
11.373467926845441

>  <path>  (127) 
/opt/xchem-fragalysis-2/maxwin/BulkDock/SCRATCH/511013/C10921-P55/C10921-P55.minimised.mol

>  <scratch_subdir>  (127) 
/opt/xchem-fragalysis-2/maxwin/BulkDock/SCRATCH/511013/C10921-P55

>  <fragmenstein_runtime>  (127) 
9.598373413085938

>  <fragmenstein_outcome>  (127) 
too moved

>  <fragmenstein_mode>  (127) 
expansion

>  <fragmenstein_error>  (127) 


$$$$
C10921-P7
     RDKit          3D

 46 49  0  0  0  0  0  0  0  0999 V2000
   -2.9124   -2.3646   33.2635 C   0  0  0  0  0  0  0  0  0  0  0  0
   -3.5230   -1.3442   32.4039 N   0  0  0  0  0  0  0  0  0  0  0  0
   -4.5791   -0.6188   33.2379 C   0  0  0  0  0  0  0  0  0  0  0  0
   -5.8513   -1.4216   33.6458 C   0  0  0  0  0  0  0  0  0  0  0  0
   -6.7912   -0.7602   34.5498 N   0  0  0  0  0  0  0  0  0  0  0  0
   -6.9345    0.5738   34.8111 C   0  0  0  0  0  0  0  0  0  0  0  0
   -7.9621    0.6930   35.7181 C   0  0  0  0  0  0  0  0  0  0  0  0
   -8.3759   -0.6258   35.9577 C   0  0  0  0  0  0  0  0  0  0  0  0
   -7.6641   -1.5145   35.2611 N   0  0  0  0  0  0  0  0  0  0  0  0
   -2.4535   -0.3504   31.9056 C   0  0  0  0  0  0  0  0  0  0  0  0
   -1.3134   -0.6523   30.8619 C   0  0  0  0  0  0  0  0  0  0  0  0
   -0.3199    0.3454   30.6105 C   0  0  0  0  0  0  0  0  0  0  0  0
    0.7440    0.2346   29.6304 C   0  0  0  0  0  0  0  0  0  0  0  0
    0.8902   -0.9094   28.8479 C   0  0  0  0  0  0  0  0  0  0  0  0
    2.0178   -1.1382   27.9015 N   0  0  0  0  0  0  0  0  0  0  0  0
    2.4085   -2.4106   27.5233 C   0  0  0  0  0  0  0  0  0  0  0  0
    3.4623   -2.4576   26.7496 N   0  0  0  0  0  0  0  0  0  0  0  0
    3.7893   -1.1669   26.5099 C   0  0  0  0  0  0  0  0  0  0  0  0
    4.8164   -0.6902   25.6694 C   0  0  0  0  0  0  0  0  0  0  0  0
    5.0005    0.6790   25.5326 C   0  0  0  0  0  0  0  0  0  0  0  0
    4.1725    1.5482   26.2380 C   0  0  0  0  0  0  0  0  0  0  0  0
    3.1441    1.0876   27.0968 C   0  0  0  0  0  0  0  0  0  0  0  0
    2.9501   -0.2975   27.2352 C   0  0  0  0  0  0  0  0  0  0  0  0
   -0.1108   -1.8996   29.0742 C   0  0  0  0  0  0  0  0  0  0  0  0
   -1.1879   -1.7702   30.0388 C   0  0  0  0  0  0  0  0  0  0  0  0
   -2.1365   -2.9087   32.7149 H   0  0  0  0  0  0  0  0  0  0  0  0
   -3.6415   -3.1130   33.5824 H   0  0  0  0  0  0  0  0  0  0  0  0
   -2.4488   -1.9302   34.1566 H   0  0  0  0  0  0  0  0  0  0  0  0
   -4.9160    0.2505   32.6629 H   0  0  0  0  0  0  0  0  0  0  0  0
   -4.0997   -0.2161   34.1406 H   0  0  0  0  0  0  0  0  0  0  0  0
   -5.5500   -2.3370   34.1626 H   0  0  0  0  0  0  0  0  0  0  0  0
   -6.4219   -1.6880   32.7498 H   0  0  0  0  0  0  0  0  0  0  0  0
   -6.3079    1.3151   34.3398 H   0  0  0  0  0  0  0  0  0  0  0  0
   -8.3564    1.6019   36.1491 H   0  0  0  0  0  0  0  0  0  0  0  0
   -9.1662   -0.9753   36.6095 H   0  0  0  0  0  0  0  0  0  0  0  0
   -3.0165    0.4562   31.4239 H   0  0  0  0  0  0  0  0  0  0  0  0
   -1.9642    0.0775   32.7910 H   0  0  0  0  0  0  0  0  0  0  0  0
   -0.3532    1.2692   31.1908 H   0  0  0  0  0  0  0  0  0  0  0  0
    1.4560    1.0524   29.5582 H   0  0  0  0  0  0  0  0  0  0  0  0
    1.8928   -3.2910   27.8735 H   0  0  0  0  0  0  0  0  0  0  0  0
    5.4238   -1.4013   25.1218 H   0  0  0  0  0  0  0  0  0  0  0  0
    5.7674    1.0597   24.8670 H   0  0  0  0  0  0  0  0  0  0  0  0
    4.3102    2.6210   26.1163 H   0  0  0  0  0  0  0  0  0  0  0  0
    2.5027    1.8012   27.6012 H   0  0  0  0  0  0  0  0  0  0  0  0
   -0.1296   -2.8068   28.4690 H   0  0  0  0  0  0  0  0  0  0  0  0
   -1.9241   -2.5688   30.0933 H   0  0  0  0  0  0  0  0  0  0  0  0
  1  2  1  0
  2  3  1  0
  3  4  1  0
  4  5  1  0
  5  6  1  0
  6  7  2  0
  7  8  1  0
  8  9  2  0
  2 10  1  0
 10 11  1  0
 11 12  2  0
 12 13  1  0
 13 14  2  0
 14 15  1  0
 15 16  1  0
 16 17  2  0
 17 18  1  0
 18 19  2  0
 19 20  1  0
 20 21  2  0
 21 22  1  0
 22 23  2  0
 14 24  1  0
 24 25  2  0
  9  5  1  0
 25 11  1  0
 23 15  1  0
 23 18  1  0
  1 26  1  0
  1 27  1  0
  1 28  1  0
  3 29  1  0
  3 30  1  0
  4 31  1  0
  4 32  1  0
  6 33  1  0
  7 34  1  0
  8 35  1  0
 10 36  1  0
 10 37  1  0
 12 38  1  0
 13 39  1  0
 16 40  1  0
 19 41  1  0
 20 42  1  0
 21 43  1  0
 22 44  1  0
 24 45  1  0
 25 46  1  0
M  END
>  <Energy>  (128) 
110.54883845351389

>  <compound_id>  (128) 
10921

>  <target_id>  (128) 
1

>  <reference_id>  (128) 
7

>  <inspiration_ids>  (128) 
[55, 7]

>  <energy_score>  (128) 
-13.5988189073625

>  <distance_score>  (128) 
11.722888580111194

>  <path>  (128) 
/opt/xchem-fragalysis-2/maxwin/BulkDock/SCRATCH/511013/C10921-P7/C10921-P7.minimised.mol

>  <scratch_subdir>  (128) 
/opt/xchem-fragalysis-2/maxwin/BulkDock/SCRATCH/511013/C10921-P7

>  <fragmenstein_runtime>  (128) 
12.466786623001099

>  <fragmenstein_outcome>  (128) 
too moved

>  <fragmenstein_mode>  (128) 
expansion

>  <fragmenstein_error>  (128) 


$$$$
C10922-P55
     RDKit          3D

 45 47  0  0  0  0  0  0  0  0999 V2000
   -3.8197   -8.6783   28.5227 C   0  0  0  0  0  0  0  0  0  0  0  0
   -3.2535   -7.6726   29.5345 C   0  0  0  0  0  0  0  0  0  0  0  0
   -4.6350   -7.5372   31.0331 C   0  0  0  0  0  0  0  0  0  0  0  0
   -6.4837   -7.2493   31.4763 N   0  0  0  0  0  0  0  0  0  0  0  0
   -7.2980   -6.9427   33.0681 C   0  0  0  0  0  0  0  0  0  0  0  0
   -6.6863   -6.7947   34.1048 O   0  0  0  0  0  0  0  0  0  0  0  0
   -9.2912   -6.7334   33.4090 C   0  0  0  0  0  0  0  0  0  0  0  0
  -10.7499   -6.0139   34.5725 N   0  0  0  0  0  0  0  0  0  0  0  0
  -11.6917   -4.5466   34.9145 C   0  0  0  0  0  0  0  0  0  0  0  0
  -12.6597   -4.6533   35.8059 C   0  0  0  0  0  0  0  0  0  0  0  0
  -12.9030   -5.8695   35.2986 C   0  0  0  0  0  0  0  0  0  0  0  0
  -11.7988   -6.6734   35.1091 N   0  0  0  0  0  0  0  0  0  0  0  0
   -1.5403   -6.9078   28.7290 C   0  0  0  0  0  0  0  0  0  0  0  0
   -0.3551   -6.6825   27.2393 N   0  0  0  0  0  0  0  0  0  0  0  0
    0.8505   -5.3758   26.8459 C   0  0  0  0  0  0  0  0  0  0  0  0
    0.9482   -4.3927   27.5320 O   0  0  0  0  0  0  0  0  0  0  0  0
    2.2956   -5.3528   25.4213 C   0  0  0  0  0  0  0  0  0  0  0  0
    3.3291   -6.6520   24.5468 C   0  0  0  0  0  0  0  0  0  0  0  0
    4.8370   -6.8918   23.8020 C   0  0  0  0  0  0  0  0  0  0  0  0
    5.4662   -5.4704   24.1818 C   0  0  0  0  0  0  0  0  0  0  0  0
    4.4609   -3.9264   24.7705 C   0  0  0  0  0  0  0  0  0  0  0  0
    4.7611   -2.4787   24.7288 N   0  0  0  0  0  0  0  0  0  0  0  0
    3.9422   -1.7972   25.5675 C   0  0  0  0  0  0  0  0  0  0  0  0
    3.0047   -2.5696   26.0399 N   0  0  0  0  0  0  0  0  0  0  0  0
    3.0826   -3.7304   25.2805 C   0  0  0  0  0  0  0  0  0  0  0  0
   -3.8740   -9.6770   28.9691 H   0  0  0  0  0  0  0  0  0  0  0  0
   -3.1844   -8.7420   27.6356 H   0  0  0  0  0  0  0  0  0  0  0  0
   -4.8326   -8.4083   28.2165 H   0  0  0  0  0  0  0  0  0  0  0  0
   -2.6307   -8.2985   30.2041 H   0  0  0  0  0  0  0  0  0  0  0  0
   -4.6349   -8.5989   31.3232 H   0  0  0  0  0  0  0  0  0  0  0  0
   -4.1238   -7.0142   31.8536 H   0  0  0  0  0  0  0  0  0  0  0  0
   -7.1910   -7.4226   30.7736 H   0  0  0  0  0  0  0  0  0  0  0  0
   -9.6990   -7.7350   33.3072 H   0  0  0  0  0  0  0  0  0  0  0  0
   -8.8238   -6.5216   34.3623 H   0  0  0  0  0  0  0  0  0  0  0  0
  -11.5070   -3.5783   34.4255 H   0  0  0  0  0  0  0  0  0  0  0  0
  -13.2349   -3.9075   36.3236 H   0  0  0  0  0  0  0  0  0  0  0  0
  -13.8602   -6.3284   35.3943 H   0  0  0  0  0  0  0  0  0  0  0  0
   -1.1104   -6.1938   29.4416 H   0  0  0  0  0  0  0  0  0  0  0  0
   -0.9882   -7.8278   28.9929 H   0  0  0  0  0  0  0  0  0  0  0  0
   -0.2198   -7.4554   26.5934 H   0  0  0  0  0  0  0  0  0  0  0  0
    3.7223   -5.7968   25.0268 H   0  0  0  0  0  0  0  0  0  0  0  0
    5.2584   -7.7323   24.2871 H   0  0  0  0  0  0  0  0  0  0  0  0
    6.4678   -5.2311   23.7066 H   0  0  0  0  0  0  0  0  0  0  0  0
    5.6636   -2.1500   24.4533 H   0  0  0  0  0  0  0  0  0  0  0  0
    4.1021   -0.7599   25.8212 H   0  0  0  0  0  0  0  0  0  0  0  0
  1  2  1  0
  2  3  1  0
  3  4  1  0
  4  5  1  0
  5  6  2  0
  5  7  1  0
  7  8  1  0
  8  9  1  0
  9 10  2  0
 10 11  1  0
 11 12  2  0
  2 13  1  0
 13 14  1  0
 14 15  1  0
 15 16  2  0
 15 17  1  0
 17 18  2  0
 18 19  1  0
 19 20  2  0
 20 21  1  0
 21 22  1  0
 22 23  1  0
 23 24  2  0
 24 25  1  0
 12  8  1  0
 25 17  1  0
 25 21  2  0
  1 26  1  0
  1 27  1  0
  1 28  1  0
  2 29  1  0
  3 30  1  0
  3 31  1  0
  4 32  1  0
  7 33  1  0
  7 34  1  0
  9 35  1  0
 10 36  1  0
 11 37  1  0
 13 38  1  0
 13 39  1  0
 14 40  1  0
 18 41  1  0
 19 42  1  0
 20 43  1  0
 22 44  1  0
 23 45  1  0
M  END
>  <Energy>  (129) 
1267.6550560202136

>  <compound_id>  (129) 
10922

>  <target_id>  (129) 
1

>  <reference_id>  (129) 
55

>  <inspiration_ids>  (129) 
[55, 7]

>  <energy_score>  (129) 
1200.3226792255823

>  <distance_score>  (129) 
10.446394611668074

>  <path>  (129) 
/opt/xchem-fragalysis-2/maxwin/BulkDock/SCRATCH/511013/C10922-P55/C10922-P55.minimised.mol

>  <scratch_subdir>  (129) 
/opt/xchem-fragalysis-2/maxwin/BulkDock/SCRATCH/511013/C10922-P55

>  <fragmenstein_runtime>  (129) 
19.210959911346436

>  <fragmenstein_outcome>  (129) 
too moved

>  <fragmenstein_mode>  (129) 
expansion

>  <fragmenstein_error>  (129) 


$$$$
C10922-P7
     RDKit          3D

 45 47  0  0  0  0  0  0  0  0999 V2000
    3.7363   -1.2991   26.9301 C   0  0  0  0  0  0  0  0  0  0  0  0
    4.3510   -1.4702   28.3192 C   0  0  0  0  0  0  0  0  0  0  0  0
    3.4095   -0.8551   29.4162 C   0  0  0  0  0  0  0  0  0  0  0  0
    2.0360   -1.3615   29.5844 N   0  0  0  0  0  0  0  0  0  0  0  0
    1.0580   -1.1510   30.6646 C   0  0  0  0  0  0  0  0  0  0  0  0
    1.1653   -0.5792   31.7142 O   0  0  0  0  0  0  0  0  0  0  0  0
   -0.3157   -1.7866   30.3054 C   0  0  0  0  0  0  0  0  0  0  0  0
   -1.4148   -1.5935   31.2866 N   0  0  0  0  0  0  0  0  0  0  0  0
   -1.9441   -0.4064   31.7404 C   0  0  0  0  0  0  0  0  0  0  0  0
   -3.0330   -0.7179   32.5233 C   0  0  0  0  0  0  0  0  0  0  0  0
   -3.1256   -2.1159   32.4499 C   0  0  0  0  0  0  0  0  0  0  0  0
   -2.1781   -2.6550   31.6735 N   0  0  0  0  0  0  0  0  0  0  0  0
    5.7458   -0.7617   28.3939 C   0  0  0  0  0  0  0  0  0  0  0  0
    6.8790   -1.2227   27.5813 N   0  0  0  0  0  0  0  0  0  0  0  0
    8.2655   -0.7743   27.5373 C   0  0  0  0  0  0  0  0  0  0  0  0
    8.8475    0.0293   28.2093 O   0  0  0  0  0  0  0  0  0  0  0  0
    9.1538   -1.4366   26.5067 C   0  0  0  0  0  0  0  0  0  0  0  0
    9.2072   -2.8393   26.3899 C   0  0  0  0  0  0  0  0  0  0  0  0
   10.1019   -3.4810   25.5150 C   0  0  0  0  0  0  0  0  0  0  0  0
   10.9712   -2.7580   24.7048 C   0  0  0  0  0  0  0  0  0  0  0  0
   10.9389   -1.3730   24.8498 C   0  0  0  0  0  0  0  0  0  0  0  0
   11.6807   -0.3954   24.2305 N   0  0  0  0  0  0  0  0  0  0  0  0
   11.2744    0.8105   24.7040 C   0  0  0  0  0  0  0  0  0  0  0  0
   10.3241    0.6713   25.6007 N   0  0  0  0  0  0  0  0  0  0  0  0
   10.0835   -0.6917   25.7194 C   0  0  0  0  0  0  0  0  0  0  0  0
    3.5293   -0.2453   26.7152 H   0  0  0  0  0  0  0  0  0  0  0  0
    4.4033   -1.6730   26.1483 H   0  0  0  0  0  0  0  0  0  0  0  0
    2.7953   -1.8515   26.8513 H   0  0  0  0  0  0  0  0  0  0  0  0
    4.4821   -2.5393   28.5203 H   0  0  0  0  0  0  0  0  0  0  0  0
    3.3023    0.2222   29.2386 H   0  0  0  0  0  0  0  0  0  0  0  0
    3.8852   -0.9549   30.3991 H   0  0  0  0  0  0  0  0  0  0  0  0
    1.5758   -1.8194   28.8035 H   0  0  0  0  0  0  0  0  0  0  0  0
   -0.6815   -1.3568   29.3667 H   0  0  0  0  0  0  0  0  0  0  0  0
   -0.1811   -2.8676   30.1899 H   0  0  0  0  0  0  0  0  0  0  0  0
   -1.4836    0.5390   31.4894 H   0  0  0  0  0  0  0  0  0  0  0  0
   -3.6685   -0.0293   33.0602 H   0  0  0  0  0  0  0  0  0  0  0  0
   -3.8496   -2.7681   32.9198 H   0  0  0  0  0  0  0  0  0  0  0  0
    6.1064   -0.7939   29.4293 H   0  0  0  0  0  0  0  0  0  0  0  0
    5.6253    0.3022   28.1539 H   0  0  0  0  0  0  0  0  0  0  0  0
    6.7092   -1.8595   26.8016 H   0  0  0  0  0  0  0  0  0  0  0  0
    8.5750   -3.4377   27.0427 H   0  0  0  0  0  0  0  0  0  0  0  0
   10.1538   -4.5668   25.4904 H   0  0  0  0  0  0  0  0  0  0  0  0
   11.6639   -3.2465   24.0270 H   0  0  0  0  0  0  0  0  0  0  0  0
   12.3346   -0.5665   23.4765 H   0  0  0  0  0  0  0  0  0  0  0  0
   11.6929    1.7479   24.3630 H   0  0  0  0  0  0  0  0  0  0  0  0
  1  2  1  0
  2  3  1  0
  3  4  1  0
  4  5  1  0
  5  6  2  0
  5  7  1  0
  7  8  1  0
  8  9  1  0
  9 10  2  0
 10 11  1  0
 11 12  2  0
  2 13  1  0
 13 14  1  0
 14 15  1  0
 15 16  2  0
 15 17  1  0
 17 18  2  0
 18 19  1  0
 19 20  2  0
 20 21  1  0
 21 22  1  0
 22 23  1  0
 23 24  2  0
 24 25  1  0
 12  8  1  0
 25 17  1  0
 25 21  2  0
  1 26  1  0
  1 27  1  0
  1 28  1  0
  2 29  1  0
  3 30  1  0
  3 31  1  0
  4 32  1  0
  7 33  1  0
  7 34  1  0
  9 35  1  0
 10 36  1  0
 11 37  1  0
 13 38  1  0
 13 39  1  0
 14 40  1  0
 18 41  1  0
 19 42  1  0
 20 43  1  0
 22 44  1  0
 23 45  1  0
M  END
>  <Energy>  (130) 
55.14620645242244

>  <compound_id>  (130) 
10922

>  <target_id>  (130) 
1

>  <reference_id>  (130) 
7

>  <inspiration_ids>  (130) 
[55, 7]

>  <energy_score>  (130) 
-12.186170342201791

>  <distance_score>  (130) 
11.804380755620377

>  <path>  (130) 
/opt/xchem-fragalysis-2/maxwin/BulkDock/SCRATCH/511013/C10922-P7/C10922-P7.minimised.mol

>  <scratch_subdir>  (130) 
/opt/xchem-fragalysis-2/maxwin/BulkDock/SCRATCH/511013/C10922-P7

>  <fragmenstein_runtime>  (130) 
15.77802062034607

>  <fragmenstein_outcome>  (130) 
too moved

>  <fragmenstein_mode>  (130) 
expansion

>  <fragmenstein_error>  (130) 


$$$$
C10925-P55
     RDKit          3D

 44 46  0  0  0  0  0  0  0  0999 V2000
   -1.7765   -0.7877   28.4980 C   0  0  0  0  0  0  0  0  0  0  0  0
   -0.3759   -0.9038   28.9328 N   0  0  0  0  0  0  0  0  0  0  0  0
   -1.0443   -0.5495   30.3719 C   0  0  0  0  0  0  0  0  0  0  0  0
   -2.3683   -1.2942   31.0024 C   0  0  0  0  0  0  0  0  0  0  0  0
   -2.7626   -0.8333   32.4348 C   0  0  0  0  0  0  0  0  0  0  0  0
   -4.1691   -0.9918   32.8022 N   0  0  0  0  0  0  0  0  0  0  0  0
   -4.6792   -1.5882   33.9276 C   0  0  0  0  0  0  0  0  0  0  0  0
   -6.0231   -1.2890   33.9531 C   0  0  0  0  0  0  0  0  0  0  0  0
   -6.2330   -0.5188   32.7989 C   0  0  0  0  0  0  0  0  0  0  0  0
   -5.1123   -0.3408   32.0949 N   0  0  0  0  0  0  0  0  0  0  0  0
    0.7722   -0.0392   28.6776 C   0  0  0  0  0  0  0  0  0  0  0  0
    0.8379    1.0318   28.1229 O   0  0  0  0  0  0  0  0  0  0  0  0
    2.1398   -0.6534   29.0986 C   0  0  0  0  0  0  0  0  0  0  0  0
    3.1022   -0.9320   27.8694 C   0  0  0  0  0  0  0  0  0  0  0  0
    4.2469   -0.0443   27.5806 N   0  0  0  0  0  0  0  0  0  0  0  0
    4.1360    1.2806   27.2319 C   0  0  0  0  0  0  0  0  0  0  0  0
    5.2934    1.8328   26.9294 N   0  0  0  0  0  0  0  0  0  0  0  0
    6.2144    0.8201   27.0352 C   0  0  0  0  0  0  0  0  0  0  0  0
    7.6069    0.8471   26.7880 C   0  0  0  0  0  0  0  0  0  0  0  0
    8.3386   -0.3441   26.8276 C   0  0  0  0  0  0  0  0  0  0  0  0
    7.7039   -1.5286   27.1855 C   0  0  0  0  0  0  0  0  0  0  0  0
    6.3352   -1.5551   27.5183 C   0  0  0  0  0  0  0  0  0  0  0  0
    5.5903   -0.3736   27.4073 C   0  0  0  0  0  0  0  0  0  0  0  0
   -2.3017    0.1545   28.7154 H   0  0  0  0  0  0  0  0  0  0  0  0
   -1.6891   -0.7231   27.4054 H   0  0  0  0  0  0  0  0  0  0  0  0
   -2.3331   -1.7186   28.6416 H   0  0  0  0  0  0  0  0  0  0  0  0
   -1.1678    0.5449   30.4296 H   0  0  0  0  0  0  0  0  0  0  0  0
   -0.2250   -0.7663   31.0727 H   0  0  0  0  0  0  0  0  0  0  0  0
   -2.1888   -2.3760   31.0005 H   0  0  0  0  0  0  0  0  0  0  0  0
   -3.2387   -1.1121   30.3637 H   0  0  0  0  0  0  0  0  0  0  0  0
   -2.5510    0.2366   32.5501 H   0  0  0  0  0  0  0  0  0  0  0  0
   -2.1607   -1.3723   33.1747 H   0  0  0  0  0  0  0  0  0  0  0  0
   -4.0496   -2.1391   34.6120 H   0  0  0  0  0  0  0  0  0  0  0  0
   -6.7485   -1.5748   34.6987 H   0  0  0  0  0  0  0  0  0  0  0  0
   -7.1486   -0.0702   32.4400 H   0  0  0  0  0  0  0  0  0  0  0  0
    1.9393   -1.6069   29.6011 H   0  0  0  0  0  0  0  0  0  0  0  0
    2.6148    0.0163   29.8230 H   0  0  0  0  0  0  0  0  0  0  0  0
    3.5388   -1.9261   28.0208 H   0  0  0  0  0  0  0  0  0  0  0  0
    2.5251   -0.9755   26.9386 H   0  0  0  0  0  0  0  0  0  0  0  0
    3.1800    1.7886   27.2158 H   0  0  0  0  0  0  0  0  0  0  0  0
    8.0823    1.7821   26.5147 H   0  0  0  0  0  0  0  0  0  0  0  0
    9.3975   -0.3390   26.5873 H   0  0  0  0  0  0  0  0  0  0  0  0
    8.2698   -2.4560   27.2220 H   0  0  0  0  0  0  0  0  0  0  0  0
    5.8645   -2.4829   27.8207 H   0  0  0  0  0  0  0  0  0  0  0  0
  1  2  1  0
  2  3  1  0
  3  4  1  0
  4  5  1  0
  5  6  1  0
  6  7  1  0
  7  8  2  0
  8  9  1  0
  9 10  2  0
  2 11  1  0
 11 12  2  0
 11 13  1  0
 13 14  1  0
 14 15  1  0
 15 16  1  0
 16 17  2  0
 17 18  1  0
 18 19  2  0
 19 20  1  0
 20 21  2  0
 21 22  1  0
 22 23  2  0
 10  6  1  0
 23 15  1  0
 23 18  1  0
  1 24  1  0
  1 25  1  0
  1 26  1  0
  3 27  1  0
  3 28  1  0
  4 29  1  0
  4 30  1  0
  5 31  1  0
  5 32  1  0
  7 33  1  0
  8 34  1  0
  9 35  1  0
 13 36  1  0
 13 37  1  0
 14 38  1  0
 14 39  1  0
 16 40  1  0
 19 41  1  0
 20 42  1  0
 21 43  1  0
 22 44  1  0
M  END
>  <Energy>  (131) 
89.088578643011573

>  <compound_id>  (131) 
10925

>  <target_id>  (131) 
1

>  <reference_id>  (131) 
55

>  <inspiration_ids>  (131) 
[55, 7]

>  <energy_score>  (131) 
78.51799501060569

>  <distance_score>  (131) 
12.098086549520527

>  <path>  (131) 
/opt/xchem-fragalysis-2/maxwin/BulkDock/SCRATCH/511013/C10925-P55/C10925-P55.minimised.mol

>  <scratch_subdir>  (131) 
/opt/xchem-fragalysis-2/maxwin/BulkDock/SCRATCH/511013/C10925-P55

>  <fragmenstein_runtime>  (131) 
12.116804599761963

>  <fragmenstein_outcome>  (131) 
too moved

>  <fragmenstein_mode>  (131) 
expansion

>  <fragmenstein_error>  (131) 


$$$$
C10925-P7
     RDKit          3D

 44 46  0  0  0  0  0  0  0  0999 V2000
    0.3803    0.1623   27.7922 C   0  0  0  0  0  0  0  0  0  0  0  0
    1.3138   -0.8271   27.2501 N   0  0  0  0  0  0  0  0  0  0  0  0
    1.1020   -1.4755   28.7150 C   0  0  0  0  0  0  0  0  0  0  0  0
   -0.2340   -1.4458   29.7677 C   0  0  0  0  0  0  0  0  0  0  0  0
   -1.6047   -2.1136   29.4505 C   0  0  0  0  0  0  0  0  0  0  0  0
   -2.6542   -1.8765   30.4606 N   0  0  0  0  0  0  0  0  0  0  0  0
   -3.5682   -0.8503   30.4825 C   0  0  0  0  0  0  0  0  0  0  0  0
   -4.4037   -1.0778   31.5534 C   0  0  0  0  0  0  0  0  0  0  0  0
   -3.9222   -2.2689   32.1205 C   0  0  0  0  0  0  0  0  0  0  0  0
   -2.8700   -2.7654   31.4583 N   0  0  0  0  0  0  0  0  0  0  0  0
    2.7625   -0.7155   26.9331 C   0  0  0  0  0  0  0  0  0  0  0  0
    3.5398    0.1925   27.1315 O   0  0  0  0  0  0  0  0  0  0  0  0
    3.4110   -1.9287   26.0981 C   0  0  0  0  0  0  0  0  0  0  0  0
    3.8779   -2.2068   24.4964 C   0  0  0  0  0  0  0  0  0  0  0  0
    4.8615   -1.4632   23.5993 N   0  0  0  0  0  0  0  0  0  0  0  0
    4.7620   -0.0432   23.9698 C   0  0  0  0  0  0  0  0  0  0  0  0
    4.6662    0.8002   22.7000 N   0  0  0  0  0  0  0  0  0  0  0  0
    5.2697    0.2432   21.5608 C   0  0  0  0  0  0  0  0  0  0  0  0
    6.2189    0.8539   20.5136 C   0  0  0  0  0  0  0  0  0  0  0  0
    7.0460    0.1976   19.6547 C   0  0  0  0  0  0  0  0  0  0  0  0
    7.4566   -1.0184   20.1064 C   0  0  0  0  0  0  0  0  0  0  0  0
    6.6447   -1.8887   20.9249 C   0  0  0  0  0  0  0  0  0  0  0  0
    5.3383   -1.4014   21.8884 C   0  0  0  0  0  0  0  0  0  0  0  0
   -0.6608   -0.1687   27.7874 H   0  0  0  0  0  0  0  0  0  0  0  0
    0.7410    0.7173   28.6708 H   0  0  0  0  0  0  0  0  0  0  0  0
    0.3801    0.9606   27.0356 H   0  0  0  0  0  0  0  0  0  0  0  0
    1.2988   -2.5419   28.5355 H   0  0  0  0  0  0  0  0  0  0  0  0
    1.9560   -1.1238   29.3171 H   0  0  0  0  0  0  0  0  0  0  0  0
   -0.4091   -0.4092   30.0828 H   0  0  0  0  0  0  0  0  0  0  0  0
    0.1437   -1.9415   30.6742 H   0  0  0  0  0  0  0  0  0  0  0  0
   -2.0064   -1.7458   28.5016 H   0  0  0  0  0  0  0  0  0  0  0  0
   -1.4801   -3.1987   29.3683 H   0  0  0  0  0  0  0  0  0  0  0  0
   -3.5449   -0.0627   29.7430 H   0  0  0  0  0  0  0  0  0  0  0  0
   -5.2379   -0.4697   31.8734 H   0  0  0  0  0  0  0  0  0  0  0  0
   -4.2926   -2.8019   32.9865 H   0  0  0  0  0  0  0  0  0  0  0  0
    4.3497   -2.0717   26.6553 H   0  0  0  0  0  0  0  0  0  0  0  0
    2.8078   -2.7959   26.3810 H   0  0  0  0  0  0  0  0  0  0  0  0
    3.0612   -2.5044   23.8521 H   0  0  0  0  0  0  0  0  0  0  0  0
    4.4103   -3.1004   24.7469 H   0  0  0  0  0  0  0  0  0  0  0  0
    4.4311    0.2683   24.9490 H   0  0  0  0  0  0  0  0  0  0  0  0
    6.4508    1.9117   20.4724 H   0  0  0  0  0  0  0  0  0  0  0  0
    7.3346    0.6655   18.7342 H   0  0  0  0  0  0  0  0  0  0  0  0
    8.3455   -1.4309   19.7424 H   0  0  0  0  0  0  0  0  0  0  0  0
    6.9680   -2.9174   20.9608 H   0  0  0  0  0  0  0  0  0  0  0  0
  1  2  1  0
  2  3  1  0
  3  4  1  0
  4  5  1  0
  5  6  1  0
  6  7  1  0
  7  8  2  0
  8  9  1  0
  9 10  2  0
  2 11  1  0
 11 12  2  0
 11 13  1  0
 13 14  1  0
 14 15  1  0
 15 16  1  0
 16 17  2  0
 17 18  1  0
 18 19  2  0
 19 20  1  0
 20 21  2  0
 21 22  1  0
 22 23  2  0
 10  6  1  0
 23 15  1  0
 23 18  1  0
  1 24  1  0
  1 25  1  0
  1 26  1  0
  3 27  1  0
  3 28  1  0
  4 29  1  0
  4 30  1  0
  5 31  1  0
  5 32  1  0
  7 33  1  0
  8 34  1  0
  9 35  1  0
 13 36  1  0
 13 37  1  0
 14 38  1  0
 14 39  1  0
 16 40  1  0
 19 41  1  0
 20 42  1  0
 21 43  1  0
 22 44  1  0
M  END
>  <Energy>  (132) 
343.95026802435825

>  <compound_id>  (132) 
10925

>  <target_id>  (132) 
1

>  <reference_id>  (132) 
7

>  <inspiration_ids>  (132) 
[55, 7]

>  <energy_score>  (132) 
333.3796843919489

>  <distance_score>  (132) 
11.515802000266081

>  <path>  (132) 
/opt/xchem-fragalysis-2/maxwin/BulkDock/SCRATCH/511013/C10925-P7/C10925-P7.minimised.mol

>  <scratch_subdir>  (132) 
/opt/xchem-fragalysis-2/maxwin/BulkDock/SCRATCH/511013/C10925-P7

>  <fragmenstein_runtime>  (132) 
9.75921893119812

>  <fragmenstein_outcome>  (132) 
too moved

>  <fragmenstein_mode>  (132) 
expansion

>  <fragmenstein_error>  (132) 


$$$$
C10926-P55
     RDKit          3D

 44 46  0  0  0  0  0  0  0  0999 V2000
    3.0036    1.1708   20.5190 C   0  0  0  0  0  0  0  0  0  0  0  0
    4.0648    0.6283   21.4195 C   0  0  0  0  0  0  0  0  0  0  0  0
    5.1156    1.3748   21.4282 N   0  0  0  0  0  0  0  0  0  0  0  0
    5.7029    0.5579   20.6558 C   0  0  0  0  0  0  0  0  0  0  0  0
    6.2298    0.9916   19.4400 C   0  0  0  0  0  0  0  0  0  0  0  0
    6.8252    0.0007   18.7925 C   0  0  0  0  0  0  0  0  0  0  0  0
    7.2313   -0.9504   19.7067 C   0  0  0  0  0  0  0  0  0  0  0  0
    6.2837   -1.6891   20.4263 C   0  0  0  0  0  0  0  0  0  0  0  0
    5.5542   -0.8234   21.1268 C   0  0  0  0  0  0  0  0  0  0  0  0
    4.4146   -0.9422   22.1540 N   0  0  0  0  0  0  0  0  0  0  0  0
    3.0269   -2.1722   23.0528 C   0  0  0  0  0  0  0  0  0  0  0  0
    0.9977   -2.7997   22.6887 C   0  0  0  0  0  0  0  0  0  0  0  0
   -1.0934   -2.4026   22.8727 C   0  0  0  0  0  0  0  0  0  0  0  0
   -1.4361   -1.7536   22.0036 O   0  0  0  0  0  0  0  0  0  0  0  0
   -2.5756   -2.9085   23.9218 N   0  0  0  0  0  0  0  0  0  0  0  0
   -4.0954   -2.6976   23.7568 C   0  0  0  0  0  0  0  0  0  0  0  0
   -4.6566   -2.5072   22.3391 C   0  0  0  0  0  0  0  0  0  0  0  0
   -4.8948   -1.9685   25.0237 C   0  0  0  0  0  0  0  0  0  0  0  0
   -5.6463   -2.5390   26.1471 N   0  0  0  0  0  0  0  0  0  0  0  0
   -5.5678   -2.0994   27.4597 C   0  0  0  0  0  0  0  0  0  0  0  0
   -6.6711   -2.5798   28.1244 C   0  0  0  0  0  0  0  0  0  0  0  0
   -7.3764   -3.2873   27.1398 C   0  0  0  0  0  0  0  0  0  0  0  0
   -6.7666   -3.2705   25.9459 N   0  0  0  0  0  0  0  0  0  0  0  0
    2.5841    0.4333   19.8401 H   0  0  0  0  0  0  0  0  0  0  0  0
    3.4273    1.9262   19.8407 H   0  0  0  0  0  0  0  0  0  0  0  0
    2.3057    1.7475   21.1258 H   0  0  0  0  0  0  0  0  0  0  0  0
    6.1169    2.0044   19.0849 H   0  0  0  0  0  0  0  0  0  0  0  0
    7.3243    0.2117   17.8534 H   0  0  0  0  0  0  0  0  0  0  0  0
    7.9064   -0.4643   20.4396 H   0  0  0  0  0  0  0  0  0  0  0  0
    6.3318   -2.7119   20.7222 H   0  0  0  0  0  0  0  0  0  0  0  0
    3.2029   -1.8039   24.0917 H   0  0  0  0  0  0  0  0  0  0  0  0
    3.6094   -3.0378   23.0682 H   0  0  0  0  0  0  0  0  0  0  0  0
    1.1281   -3.8731   22.9537 H   0  0  0  0  0  0  0  0  0  0  0  0
    1.0207   -3.1718   21.6476 H   0  0  0  0  0  0  0  0  0  0  0  0
   -2.2641   -3.5256   24.5938 H   0  0  0  0  0  0  0  0  0  0  0  0
   -4.4096   -3.7273   23.8278 H   0  0  0  0  0  0  0  0  0  0  0  0
   -4.0287   -1.8745   21.7084 H   0  0  0  0  0  0  0  0  0  0  0  0
   -4.7475   -3.4766   21.8363 H   0  0  0  0  0  0  0  0  0  0  0  0
   -5.6773   -2.1093   22.3622 H   0  0  0  0  0  0  0  0  0  0  0  0
   -5.6706   -1.3427   24.5680 H   0  0  0  0  0  0  0  0  0  0  0  0
   -4.1487   -1.3413   25.5179 H   0  0  0  0  0  0  0  0  0  0  0  0
   -4.7479   -1.4752   27.7885 H   0  0  0  0  0  0  0  0  0  0  0  0
   -6.9367   -2.4216   29.1603 H   0  0  0  0  0  0  0  0  0  0  0  0
   -8.3184   -3.8125   27.2361 H   0  0  0  0  0  0  0  0  0  0  0  0
  1  2  1  0
  2  3  2  0
  3  4  1  0
  4  5  2  0
  5  6  1  0
  6  7  2  0
  7  8  1  0
  8  9  2  0
  9 10  1  0
 10 11  1  0
 11 12  1  0
 12 13  1  0
 13 14  2  0
 13 15  1  0
 15 16  1  0
 16 17  1  0
 16 18  1  0
 18 19  1  0
 19 20  1  0
 20 21  2  0
 21 22  1  0
 22 23  2  0
 10  2  1  0
 23 19  1  0
  9  4  1  0
  1 24  1  0
  1 25  1  0
  1 26  1  0
  5 27  1  0
  6 28  1  0
  7 29  1  0
  8 30  1  0
 11 31  1  0
 11 32  1  0
 12 33  1  0
 12 34  1  0
 15 35  1  0
 16 36  1  0
 17 37  1  0
 17 38  1  0
 17 39  1  0
 18 40  1  0
 18 41  1  0
 20 42  1  0
 21 43  1  0
 22 44  1  0
M  END
>  <Energy>  (133) 
762.31643591832585

>  <compound_id>  (133) 
10926

>  <target_id>  (133) 
1

>  <reference_id>  (133) 
55

>  <inspiration_ids>  (133) 
[55, 7]

>  <energy_score>  (133) 
733.1246129964102

>  <distance_score>  (133) 
11.873730230211486

>  <path>  (133) 
/opt/xchem-fragalysis-2/maxwin/BulkDock/SCRATCH/511013/C10926-P55/C10926-P55.minimised.mol

>  <scratch_subdir>  (133) 
/opt/xchem-fragalysis-2/maxwin/BulkDock/SCRATCH/511013/C10926-P55

>  <fragmenstein_runtime>  (133) 
9.757627725601196

>  <fragmenstein_outcome>  (133) 
too moved

>  <fragmenstein_mode>  (133) 
expansion

>  <fragmenstein_error>  (133) 


$$$$
C10926-P7
     RDKit          3D

 44 46  0  0  0  0  0  0  0  0999 V2000
    2.0853    1.4863   18.3047 C   0  0  0  0  0  0  0  0  0  0  0  0
    1.7066    0.1823   17.6717 C   0  0  0  0  0  0  0  0  0  0  0  0
    2.3589   -0.1704   16.5833 N   0  0  0  0  0  0  0  0  0  0  0  0
    2.1032   -1.4766   16.3924 C   0  0  0  0  0  0  0  0  0  0  0  0
    2.7419   -2.3280   15.4722 C   0  0  0  0  0  0  0  0  0  0  0  0
    2.3986   -3.6749   15.4508 C   0  0  0  0  0  0  0  0  0  0  0  0
    1.4288   -4.1551   16.3210 C   0  0  0  0  0  0  0  0  0  0  0  0
    0.7635   -3.3066   17.2230 C   0  0  0  0  0  0  0  0  0  0  0  0
    1.1196   -1.9463   17.2703 C   0  0  0  0  0  0  0  0  0  0  0  0
    0.7997   -0.8642   18.1677 N   0  0  0  0  0  0  0  0  0  0  0  0
    0.5901   -1.0283   19.7975 C   0  0  0  0  0  0  0  0  0  0  0  0
   -0.3433   -1.9465   21.5864 C   0  0  0  0  0  0  0  0  0  0  0  0
   -2.3621   -1.6775   22.1895 C   0  0  0  0  0  0  0  0  0  0  0  0
   -2.9156   -0.9128   21.4412 O   0  0  0  0  0  0  0  0  0  0  0  0
   -2.9609   -2.4572   23.3256 N   0  0  0  0  0  0  0  0  0  0  0  0
   -4.4855   -2.6139   23.8248 C   0  0  0  0  0  0  0  0  0  0  0  0
   -5.0214   -3.9316   23.2177 C   0  0  0  0  0  0  0  0  0  0  0  0
   -4.7641   -2.2635   25.3728 C   0  0  0  0  0  0  0  0  0  0  0  0
   -6.0680   -2.3416   26.0322 N   0  0  0  0  0  0  0  0  0  0  0  0
   -6.9069   -1.2765   26.2865 C   0  0  0  0  0  0  0  0  0  0  0  0
   -7.7691   -1.6619   27.2881 C   0  0  0  0  0  0  0  0  0  0  0  0
   -7.3920   -2.9798   27.5810 C   0  0  0  0  0  0  0  0  0  0  0  0
   -6.3736   -3.4045   26.8230 N   0  0  0  0  0  0  0  0  0  0  0  0
    2.6039    1.3463   19.2564 H   0  0  0  0  0  0  0  0  0  0  0  0
    2.7836    2.0237   17.6515 H   0  0  0  0  0  0  0  0  0  0  0  0
    1.2137    2.1363   18.4166 H   0  0  0  0  0  0  0  0  0  0  0  0
    3.5005   -1.9291   14.8076 H   0  0  0  0  0  0  0  0  0  0  0  0
    2.8678   -4.3474   14.7427 H   0  0  0  0  0  0  0  0  0  0  0  0
    1.1644   -5.2101   16.2970 H   0  0  0  0  0  0  0  0  0  0  0  0
    0.0213   -3.7199   17.8943 H   0  0  0  0  0  0  0  0  0  0  0  0
    1.2153   -1.8052   19.5390 H   0  0  0  0  0  0  0  0  0  0  0  0
    1.5198   -0.4244   19.9711 H   0  0  0  0  0  0  0  0  0  0  0  0
    0.1959   -1.9733   22.5411 H   0  0  0  0  0  0  0  0  0  0  0  0
    0.1634   -2.9441   21.5436 H   0  0  0  0  0  0  0  0  0  0  0  0
   -2.2331   -2.9316   23.8044 H   0  0  0  0  0  0  0  0  0  0  0  0
   -5.1764   -2.0074   23.2530 H   0  0  0  0  0  0  0  0  0  0  0  0
   -4.3262   -4.7691   23.3040 H   0  0  0  0  0  0  0  0  0  0  0  0
   -5.1663   -3.8043   22.1365 H   0  0  0  0  0  0  0  0  0  0  0  0
   -5.9957   -4.2015   23.6377 H   0  0  0  0  0  0  0  0  0  0  0  0
   -4.0719   -2.8194   25.9692 H   0  0  0  0  0  0  0  0  0  0  0  0
   -4.4202   -1.2557   25.5896 H   0  0  0  0  0  0  0  0  0  0  0  0
   -6.7928   -0.3350   25.7684 H   0  0  0  0  0  0  0  0  0  0  0  0
   -8.5481   -1.0695   27.7470 H   0  0  0  0  0  0  0  0  0  0  0  0
   -7.8167   -3.6503   28.3162 H   0  0  0  0  0  0  0  0  0  0  0  0
  1  2  1  0
  2  3  2  0
  3  4  1  0
  4  5  2  0
  5  6  1  0
  6  7  2  0
  7  8  1  0
  8  9  2  0
  9 10  1  0
 10 11  1  0
 11 12  1  0
 12 13  1  0
 13 14  2  0
 13 15  1  0
 15 16  1  0
 16 17  1  0
 16 18  1  0
 18 19  1  0
 19 20  1  0
 20 21  2  0
 21 22  1  0
 22 23  2  0
 10  2  1  0
 23 19  1  0
  9  4  1  0
  1 24  1  0
  1 25  1  0
  1 26  1  0
  5 27  1  0
  6 28  1  0
  7 29  1  0
  8 30  1  0
 11 31  1  0
 11 32  1  0
 12 33  1  0
 12 34  1  0
 15 35  1  0
 16 36  1  0
 17 37  1  0
 17 38  1  0
 17 39  1  0
 18 40  1  0
 18 41  1  0
 20 42  1  0
 21 43  1  0
 22 44  1  0
M  END
>  <Energy>  (134) 
383.51023411508544

>  <compound_id>  (134) 
10926

>  <target_id>  (134) 
1

>  <reference_id>  (134) 
7

>  <inspiration_ids>  (134) 
[55, 7]

>  <energy_score>  (134) 
354.31841119316607

>  <distance_score>  (134) 
12.705605512714813

>  <path>  (134) 
/opt/xchem-fragalysis-2/maxwin/BulkDock/SCRATCH/511013/C10926-P7/C10926-P7.minimised.mol

>  <scratch_subdir>  (134) 
/opt/xchem-fragalysis-2/maxwin/BulkDock/SCRATCH/511013/C10926-P7

>  <fragmenstein_runtime>  (134) 
9.841379642486572

>  <fragmenstein_outcome>  (134) 
too moved

>  <fragmenstein_mode>  (134) 
expansion

>  <fragmenstein_error>  (134) 


$$$$
C10931-P55
     RDKit          3D

 38 40  0  0  0  0  0  0  0  0999 V2000
   -4.1771   -3.3211   33.2453 C   0  0  0  0  0  0  0  0  0  0  0  0
   -3.4714   -2.5395   32.1180 C   0  0  0  0  0  0  0  0  0  0  0  0
   -2.7795   -1.2131   32.5422 C   0  0  0  0  0  0  0  0  0  0  0  0
   -2.1231   -0.3159   31.3656 C   0  0  0  0  0  0  0  0  0  0  0  0
   -0.9474   -0.7310   30.4893 N   0  0  0  0  0  0  0  0  0  0  0  0
    0.0651    0.0951   29.7546 C   0  0  0  0  0  0  0  0  0  0  0  0
    0.2415    1.2830   29.7447 O   0  0  0  0  0  0  0  0  0  0  0  0
    1.1323   -0.6457   28.8599 C   0  0  0  0  0  0  0  0  0  0  0  0
    1.4101   -2.0063   29.0500 C   0  0  0  0  0  0  0  0  0  0  0  0
    2.4216   -2.6722   28.3505 C   0  0  0  0  0  0  0  0  0  0  0  0
    2.6274   -3.9486   28.6877 F   0  0  0  0  0  0  0  0  0  0  0  0
    3.2326   -2.0705   27.3956 C   0  0  0  0  0  0  0  0  0  0  0  0
    2.9964   -0.7186   27.1923 C   0  0  0  0  0  0  0  0  0  0  0  0
    3.6192    0.1653   26.3377 N   0  0  0  0  0  0  0  0  0  0  0  0
    3.0559    1.3873   26.5363 C   0  0  0  0  0  0  0  0  0  0  0  0
    2.0773    1.3280   27.4163 N   0  0  0  0  0  0  0  0  0  0  0  0
    1.9994    0.0143   27.8769 C   0  0  0  0  0  0  0  0  0  0  0  0
   -3.7472   -0.4427   33.3695 N   0  0  0  0  0  0  0  0  0  0  0  0
   -3.6657   -0.2012   34.7203 C   0  0  0  0  0  0  0  0  0  0  0  0
   -4.9027    0.2556   35.1191 C   0  0  0  0  0  0  0  0  0  0  0  0
   -5.6720    0.2520   33.9470 C   0  0  0  0  0  0  0  0  0  0  0  0
   -4.9751   -0.1616   32.8876 N   0  0  0  0  0  0  0  0  0  0  0  0
   -5.0841   -2.8201   33.5921 H   0  0  0  0  0  0  0  0  0  0  0  0
   -4.4725   -4.3086   32.8761 H   0  0  0  0  0  0  0  0  0  0  0  0
   -3.5041   -3.4659   34.0960 H   0  0  0  0  0  0  0  0  0  0  0  0
   -2.7044   -3.1856   31.6751 H   0  0  0  0  0  0  0  0  0  0  0  0
   -4.2119   -2.3501   31.3401 H   0  0  0  0  0  0  0  0  0  0  0  0
   -1.9585   -1.4699   33.2250 H   0  0  0  0  0  0  0  0  0  0  0  0
   -2.9054   -0.0217   30.6634 H   0  0  0  0  0  0  0  0  0  0  0  0
   -1.7923    0.6242   31.8263 H   0  0  0  0  0  0  0  0  0  0  0  0
   -0.8622   -1.6945   30.2007 H   0  0  0  0  0  0  0  0  0  0  0  0
    0.8871   -2.5859   29.8022 H   0  0  0  0  0  0  0  0  0  0  0  0
    4.0013   -2.6158   26.8660 H   0  0  0  0  0  0  0  0  0  0  0  0
    4.3206   -0.0634   25.6457 H   0  0  0  0  0  0  0  0  0  0  0  0
    3.3705    2.2704   25.9965 H   0  0  0  0  0  0  0  0  0  0  0  0
   -2.7575   -0.3949   35.2736 H   0  0  0  0  0  0  0  0  0  0  0  0
   -5.2030    0.5358   36.1181 H   0  0  0  0  0  0  0  0  0  0  0  0
   -6.7101    0.5225   33.8111 H   0  0  0  0  0  0  0  0  0  0  0  0
  1  2  1  0
  2  3  1  0
  3  4  1  0
  4  5  1  0
  5  6  1  0
  6  7  2  0
  6  8  1  0
  8  9  2  0
  9 10  1  0
 10 11  1  0
 10 12  2  0
 12 13  1  0
 13 14  1  0
 14 15  1  0
 15 16  2  0
 16 17  1  0
  3 18  1  0
 18 19  1  0
 19 20  2  0
 20 21  1  0
 21 22  2  0
 17  8  1  0
 22 18  1  0
 17 13  2  0
  1 23  1  0
  1 24  1  0
  1 25  1  0
  2 26  1  0
  2 27  1  0
  3 28  1  0
  4 29  1  0
  4 30  1  0
  5 31  1  0
  9 32  1  0
 12 33  1  0
 14 34  1  0
 15 35  1  0
 19 36  1  0
 20 37  1  0
 21 38  1  0
M  END
>  <Energy>  (135) 
56.619771619868203

>  <compound_id>  (135) 
10931

>  <target_id>  (135) 
1

>  <reference_id>  (135) 
55

>  <inspiration_ids>  (135) 
[55, 7]

>  <energy_score>  (135) 
3.2840534549288947

>  <distance_score>  (135) 
12.687766706819906

>  <path>  (135) 
/opt/xchem-fragalysis-2/maxwin/BulkDock/SCRATCH/511013/C10931-P55/C10931-P55.minimised.mol

>  <scratch_subdir>  (135) 
/opt/xchem-fragalysis-2/maxwin/BulkDock/SCRATCH/511013/C10931-P55

>  <fragmenstein_runtime>  (135) 
10.165754318237305

>  <fragmenstein_outcome>  (135) 
too moved

>  <fragmenstein_mode>  (135) 
expansion

>  <fragmenstein_error>  (135) 


$$$$
C10931-P7
     RDKit          3D

 38 40  0  0  0  0  0  0  0  0999 V2000
   -4.1771   -2.9109   32.3907 C   0  0  0  0  0  0  0  0  0  0  0  0
   -2.6615   -2.7644   32.1516 C   0  0  0  0  0  0  0  0  0  0  0  0
   -2.1439   -1.3918   31.5752 C   0  0  0  0  0  0  0  0  0  0  0  0
   -0.5317   -1.3669   31.3915 C   0  0  0  0  0  0  0  0  0  0  0  0
    0.1838   -0.9650   30.0990 N   0  0  0  0  0  0  0  0  0  0  0  0
    1.4938   -1.4130   29.5261 C   0  0  0  0  0  0  0  0  0  0  0  0
    2.2613   -2.2565   29.9038 O   0  0  0  0  0  0  0  0  0  0  0  0
    2.0810   -0.6238   28.2870 C   0  0  0  0  0  0  0  0  0  0  0  0
    1.7098    0.7092   28.0234 C   0  0  0  0  0  0  0  0  0  0  0  0
    2.3210    1.4876   27.0240 C   0  0  0  0  0  0  0  0  0  0  0  0
    1.8863    2.7450   26.8534 F   0  0  0  0  0  0  0  0  0  0  0  0
    3.3295    1.0185   26.1962 C   0  0  0  0  0  0  0  0  0  0  0  0
    3.7113   -0.2927   26.4257 C   0  0  0  0  0  0  0  0  0  0  0  0
    4.6275   -1.0585   25.7473 N   0  0  0  0  0  0  0  0  0  0  0  0
    4.7320   -2.2350   26.4093 C   0  0  0  0  0  0  0  0  0  0  0  0
    3.8772   -2.3060   27.4083 N   0  0  0  0  0  0  0  0  0  0  0  0
    3.1675   -1.1131   27.4379 C   0  0  0  0  0  0  0  0  0  0  0  0
   -2.6772   -0.3168   32.4403 N   0  0  0  0  0  0  0  0  0  0  0  0
   -3.4637    0.7369   32.0488 C   0  0  0  0  0  0  0  0  0  0  0  0
   -4.0535    1.2409   33.1857 C   0  0  0  0  0  0  0  0  0  0  0  0
   -3.5089    0.4789   34.2296 C   0  0  0  0  0  0  0  0  0  0  0  0
   -2.6522   -0.4475   33.7895 N   0  0  0  0  0  0  0  0  0  0  0  0
   -4.7310   -2.7548   31.4639 H   0  0  0  0  0  0  0  0  0  0  0  0
   -4.3923   -3.9255   32.7418 H   0  0  0  0  0  0  0  0  0  0  0  0
   -4.5542   -2.2172   33.1447 H   0  0  0  0  0  0  0  0  0  0  0  0
   -2.1493   -2.9701   33.1009 H   0  0  0  0  0  0  0  0  0  0  0  0
   -2.3359   -3.5551   31.4678 H   0  0  0  0  0  0  0  0  0  0  0  0
   -2.5756   -1.2357   30.5843 H   0  0  0  0  0  0  0  0  0  0  0  0
   -0.1055   -0.6999   32.1502 H   0  0  0  0  0  0  0  0  0  0  0  0
   -0.1445   -2.3694   31.6082 H   0  0  0  0  0  0  0  0  0  0  0  0
   -0.1560   -0.1755   29.5716 H   0  0  0  0  0  0  0  0  0  0  0  0
    0.9676    1.2113   28.6343 H   0  0  0  0  0  0  0  0  0  0  0  0
    3.7572    1.6291   25.4109 H   0  0  0  0  0  0  0  0  0  0  0  0
    5.1049   -0.7922   24.8970 H   0  0  0  0  0  0  0  0  0  0  0  0
    5.4273   -3.0068   26.1161 H   0  0  0  0  0  0  0  0  0  0  0  0
   -3.5672    1.0095   31.0090 H   0  0  0  0  0  0  0  0  0  0  0  0
   -4.7605    2.0553   33.2450 H   0  0  0  0  0  0  0  0  0  0  0  0
   -3.6895    0.5610   35.2936 H   0  0  0  0  0  0  0  0  0  0  0  0
  1  2  1  0
  2  3  1  0
  3  4  1  0
  4  5  1  0
  5  6  1  0
  6  7  2  0
  6  8  1  0
  8  9  2  0
  9 10  1  0
 10 11  1  0
 10 12  2  0
 12 13  1  0
 13 14  1  0
 14 15  1  0
 15 16  2  0
 16 17  1  0
  3 18  1  0
 18 19  1  0
 19 20  2  0
 20 21  1  0
 21 22  2  0
 17  8  1  0
 22 18  1  0
 17 13  2  0
  1 23  1  0
  1 24  1  0
  1 25  1  0
  2 26  1  0
  2 27  1  0
  3 28  1  0
  4 29  1  0
  4 30  1  0
  5 31  1  0
  9 32  1  0
 12 33  1  0
 14 34  1  0
 15 35  1  0
 19 36  1  0
 20 37  1  0
 21 38  1  0
M  END
>  <Energy>  (136) 
60.586485084804394

>  <compound_id>  (136) 
10931

>  <target_id>  (136) 
1

>  <reference_id>  (136) 
7

>  <inspiration_ids>  (136) 
[55, 7]

>  <energy_score>  (136) 
7.250766919863082

>  <distance_score>  (136) 
12.659580907107406

>  <path>  (136) 
/opt/xchem-fragalysis-2/maxwin/BulkDock/SCRATCH/511013/C10931-P7/C10931-P7.minimised.mol

>  <scratch_subdir>  (136) 
/opt/xchem-fragalysis-2/maxwin/BulkDock/SCRATCH/511013/C10931-P7

>  <fragmenstein_runtime>  (136) 
7.416289567947388

>  <fragmenstein_outcome>  (136) 
too moved

>  <fragmenstein_mode>  (136) 
expansion

>  <fragmenstein_error>  (136) 


$$$$
C10932-P55
     RDKit          3D

 38 40  0  0  0  0  0  0  0  0999 V2000
   -3.7400   -2.6837   34.0955 C   0  0  0  0  0  0  0  0  0  0  0  0
   -3.1495   -2.1739   32.7584 C   0  0  0  0  0  0  0  0  0  0  0  0
   -2.7097   -0.6884   32.7733 C   0  0  0  0  0  0  0  0  0  0  0  0
   -2.1801   -0.0826   31.3856 C   0  0  0  0  0  0  0  0  0  0  0  0
   -0.9620   -0.5466   30.6073 N   0  0  0  0  0  0  0  0  0  0  0  0
    0.0710    0.2266   29.8689 C   0  0  0  0  0  0  0  0  0  0  0  0
    0.2380    1.4115   29.7763 O   0  0  0  0  0  0  0  0  0  0  0  0
    1.0800   -0.5588   28.9496 C   0  0  0  0  0  0  0  0  0  0  0  0
    1.1415   -1.9580   28.8876 C   0  0  0  0  0  0  0  0  0  0  0  0
    0.3278   -2.6881   29.6717 F   0  0  0  0  0  0  0  0  0  0  0  0
    2.0140   -2.6679   28.0384 C   0  0  0  0  0  0  0  0  0  0  0  0
    2.8916   -2.0292   27.1648 C   0  0  0  0  0  0  0  0  0  0  0  0
    2.8531   -0.6436   27.1902 C   0  0  0  0  0  0  0  0  0  0  0  0
    3.4997    0.2717   26.3861 N   0  0  0  0  0  0  0  0  0  0  0  0
    3.1112    1.5101   26.7926 C   0  0  0  0  0  0  0  0  0  0  0  0
    2.2460    1.4445   27.7773 N   0  0  0  0  0  0  0  0  0  0  0  0
    2.0072    0.1015   28.0385 C   0  0  0  0  0  0  0  0  0  0  0  0
   -3.8316    0.1022   33.3518 N   0  0  0  0  0  0  0  0  0  0  0  0
   -3.8141    0.8125   34.5281 C   0  0  0  0  0  0  0  0  0  0  0  0
   -5.1266    1.0672   34.8608 C   0  0  0  0  0  0  0  0  0  0  0  0
   -5.8708    0.4708   33.8332 C   0  0  0  0  0  0  0  0  0  0  0  0
   -5.0930   -0.1025   32.9146 N   0  0  0  0  0  0  0  0  0  0  0  0
   -3.7167   -3.7753   34.1375 H   0  0  0  0  0  0  0  0  0  0  0  0
   -4.7810   -2.3793   34.2285 H   0  0  0  0  0  0  0  0  0  0  0  0
   -3.1524   -2.3174   34.9435 H   0  0  0  0  0  0  0  0  0  0  0  0
   -2.2654   -2.7758   32.5152 H   0  0  0  0  0  0  0  0  0  0  0  0
   -3.8782   -2.3400   31.9571 H   0  0  0  0  0  0  0  0  0  0  0  0
   -1.8853   -0.5890   33.4922 H   0  0  0  0  0  0  0  0  0  0  0  0
   -2.9912   -0.1345   30.6591 H   0  0  0  0  0  0  0  0  0  0  0  0
   -2.0074    0.9892   31.5485 H   0  0  0  0  0  0  0  0  0  0  0  0
   -0.8524   -1.5339   30.3969 H   0  0  0  0  0  0  0  0  0  0  0  0
    1.9521   -3.7510   28.0423 H   0  0  0  0  0  0  0  0  0  0  0  0
    3.4921   -2.5767   26.4495 H   0  0  0  0  0  0  0  0  0  0  0  0
    4.0279    0.0572   25.5480 H   0  0  0  0  0  0  0  0  0  0  0  0
    3.4440    2.4273   26.3288 H   0  0  0  0  0  0  0  0  0  0  0  0
   -2.8860    1.0460   35.0310 H   0  0  0  0  0  0  0  0  0  0  0  0
   -5.4866    1.5946   35.7318 H   0  0  0  0  0  0  0  0  0  0  0  0
   -6.9441    0.4202   33.7059 H   0  0  0  0  0  0  0  0  0  0  0  0
  1  2  1  0
  2  3  1  0
  3  4  1  0
  4  5  1  0
  5  6  1  0
  6  7  2  0
  6  8  1  0
  8  9  2  0
  9 10  1  0
  9 11  1  0
 11 12  2  0
 12 13  1  0
 13 14  1  0
 14 15  1  0
 15 16  2  0
 16 17  1  0
  3 18  1  0
 18 19  1  0
 19 20  2  0
 20 21  1  0
 21 22  2  0
 17  8  1  0
 22 18  1  0
 17 13  2  0
  1 23  1  0
  1 24  1  0
  1 25  1  0
  2 26  1  0
  2 27  1  0
  3 28  1  0
  4 29  1  0
  4 30  1  0
  5 31  1  0
 11 32  1  0
 12 33  1  0
 14 34  1  0
 15 35  1  0
 19 36  1  0
 20 37  1  0
 21 38  1  0
M  END
>  <Energy>  (137) 
55.221520322056818

>  <compound_id>  (137) 
10932

>  <target_id>  (137) 
1

>  <reference_id>  (137) 
55

>  <inspiration_ids>  (137) 
[55, 7]

>  <energy_score>  (137) 
6.598621212098806

>  <distance_score>  (137) 
12.752050219341108

>  <path>  (137) 
/opt/xchem-fragalysis-2/maxwin/BulkDock/SCRATCH/511013/C10932-P55/C10932-P55.minimised.mol

>  <scratch_subdir>  (137) 
/opt/xchem-fragalysis-2/maxwin/BulkDock/SCRATCH/511013/C10932-P55

>  <fragmenstein_runtime>  (137) 
10.7269287109375

>  <fragmenstein_outcome>  (137) 
too moved

>  <fragmenstein_mode>  (137) 
expansion

>  <fragmenstein_error>  (137) 


$$$$
C10932-P7
     RDKit          3D

 38 40  0  0  0  0  0  0  0  0999 V2000
   -3.7891   -2.6159   33.7996 C   0  0  0  0  0  0  0  0  0  0  0  0
   -3.1409   -2.1332   32.4786 C   0  0  0  0  0  0  0  0  0  0  0  0
   -2.6088   -0.6658   32.5109 C   0  0  0  0  0  0  0  0  0  0  0  0
   -2.0959   -0.0316   31.1193 C   0  0  0  0  0  0  0  0  0  0  0  0
   -0.8457   -0.4457   30.3580 N   0  0  0  0  0  0  0  0  0  0  0  0
    0.0666    0.3445   29.4756 C   0  0  0  0  0  0  0  0  0  0  0  0
    0.0780    1.5177   29.2190 O   0  0  0  0  0  0  0  0  0  0  0  0
    1.1675   -0.4265   28.6558 C   0  0  0  0  0  0  0  0  0  0  0  0
    1.2920   -1.8207   28.7101 C   0  0  0  0  0  0  0  0  0  0  0  0
    0.4788   -2.5309   29.5134 F   0  0  0  0  0  0  0  0  0  0  0  0
    2.2344   -2.5510   27.9695 C   0  0  0  0  0  0  0  0  0  0  0  0
    3.1344   -1.9464   27.0980 C   0  0  0  0  0  0  0  0  0  0  0  0
    3.0365   -0.5678   27.0042 C   0  0  0  0  0  0  0  0  0  0  0  0
    3.7208    0.2991   26.1807 N   0  0  0  0  0  0  0  0  0  0  0  0
    3.2643    1.5519   26.4419 C   0  0  0  0  0  0  0  0  0  0  0  0
    2.3158    1.5366   27.3556 N   0  0  0  0  0  0  0  0  0  0  0  0
    2.1109    0.2087   27.7340 C   0  0  0  0  0  0  0  0  0  0  0  0
   -3.6481    0.1758   33.1679 N   0  0  0  0  0  0  0  0  0  0  0  0
   -3.5640    0.7619   34.4090 C   0  0  0  0  0  0  0  0  0  0  0  0
   -4.8448    1.1183   34.7705 C   0  0  0  0  0  0  0  0  0  0  0  0
   -5.6393    0.7097   33.6905 C   0  0  0  0  0  0  0  0  0  0  0  0
   -4.9183    0.1537   32.7166 N   0  0  0  0  0  0  0  0  0  0  0  0
   -4.7946   -2.2107   33.9355 H   0  0  0  0  0  0  0  0  0  0  0  0
   -3.8827   -3.7027   33.8170 H   0  0  0  0  0  0  0  0  0  0  0  0
   -3.1719   -2.3331   34.6584 H   0  0  0  0  0  0  0  0  0  0  0  0
   -2.2904   -2.7859   32.2466 H   0  0  0  0  0  0  0  0  0  0  0  0
   -3.8607   -2.2675   31.6661 H   0  0  0  0  0  0  0  0  0  0  0  0
   -1.7498   -0.6399   33.1951 H   0  0  0  0  0  0  0  0  0  0  0  0
   -1.9654    1.0462   31.2814 H   0  0  0  0  0  0  0  0  0  0  0  0
   -2.8990   -0.1172   30.3853 H   0  0  0  0  0  0  0  0  0  0  0  0
   -0.6165   -1.4311   30.2770 H   0  0  0  0  0  0  0  0  0  0  0  0
    2.2176   -3.6277   28.0784 H   0  0  0  0  0  0  0  0  0  0  0  0
    3.8274   -2.5143   26.4902 H   0  0  0  0  0  0  0  0  0  0  0  0
    4.3696    0.0327   25.4514 H   0  0  0  0  0  0  0  0  0  0  0  0
    3.6349    2.4288   25.9290 H   0  0  0  0  0  0  0  0  0  0  0  0
   -2.6199    0.8463   34.9288 H   0  0  0  0  0  0  0  0  0  0  0  0
   -5.1538    1.5922   35.6904 H   0  0  0  0  0  0  0  0  0  0  0  0
   -6.7110    0.7829   33.5628 H   0  0  0  0  0  0  0  0  0  0  0  0
  1  2  1  0
  2  3  1  0
  3  4  1  0
  4  5  1  0
  5  6  1  0
  6  7  2  0
  6  8  1  0
  8  9  2  0
  9 10  1  0
  9 11  1  0
 11 12  2  0
 12 13  1  0
 13 14  1  0
 14 15  1  0
 15 16  2  0
 16 17  1  0
  3 18  1  0
 18 19  1  0
 19 20  2  0
 20 21  1  0
 21 22  2  0
 17  8  1  0
 22 18  1  0
 17 13  2  0
  1 23  1  0
  1 24  1  0
  1 25  1  0
  2 26  1  0
  2 27  1  0
  3 28  1  0
  4 29  1  0
  4 30  1  0
  5 31  1  0
 11 32  1  0
 12 33  1  0
 14 34  1  0
 15 35  1  0
 19 36  1  0
 20 37  1  0
 21 38  1  0
M  END
>  <Energy>  (138) 
56.432492557581881

>  <compound_id>  (138) 
10932

>  <target_id>  (138) 
1

>  <reference_id>  (138) 
7

>  <inspiration_ids>  (138) 
[55, 7]

>  <energy_score>  (138) 
7.809593447622689

>  <distance_score>  (138) 
12.657567913457845

>  <path>  (138) 
/opt/xchem-fragalysis-2/maxwin/BulkDock/SCRATCH/511013/C10932-P7/C10932-P7.minimised.mol

>  <scratch_subdir>  (138) 
/opt/xchem-fragalysis-2/maxwin/BulkDock/SCRATCH/511013/C10932-P7

>  <fragmenstein_runtime>  (138) 
7.596771001815796

>  <fragmenstein_outcome>  (138) 
too moved

>  <fragmenstein_mode>  (138) 
expansion

>  <fragmenstein_error>  (138) 


$$$$
C10898-P55
     RDKit          3D

 38 40  0  0  0  0  0  0  0  0999 V2000
   -4.9573    0.8239   33.1449 C   0  0  0  0  0  0  0  0  0  0  0  0
   -3.6108    1.0882   32.4382 C   0  0  0  0  0  0  0  0  0  0  0  0
   -2.7210   -0.1128   31.9223 C   0  0  0  0  0  0  0  0  0  0  0  0
   -1.1897    0.3870   31.6925 C   0  0  0  0  0  0  0  0  0  0  0  0
   -0.2292   -0.0392   30.5859 N   0  0  0  0  0  0  0  0  0  0  0  0
    0.6055    0.7756   29.6499 C   0  0  0  0  0  0  0  0  0  0  0  0
    0.6596    1.9647   29.4884 O   0  0  0  0  0  0  0  0  0  0  0  0
    1.6946    0.0356   28.7781 C   0  0  0  0  0  0  0  0  0  0  0  0
    2.3533   -1.1014   29.2963 C   0  0  0  0  0  0  0  0  0  0  0  0
    3.5163   -1.6450   28.7149 C   0  0  0  0  0  0  0  0  0  0  0  0
    4.4493   -2.9722   29.6993 Br  0  0  0  0  0  0  0  0  0  0  0  0
    4.0729   -1.1557   27.5372 C   0  0  0  0  0  0  0  0  0  0  0  0
    3.4618   -0.0205   27.0165 C   0  0  0  0  0  0  0  0  0  0  0  0
    3.8019    0.7375   25.9168 N   0  0  0  0  0  0  0  0  0  0  0  0
    2.9934    1.8313   25.9088 C   0  0  0  0  0  0  0  0  0  0  0  0
    2.0919    1.7686   26.8668 N   0  0  0  0  0  0  0  0  0  0  0  0
    2.3384    0.6092   27.5997 C   0  0  0  0  0  0  0  0  0  0  0  0
   -2.9541   -1.2283   32.8482 N   0  0  0  0  0  0  0  0  0  0  0  0
   -4.0254   -2.0971   32.7793 C   0  0  0  0  0  0  0  0  0  0  0  0
   -4.1932   -2.6236   34.0385 C   0  0  0  0  0  0  0  0  0  0  0  0
   -3.1513   -2.0607   34.7915 C   0  0  0  0  0  0  0  0  0  0  0  0
   -2.3914   -1.2278   34.0734 N   0  0  0  0  0  0  0  0  0  0  0  0
   -5.4262    1.7873   33.3630 H   0  0  0  0  0  0  0  0  0  0  0  0
   -5.6494    0.2439   32.5341 H   0  0  0  0  0  0  0  0  0  0  0  0
   -4.8211    0.3311   34.1104 H   0  0  0  0  0  0  0  0  0  0  0  0
   -3.0056    1.6727   33.1450 H   0  0  0  0  0  0  0  0  0  0  0  0
   -3.7935    1.7522   31.5836 H   0  0  0  0  0  0  0  0  0  0  0  0
   -3.0761   -0.4446   30.9492 H   0  0  0  0  0  0  0  0  0  0  0  0
   -1.2318    1.4760   31.5662 H   0  0  0  0  0  0  0  0  0  0  0  0
   -0.6276    0.2071   32.6160 H   0  0  0  0  0  0  0  0  0  0  0  0
    0.0414   -1.0100   30.5127 H   0  0  0  0  0  0  0  0  0  0  0  0
    2.0290   -1.5083   30.2511 H   0  0  0  0  0  0  0  0  0  0  0  0
    4.9742   -1.5624   27.1050 H   0  0  0  0  0  0  0  0  0  0  0  0
    4.4950    0.5113   25.2162 H   0  0  0  0  0  0  0  0  0  0  0  0
    3.0748    2.6116   25.1642 H   0  0  0  0  0  0  0  0  0  0  0  0
   -4.6149   -2.1926   31.8793 H   0  0  0  0  0  0  0  0  0  0  0  0
   -4.9621   -3.3074   34.3668 H   0  0  0  0  0  0  0  0  0  0  0  0
   -2.9130   -2.2159   35.8365 H   0  0  0  0  0  0  0  0  0  0  0  0
  1  2  1  0
  2  3  1  0
  3  4  1  0
  4  5  1  0
  5  6  1  0
  6  7  2  0
  6  8  1  0
  8  9  2  0
  9 10  1  0
 10 11  1  0
 10 12  2  0
 12 13  1  0
 13 14  1  0
 14 15  1  0
 15 16  2  0
 16 17  1  0
  3 18  1  0
 18 19  1  0
 19 20  2  0
 20 21  1  0
 21 22  2  0
 17  8  1  0
 22 18  1  0
 17 13  2  0
  1 23  1  0
  1 24  1  0
  1 25  1  0
  2 26  1  0
  2 27  1  0
  3 28  1  0
  4 29  1  0
  4 30  1  0
  5 31  1  0
  9 32  1  0
 12 33  1  0
 14 34  1  0
 15 35  1  0
 19 36  1  0
 20 37  1  0
 21 38  1  0
M  END
>  <Energy>  (139) 
72.090040408155431

>  <compound_id>  (139) 
10898

>  <target_id>  (139) 
1

>  <reference_id>  (139) 
55

>  <inspiration_ids>  (139) 
[55, 7]

>  <energy_score>  (139) 
23.90066242726374

>  <distance_score>  (139) 
12.828260133789012

>  <path>  (139) 
/opt/xchem-fragalysis-2/maxwin/BulkDock/SCRATCH/511013/C10898-P55/C10898-P55.minimised.mol

>  <scratch_subdir>  (139) 
/opt/xchem-fragalysis-2/maxwin/BulkDock/SCRATCH/511013/C10898-P55

>  <fragmenstein_runtime>  (139) 
9.720817804336548

>  <fragmenstein_outcome>  (139) 
too moved

>  <fragmenstein_mode>  (139) 
expansion

>  <fragmenstein_error>  (139) 


$$$$
C10898-P7
     RDKit          3D

 38 40  0  0  0  0  0  0  0  0999 V2000
   -4.3527   -2.2665   32.7132 C   0  0  0  0  0  0  0  0  0  0  0  0
   -3.0264   -2.0473   31.9451 C   0  0  0  0  0  0  0  0  0  0  0  0
   -2.2445   -0.6987   32.1334 C   0  0  0  0  0  0  0  0  0  0  0  0
   -1.6910    0.0045   30.7815 C   0  0  0  0  0  0  0  0  0  0  0  0
   -0.3599   -0.2938   30.1056 N   0  0  0  0  0  0  0  0  0  0  0  0
    0.4618    0.5266   29.1664 C   0  0  0  0  0  0  0  0  0  0  0  0
    0.3099    1.6530   28.7798 O   0  0  0  0  0  0  0  0  0  0  0  0
    1.7860   -0.0943   28.5726 C   0  0  0  0  0  0  0  0  0  0  0  0
    2.4678   -1.1549   29.2031 C   0  0  0  0  0  0  0  0  0  0  0  0
    3.7256   -1.6174   28.7617 C   0  0  0  0  0  0  0  0  0  0  0  0
    4.6512   -2.8653   29.8544 Br  0  0  0  0  0  0  0  0  0  0  0  0
    4.3624   -1.1215   27.6263 C   0  0  0  0  0  0  0  0  0  0  0  0
    3.7087   -0.0806   26.9797 C   0  0  0  0  0  0  0  0  0  0  0  0
    4.0682    0.6296   25.8558 N   0  0  0  0  0  0  0  0  0  0  0  0
    3.1803    1.6479   25.7118 C   0  0  0  0  0  0  0  0  0  0  0  0
    2.2269    1.5813   26.6164 N   0  0  0  0  0  0  0  0  0  0  0  0
    2.4935    0.4792   27.4281 C   0  0  0  0  0  0  0  0  0  0  0  0
   -3.0452    0.1969   32.9989 N   0  0  0  0  0  0  0  0  0  0  0  0
   -3.9956    1.1143   32.6369 C   0  0  0  0  0  0  0  0  0  0  0  0
   -4.6275    1.5033   33.7965 C   0  0  0  0  0  0  0  0  0  0  0  0
   -3.9962    0.7734   34.8124 C   0  0  0  0  0  0  0  0  0  0  0  0
   -3.0343   -0.0220   34.3388 N   0  0  0  0  0  0  0  0  0  0  0  0
   -4.8495   -3.1665   32.3517 H   0  0  0  0  0  0  0  0  0  0  0  0
   -4.1702   -2.3986   33.7834 H   0  0  0  0  0  0  0  0  0  0  0  0
   -5.0648   -1.4532   32.5642 H   0  0  0  0  0  0  0  0  0  0  0  0
   -2.3411   -2.8550   32.2349 H   0  0  0  0  0  0  0  0  0  0  0  0
   -3.1957   -2.2159   30.8817 H   0  0  0  0  0  0  0  0  0  0  0  0
   -1.3465   -0.9132   32.7303 H   0  0  0  0  0  0  0  0  0  0  0  0
   -2.4392   -0.1181   29.9922 H   0  0  0  0  0  0  0  0  0  0  0  0
   -1.6367    1.0846   30.9676 H   0  0  0  0  0  0  0  0  0  0  0  0
    0.0150   -1.2313   30.1422 H   0  0  0  0  0  0  0  0  0  0  0  0
    2.0643   -1.5731   30.1210 H   0  0  0  0  0  0  0  0  0  0  0  0
    5.3408   -1.4562   27.3153 H   0  0  0  0  0  0  0  0  0  0  0  0
    4.8301    0.4230   25.2258 H   0  0  0  0  0  0  0  0  0  0  0  0
    3.2517    2.3780   24.9172 H   0  0  0  0  0  0  0  0  0  0  0  0
   -4.1532    1.4045   31.6077 H   0  0  0  0  0  0  0  0  0  0  0  0
   -5.4241    2.2215   33.8917 H   0  0  0  0  0  0  0  0  0  0  0  0
   -4.1879    0.7884   35.8774 H   0  0  0  0  0  0  0  0  0  0  0  0
  1  2  1  0
  2  3  1  0
  3  4  1  0
  4  5  1  0
  5  6  1  0
  6  7  2  0
  6  8  1  0
  8  9  2  0
  9 10  1  0
 10 11  1  0
 10 12  2  0
 12 13  1  0
 13 14  1  0
 14 15  1  0
 15 16  2  0
 16 17  1  0
  3 18  1  0
 18 19  1  0
 19 20  2  0
 20 21  1  0
 21 22  2  0
 17  8  1  0
 22 18  1  0
 17 13  2  0
  1 23  1  0
  1 24  1  0
  1 25  1  0
  2 26  1  0
  2 27  1  0
  3 28  1  0
  4 29  1  0
  4 30  1  0
  5 31  1  0
  9 32  1  0
 12 33  1  0
 14 34  1  0
 15 35  1  0
 19 36  1  0
 20 37  1  0
 21 38  1  0
M  END
>  <Energy>  (140) 
70.145599968157754

>  <compound_id>  (140) 
10898

>  <target_id>  (140) 
1

>  <reference_id>  (140) 
7

>  <inspiration_ids>  (140) 
[55, 7]

>  <energy_score>  (140) 
21.956221987264485

>  <distance_score>  (140) 
12.578182340259763

>  <path>  (140) 
/opt/xchem-fragalysis-2/maxwin/BulkDock/SCRATCH/511013/C10898-P7/C10898-P7.minimised.mol

>  <scratch_subdir>  (140) 
/opt/xchem-fragalysis-2/maxwin/BulkDock/SCRATCH/511013/C10898-P7

>  <fragmenstein_runtime>  (140) 
10.455395698547363

>  <fragmenstein_outcome>  (140) 
too moved

>  <fragmenstein_mode>  (140) 
expansion

>  <fragmenstein_error>  (140) 


$$$$
C10933-P55
     RDKit          3D

 52 56  0  0  0  0  0  0  0  0999 V2000
   -1.6726   -2.6812   31.8208 C   0  0  0  0  0  0  0  0  0  0  0  0
   -0.8412   -2.0336   30.6890 C   0  0  0  0  0  0  0  0  0  0  0  0
   -0.1610   -0.6490   30.9805 C   0  0  0  0  0  0  0  0  0  0  0  0
    0.3606    0.0807   29.6282 C   0  0  0  0  0  0  0  0  0  0  0  0
   -0.3833    0.7782   29.0938 O   0  0  0  0  0  0  0  0  0  0  0  0
    1.9242   -0.4546   29.2289 N   0  0  0  0  0  0  0  0  0  0  0  0
    2.6844   -0.0509   27.5300 C   0  0  0  0  0  0  0  0  0  0  0  0
    2.8282    1.6589   26.9586 C   0  0  0  0  0  0  0  0  0  0  0  0
    4.1165    2.3478   27.4281 C   0  0  0  0  0  0  0  0  0  0  0  0
    5.1213    1.3429   27.6795 N   0  0  0  0  0  0  0  0  0  0  0  0
    6.3528    1.4537   27.1852 N   0  0  0  0  0  0  0  0  0  0  0  0
    6.8648    0.2159   27.2701 C   0  0  0  0  0  0  0  0  0  0  0  0
    8.3237   -0.0536   26.5860 C   0  0  0  0  0  0  0  0  0  0  0  0
    8.9881    0.8678   25.8954 N   0  0  0  0  0  0  0  0  0  0  0  0
   10.1440    0.2727   25.4499 C   0  0  0  0  0  0  0  0  0  0  0  0
   11.1698    0.7843   24.6357 C   0  0  0  0  0  0  0  0  0  0  0  0
   12.2578   -0.0404   24.3235 C   0  0  0  0  0  0  0  0  0  0  0  0
   12.3258   -1.3474   24.8129 C   0  0  0  0  0  0  0  0  0  0  0  0
   11.3081   -1.8747   25.6202 C   0  0  0  0  0  0  0  0  0  0  0  0
   10.2185   -1.0385   25.9016 C   0  0  0  0  0  0  0  0  0  0  0  0
    9.0237   -1.2383   26.5660 N   0  0  0  0  0  0  0  0  0  0  0  0
    5.9038   -0.6814   27.9093 C   0  0  0  0  0  0  0  0  0  0  0  0
    4.7625    0.0983   28.1622 C   0  0  0  0  0  0  0  0  0  0  0  0
    2.8797   -0.1715   28.2280 C   0  0  0  0  0  0  0  0  0  0  0  0
   -1.2080    0.1617   31.7071 N   0  0  0  0  0  0  0  0  0  0  0  0
   -2.4474    0.5592   31.2359 C   0  0  0  0  0  0  0  0  0  0  0  0
   -3.2005    0.9396   32.3230 C   0  0  0  0  0  0  0  0  0  0  0  0
   -2.3525    0.7312   33.4202 C   0  0  0  0  0  0  0  0  0  0  0  0
   -1.1555    0.2502   33.0659 N   0  0  0  0  0  0  0  0  0  0  0  0
   -2.6150   -2.1572   31.9948 H   0  0  0  0  0  0  0  0  0  0  0  0
   -1.9235   -3.7103   31.5426 H   0  0  0  0  0  0  0  0  0  0  0  0
   -1.0989   -2.7141   32.7518 H   0  0  0  0  0  0  0  0  0  0  0  0
   -0.0463   -2.7328   30.3997 H   0  0  0  0  0  0  0  0  0  0  0  0
   -1.4853   -1.9403   29.8047 H   0  0  0  0  0  0  0  0  0  0  0  0
    0.6806   -0.7517   31.6742 H   0  0  0  0  0  0  0  0  0  0  0  0
    1.5661   -0.0894   27.0061 H   0  0  0  0  0  0  0  0  0  0  0  0
    3.0022   -0.9202   26.6532 H   0  0  0  0  0  0  0  0  0  0  0  0
    2.8122    1.5903   25.8663 H   0  0  0  0  0  0  0  0  0  0  0  0
    1.9349    2.2049   27.2851 H   0  0  0  0  0  0  0  0  0  0  0  0
    4.4801    3.0792   26.7017 H   0  0  0  0  0  0  0  0  0  0  0  0
    3.9511    2.8648   28.3798 H   0  0  0  0  0  0  0  0  0  0  0  0
   11.1105    1.8001   24.2628 H   0  0  0  0  0  0  0  0  0  0  0  0
   13.0496    0.3336   23.6793 H   0  0  0  0  0  0  0  0  0  0  0  0
   13.1698   -1.9752   24.5362 H   0  0  0  0  0  0  0  0  0  0  0  0
   11.3439   -2.9016   25.9674 H   0  0  0  0  0  0  0  0  0  0  0  0
    8.7089   -2.1070   26.9702 H   0  0  0  0  0  0  0  0  0  0  0  0
    5.9863   -1.7567   27.9875 H   0  0  0  0  0  0  0  0  0  0  0  0
    3.3435   -1.2849   28.6207 H   0  0  0  0  0  0  0  0  0  0  0  0
    3.1402    0.6764   29.1135 H   0  0  0  0  0  0  0  0  0  0  0  0
   -2.6798    0.5161   30.1809 H   0  0  0  0  0  0  0  0  0  0  0  0
   -4.2175    1.3044   32.3175 H   0  0  0  0  0  0  0  0  0  0  0  0
   -2.5542    0.9022   34.4695 H   0  0  0  0  0  0  0  0  0  0  0  0
  1  2  1  0
  2  3  1  0
  3  4  1  0
  4  5  2  0
  4  6  1  0
  6  7  1  0
  7  8  1  0
  8  9  1  0
  9 10  1  0
 10 11  1  0
 11 12  2  0
 12 13  1  0
 13 14  2  0
 14 15  1  0
 15 16  2  0
 16 17  1  0
 17 18  2  0
 18 19  1  0
 19 20  2  0
 20 21  1  0
 12 22  1  0
 22 23  2  0
 23 24  1  0
  3 25  1  0
 25 26  1  0
 26 27  2  0
 27 28  1  0
 28 29  2  0
 24  6  1  0
 29 25  1  0
 23 10  1  0
 21 13  1  0
 20 15  1  0
  1 30  1  0
  1 31  1  0
  1 32  1  0
  2 33  1  0
  2 34  1  0
  3 35  1  0
  7 36  1  0
  7 37  1  0
  8 38  1  0
  8 39  1  0
  9 40  1  0
  9 41  1  0
 16 42  1  0
 17 43  1  0
 18 44  1  0
 19 45  1  0
 21 46  1  0
 22 47  1  0
 24 48  1  0
 24 49  1  0
 26 50  1  0
 27 51  1  0
 28 52  1  0
M  END
>  <Energy>  (141) 
815.88491305207856

>  <compound_id>  (141) 
10933

>  <target_id>  (141) 
1

>  <reference_id>  (141) 
55

>  <inspiration_ids>  (141) 
[55, 7]

>  <energy_score>  (141) 
739.7846262089926

>  <distance_score>  (141) 
12.125999524365918

>  <path>  (141) 
/opt/xchem-fragalysis-2/maxwin/BulkDock/SCRATCH/511013/C10933-P55/C10933-P55.minimised.mol

>  <scratch_subdir>  (141) 
/opt/xchem-fragalysis-2/maxwin/BulkDock/SCRATCH/511013/C10933-P55

>  <fragmenstein_runtime>  (141) 
9.968912839889526

>  <fragmenstein_outcome>  (141) 
too moved

>  <fragmenstein_mode>  (141) 
expansion

>  <fragmenstein_error>  (141) 


$$$$
C10933-P7
     RDKit          3D

 52 56  0  0  0  0  0  0  0  0999 V2000
   -2.0474   -2.1449   30.2915 C   0  0  0  0  0  0  0  0  0  0  0  0
   -0.8737   -1.2756   29.7753 C   0  0  0  0  0  0  0  0  0  0  0  0
    0.1665   -0.8199   30.8379 C   0  0  0  0  0  0  0  0  0  0  0  0
    1.3255    0.2426   30.3680 C   0  0  0  0  0  0  0  0  0  0  0  0
    1.0963    1.3773   30.3470 O   0  0  0  0  0  0  0  0  0  0  0  0
    2.7500   -0.6423   30.0948 N   0  0  0  0  0  0  0  0  0  0  0  0
    3.8771   -0.0551   29.6486 C   0  0  0  0  0  0  0  0  0  0  0  0
    3.6910    1.3458   28.3899 C   0  0  0  0  0  0  0  0  0  0  0  0
    5.0458    1.9532   27.9608 C   0  0  0  0  0  0  0  0  0  0  0  0
    6.0001    0.8840   27.8025 N   0  0  0  0  0  0  0  0  0  0  0  0
    7.2183    1.0413   27.2520 N   0  0  0  0  0  0  0  0  0  0  0  0
    7.7584   -0.1943   27.3443 C   0  0  0  0  0  0  0  0  0  0  0  0
    9.1940   -0.4950   26.6692 C   0  0  0  0  0  0  0  0  0  0  0  0
    9.7963   -1.6608   26.5369 N   0  0  0  0  0  0  0  0  0  0  0  0
   10.9197   -1.4255   25.7611 C   0  0  0  0  0  0  0  0  0  0  0  0
   11.8749   -2.3223   25.2515 C   0  0  0  0  0  0  0  0  0  0  0  0
   12.9257   -1.8287   24.4672 C   0  0  0  0  0  0  0  0  0  0  0  0
   13.0198   -0.4646   24.1816 C   0  0  0  0  0  0  0  0  0  0  0  0
   12.0699    0.4454   24.6638 C   0  0  0  0  0  0  0  0  0  0  0  0
   11.0418   -0.0745   25.4592 C   0  0  0  0  0  0  0  0  0  0  0  0
    9.9651    0.4963   26.0940 N   0  0  0  0  0  0  0  0  0  0  0  0
    6.8940   -1.0733   28.1066 C   0  0  0  0  0  0  0  0  0  0  0  0
    5.8130   -0.2836   28.4896 C   0  0  0  0  0  0  0  0  0  0  0  0
    4.6530   -0.2128   29.7990 C   0  0  0  0  0  0  0  0  0  0  0  0
   -0.6412   -0.2877   31.9993 N   0  0  0  0  0  0  0  0  0  0  0  0
   -1.4902    0.8027   31.9983 C   0  0  0  0  0  0  0  0  0  0  0  0
   -2.2917    0.7007   33.1128 C   0  0  0  0  0  0  0  0  0  0  0  0
   -1.8705   -0.4825   33.7375 C   0  0  0  0  0  0  0  0  0  0  0  0
   -0.8853   -1.0948   33.0716 N   0  0  0  0  0  0  0  0  0  0  0  0
   -1.6763   -2.9824   30.8897 H   0  0  0  0  0  0  0  0  0  0  0  0
   -2.7612   -1.5657   30.8819 H   0  0  0  0  0  0  0  0  0  0  0  0
   -2.5949   -2.5564   29.4370 H   0  0  0  0  0  0  0  0  0  0  0  0
   -1.2872   -0.3966   29.2649 H   0  0  0  0  0  0  0  0  0  0  0  0
   -0.3351   -1.8401   29.0037 H   0  0  0  0  0  0  0  0  0  0  0  0
    0.6864   -1.6976   31.2433 H   0  0  0  0  0  0  0  0  0  0  0  0
    3.4472    0.9032   30.3415 H   0  0  0  0  0  0  0  0  0  0  0  0
    3.4161   -0.6319   28.6363 H   0  0  0  0  0  0  0  0  0  0  0  0
    3.1666    0.9257   27.5184 H   0  0  0  0  0  0  0  0  0  0  0  0
    3.0340    2.1162   28.8113 H   0  0  0  0  0  0  0  0  0  0  0  0
    4.9546    2.5013   27.0212 H   0  0  0  0  0  0  0  0  0  0  0  0
    5.4325    2.6209   28.7378 H   0  0  0  0  0  0  0  0  0  0  0  0
   11.7782   -3.3820   25.4576 H   0  0  0  0  0  0  0  0  0  0  0  0
   13.6549   -2.5184   24.0515 H   0  0  0  0  0  0  0  0  0  0  0  0
   13.8286   -0.1090   23.5477 H   0  0  0  0  0  0  0  0  0  0  0  0
   12.1363    1.5016   24.4291 H   0  0  0  0  0  0  0  0  0  0  0  0
    9.6958    1.4678   26.0817 H   0  0  0  0  0  0  0  0  0  0  0  0
    7.1296   -2.0832   28.4132 H   0  0  0  0  0  0  0  0  0  0  0  0
    5.0867   -1.2562   30.2773 H   0  0  0  0  0  0  0  0  0  0  0  0
    5.2229    0.4568   30.6878 H   0  0  0  0  0  0  0  0  0  0  0  0
   -1.4543    1.5304   31.1992 H   0  0  0  0  0  0  0  0  0  0  0  0
   -3.0695    1.3831   33.4219 H   0  0  0  0  0  0  0  0  0  0  0  0
   -2.2409   -0.9328   34.6491 H   0  0  0  0  0  0  0  0  0  0  0  0
  1  2  1  0
  2  3  1  0
  3  4  1  0
  4  5  2  0
  4  6  1  0
  6  7  1  0
  7  8  1  0
  8  9  1  0
  9 10  1  0
 10 11  1  0
 11 12  2  0
 12 13  1  0
 13 14  2  0
 14 15  1  0
 15 16  2  0
 16 17  1  0
 17 18  2  0
 18 19  1  0
 19 20  2  0
 20 21  1  0
 12 22  1  0
 22 23  2  0
 23 24  1  0
  3 25  1  0
 25 26  1  0
 26 27  2  0
 27 28  1  0
 28 29  2  0
 24  6  1  0
 29 25  1  0
 23 10  1  0
 21 13  1  0
 20 15  1  0
  1 30  1  0
  1 31  1  0
  1 32  1  0
  2 33  1  0
  2 34  1  0
  3 35  1  0
  7 36  1  0
  7 37  1  0
  8 38  1  0
  8 39  1  0
  9 40  1  0
  9 41  1  0
 16 42  1  0
 17 43  1  0
 18 44  1  0
 19 45  1  0
 21 46  1  0
 22 47  1  0
 24 48  1  0
 24 49  1  0
 26 50  1  0
 27 51  1  0
 28 52  1  0
M  END
>  <Energy>  (142) 
826.01803488257303

>  <compound_id>  (142) 
10933

>  <target_id>  (142) 
1

>  <reference_id>  (142) 
7

>  <inspiration_ids>  (142) 
[55, 7]

>  <energy_score>  (142) 
749.9177480394947

>  <distance_score>  (142) 
12.236631580610632

>  <path>  (142) 
/opt/xchem-fragalysis-2/maxwin/BulkDock/SCRATCH/511013/C10933-P7/C10933-P7.minimised.mol

>  <scratch_subdir>  (142) 
/opt/xchem-fragalysis-2/maxwin/BulkDock/SCRATCH/511013/C10933-P7

>  <fragmenstein_runtime>  (142) 
8.740575075149536

>  <fragmenstein_outcome>  (142) 
too moved

>  <fragmenstein_mode>  (142) 
expansion

>  <fragmenstein_error>  (142) 


$$$$
C10934-P55
     RDKit          3D

 45 47  0  0  0  0  0  0  0  0999 V2000
    2.9892    1.9822   30.0184 C   0  0  0  0  0  0  0  0  0  0  0  0
    1.7425    1.2323   29.7463 N   0  0  0  0  0  0  0  0  0  0  0  0
    2.6255    0.6735   28.5217 C   0  0  0  0  0  0  0  0  0  0  0  0
    2.8516    1.6357   27.2456 C   0  0  0  0  0  0  0  0  0  0  0  0
    3.9893    1.3605   26.2120 N   0  0  0  0  0  0  0  0  0  0  0  0
    4.7347    2.2942   27.1078 C   0  0  0  0  0  0  0  0  0  0  0  0
    4.7673    0.1866   25.9694 C   0  0  0  0  0  0  0  0  0  0  0  0
    4.8045   -0.8614   26.5623 O   0  0  0  0  0  0  0  0  0  0  0  0
    5.6251    0.2119   24.6868 C   0  0  0  0  0  0  0  0  0  0  0  0
    5.8880   -1.0439   24.0703 C   0  0  0  0  0  0  0  0  0  0  0  0
    6.5646   -1.1937   22.8522 C   0  0  0  0  0  0  0  0  0  0  0  0
    7.0347   -0.0856   22.1694 C   0  0  0  0  0  0  0  0  0  0  0  0
    6.8602    1.1441   22.7952 C   0  0  0  0  0  0  0  0  0  0  0  0
    7.2517    2.3959   22.3967 N   0  0  0  0  0  0  0  0  0  0  0  0
    6.8663    3.2791   23.3531 C   0  0  0  0  0  0  0  0  0  0  0  0
    6.2182    2.6835   24.3264 N   0  0  0  0  0  0  0  0  0  0  0  0
    6.1789    1.3328   24.0127 C   0  0  0  0  0  0  0  0  0  0  0  0
    1.1233    0.1308   30.4681 C   0  0  0  0  0  0  0  0  0  0  0  0
    1.5180   -0.5039   31.4152 O   0  0  0  0  0  0  0  0  0  0  0  0
   -0.3073   -0.1594   29.9591 C   0  0  0  0  0  0  0  0  0  0  0  0
   -1.3114   -0.2634   31.0518 N   0  0  0  0  0  0  0  0  0  0  0  0
   -1.6264    0.6997   31.9848 C   0  0  0  0  0  0  0  0  0  0  0  0
   -2.6755    0.2168   32.7339 C   0  0  0  0  0  0  0  0  0  0  0  0
   -2.9567   -1.0354   32.1704 C   0  0  0  0  0  0  0  0  0  0  0  0
   -2.1579   -1.3299   31.1377 N   0  0  0  0  0  0  0  0  0  0  0  0
    3.1795    2.8306   29.3588 H   0  0  0  0  0  0  0  0  0  0  0  0
    3.8658    1.3801   30.2961 H   0  0  0  0  0  0  0  0  0  0  0  0
    2.7606    2.4774   30.9749 H   0  0  0  0  0  0  0  0  0  0  0  0
    3.5334    0.1400   28.8469 H   0  0  0  0  0  0  0  0  0  0  0  0
    2.0093   -0.1546   28.1359 H   0  0  0  0  0  0  0  0  0  0  0  0
    1.9851    1.3662   26.6235 H   0  0  0  0  0  0  0  0  0  0  0  0
    2.5990    2.6962   27.4118 H   0  0  0  0  0  0  0  0  0  0  0  0
    5.7608    2.3507   26.7219 H   0  0  0  0  0  0  0  0  0  0  0  0
    4.3885    3.3360   27.0568 H   0  0  0  0  0  0  0  0  0  0  0  0
    4.9068    1.9120   28.1221 H   0  0  0  0  0  0  0  0  0  0  0  0
    5.4800   -1.9313   24.5514 H   0  0  0  0  0  0  0  0  0  0  0  0
    6.6793   -2.1837   22.4265 H   0  0  0  0  0  0  0  0  0  0  0  0
    7.5004   -0.1686   21.2001 H   0  0  0  0  0  0  0  0  0  0  0  0
    7.7315    2.6251   21.5375 H   0  0  0  0  0  0  0  0  0  0  0  0
    7.0699    4.3392   23.2879 H   0  0  0  0  0  0  0  0  0  0  0  0
   -0.3075   -1.1123   29.4208 H   0  0  0  0  0  0  0  0  0  0  0  0
   -0.6657    0.6375   29.3000 H   0  0  0  0  0  0  0  0  0  0  0  0
   -1.0693    1.6253   32.0382 H   0  0  0  0  0  0  0  0  0  0  0  0
   -3.1630    0.7052   33.5649 H   0  0  0  0  0  0  0  0  0  0  0  0
   -3.7212   -1.7430   32.4607 H   0  0  0  0  0  0  0  0  0  0  0  0
  1  2  1  0
  2  3  1  0
  3  4  1  0
  4  5  1  0
  5  6  1  0
  5  7  1  0
  7  8  2  0
  7  9  1  0
  9 10  2  0
 10 11  1  0
 11 12  2  0
 12 13  1  0
 13 14  1  0
 14 15  1  0
 15 16  2  0
 16 17  1  0
  2 18  1  0
 18 19  2  0
 18 20  1  0
 20 21  1  0
 21 22  1  0
 22 23  2  0
 23 24  1  0
 24 25  2  0
 17  9  1  0
 25 21  1  0
 17 13  2  0
  1 26  1  0
  1 27  1  0
  1 28  1  0
  3 29  1  0
  3 30  1  0
  4 31  1  0
  4 32  1  0
  6 33  1  0
  6 34  1  0
  6 35  1  0
 10 36  1  0
 11 37  1  0
 12 38  1  0
 14 39  1  0
 15 40  1  0
 20 41  1  0
 20 42  1  0
 22 43  1  0
 23 44  1  0
 24 45  1  0
M  END
>  <Energy>  (143) 
210.23181451169646

>  <compound_id>  (143) 
10934

>  <target_id>  (143) 
1

>  <reference_id>  (143) 
55

>  <inspiration_ids>  (143) 
[55, 7]

>  <energy_score>  (143) 
126.74523416186543

>  <distance_score>  (143) 
12.1323062392661

>  <path>  (143) 
/opt/xchem-fragalysis-2/maxwin/BulkDock/SCRATCH/511013/C10934-P55/C10934-P55.minimised.mol

>  <scratch_subdir>  (143) 
/opt/xchem-fragalysis-2/maxwin/BulkDock/SCRATCH/511013/C10934-P55

>  <fragmenstein_runtime>  (143) 
11.758846521377563

>  <fragmenstein_outcome>  (143) 
too moved

>  <fragmenstein_mode>  (143) 
expansion

>  <fragmenstein_error>  (143) 


$$$$
C10934-P7
     RDKit          3D

 45 47  0  0  0  0  0  0  0  0999 V2000
    4.3203   -1.7970   28.8355 C   0  0  0  0  0  0  0  0  0  0  0  0
    3.0685   -1.0147   29.0050 N   0  0  0  0  0  0  0  0  0  0  0  0
    3.7034   -0.1831   27.8273 C   0  0  0  0  0  0  0  0  0  0  0  0
    4.0815   -0.6414   26.3222 C   0  0  0  0  0  0  0  0  0  0  0  0
    5.5745   -0.4469   25.8286 N   0  0  0  0  0  0  0  0  0  0  0  0
    5.1034    0.9615   25.6375 C   0  0  0  0  0  0  0  0  0  0  0  0
    6.2406   -0.9135   24.6291 C   0  0  0  0  0  0  0  0  0  0  0  0
    5.8046   -1.4889   23.6642 O   0  0  0  0  0  0  0  0  0  0  0  0
    7.7197   -0.7628   24.5958 C   0  0  0  0  0  0  0  0  0  0  0  0
    8.4830   -1.8985   24.9384 C   0  0  0  0  0  0  0  0  0  0  0  0
    9.8749   -1.9094   24.8489 C   0  0  0  0  0  0  0  0  0  0  0  0
   10.5666   -0.7825   24.4150 C   0  0  0  0  0  0  0  0  0  0  0  0
    9.8028    0.3042   23.9868 C   0  0  0  0  0  0  0  0  0  0  0  0
   10.1821    1.5127   23.4602 N   0  0  0  0  0  0  0  0  0  0  0  0
    9.0499    2.2374   23.2369 C   0  0  0  0  0  0  0  0  0  0  0  0
    7.9661    1.5436   23.5021 N   0  0  0  0  0  0  0  0  0  0  0  0
    8.4031    0.3434   24.0379 C   0  0  0  0  0  0  0  0  0  0  0  0
    1.6880   -1.3561   28.6985 C   0  0  0  0  0  0  0  0  0  0  0  0
    1.2264   -2.3225   28.1480 O   0  0  0  0  0  0  0  0  0  0  0  0
    0.7329   -0.2913   29.3039 C   0  0  0  0  0  0  0  0  0  0  0  0
   -0.3617   -0.7392   30.2044 N   0  0  0  0  0  0  0  0  0  0  0  0
   -1.2294   -1.7982   30.0781 C   0  0  0  0  0  0  0  0  0  0  0  0
   -2.1527   -1.6929   31.0969 C   0  0  0  0  0  0  0  0  0  0  0  0
   -1.8137   -0.5086   31.7625 C   0  0  0  0  0  0  0  0  0  0  0  0
   -0.7471    0.0861   31.2234 N   0  0  0  0  0  0  0  0  0  0  0  0
    4.2947   -2.4756   29.7015 H   0  0  0  0  0  0  0  0  0  0  0  0
    5.2715   -1.2634   28.9719 H   0  0  0  0  0  0  0  0  0  0  0  0
    4.2915   -2.5036   28.0032 H   0  0  0  0  0  0  0  0  0  0  0  0
    4.5124    0.4263   28.2663 H   0  0  0  0  0  0  0  0  0  0  0  0
    2.9186    0.5710   27.6517 H   0  0  0  0  0  0  0  0  0  0  0  0
    3.9605   -1.7285   26.2443 H   0  0  0  0  0  0  0  0  0  0  0  0
    3.3213   -0.3156   25.5986 H   0  0  0  0  0  0  0  0  0  0  0  0
    4.7810    1.5070   26.5293 H   0  0  0  0  0  0  0  0  0  0  0  0
    4.4383    1.0969   24.7741 H   0  0  0  0  0  0  0  0  0  0  0  0
    6.0010    1.5219   25.3413 H   0  0  0  0  0  0  0  0  0  0  0  0
    7.9681   -2.7898   25.2830 H   0  0  0  0  0  0  0  0  0  0  0  0
   10.4280   -2.8016   25.1332 H   0  0  0  0  0  0  0  0  0  0  0  0
   11.6511   -0.7824   24.3562 H   0  0  0  0  0  0  0  0  0  0  0  0
   11.1328    1.8242   23.3135 H   0  0  0  0  0  0  0  0  0  0  0  0
    9.0774    3.2598   22.8836 H   0  0  0  0  0  0  0  0  0  0  0  0
    0.2374    0.2300   28.4769 H   0  0  0  0  0  0  0  0  0  0  0  0
    1.3116    0.4429   29.8765 H   0  0  0  0  0  0  0  0  0  0  0  0
   -1.1131   -2.5211   29.2798 H   0  0  0  0  0  0  0  0  0  0  0  0
   -2.9739   -2.3614   31.2984 H   0  0  0  0  0  0  0  0  0  0  0  0
   -2.2961   -0.0429   32.6115 H   0  0  0  0  0  0  0  0  0  0  0  0
  1  2  1  0
  2  3  1  0
  3  4  1  0
  4  5  1  0
  5  6  1  0
  5  7  1  0
  7  8  2  0
  7  9  1  0
  9 10  2  0
 10 11  1  0
 11 12  2  0
 12 13  1  0
 13 14  1  0
 14 15  1  0
 15 16  2  0
 16 17  1  0
  2 18  1  0
 18 19  2  0
 18 20  1  0
 20 21  1  0
 21 22  1  0
 22 23  2  0
 23 24  1  0
 24 25  2  0
 17  9  1  0
 25 21  1  0
 17 13  2  0
  1 26  1  0
  1 27  1  0
  1 28  1  0
  3 29  1  0
  3 30  1  0
  4 31  1  0
  4 32  1  0
  6 33  1  0
  6 34  1  0
  6 35  1  0
 10 36  1  0
 11 37  1  0
 12 38  1  0
 14 39  1  0
 15 40  1  0
 20 41  1  0
 20 42  1  0
 22 43  1  0
 23 44  1  0
 24 45  1  0
M  END
>  <Energy>  (144) 
216.25408729808794

>  <compound_id>  (144) 
10934

>  <target_id>  (144) 
1

>  <reference_id>  (144) 
7

>  <inspiration_ids>  (144) 
[55, 7]

>  <energy_score>  (144) 
132.76750694825802

>  <distance_score>  (144) 
12.393922321564368

>  <path>  (144) 
/opt/xchem-fragalysis-2/maxwin/BulkDock/SCRATCH/511013/C10934-P7/C10934-P7.minimised.mol

>  <scratch_subdir>  (144) 
/opt/xchem-fragalysis-2/maxwin/BulkDock/SCRATCH/511013/C10934-P7

>  <fragmenstein_runtime>  (144) 
14.531402111053467

>  <fragmenstein_outcome>  (144) 
too moved

>  <fragmenstein_mode>  (144) 
expansion

>  <fragmenstein_error>  (144) 


$$$$
C10935-P55
     RDKit          3D

 40 42  0  0  0  0  0  0  0  0999 V2000
    0.6255   -1.7066   30.6556 C   0  0  0  0  0  0  0  0  0  0  0  0
   -0.3420   -1.4477   29.4993 C   0  0  0  0  0  0  0  0  0  0  0  0
    0.2771   -0.3979   28.4874 C   0  0  0  0  0  0  0  0  0  0  0  0
    1.6022   -0.6538   27.8128 N   0  0  0  0  0  0  0  0  0  0  0  0
    3.0089   -0.2255   28.1970 C   0  0  0  0  0  0  0  0  0  0  0  0
    3.3834    0.3376   29.1556 O   0  0  0  0  0  0  0  0  0  0  0  0
    3.7972   -0.6832   26.9644 N   0  0  0  0  0  0  0  0  0  0  0  0
    5.2621   -0.6371   26.6740 C   0  0  0  0  0  0  0  0  0  0  0  0
    5.8670   -0.1629   25.3422 C   0  0  0  0  0  0  0  0  0  0  0  0
    5.2374    0.7963   24.5400 C   0  0  0  0  0  0  0  0  0  0  0  0
    4.0596    1.3071   24.9384 F   0  0  0  0  0  0  0  0  0  0  0  0
    5.7970    1.3186   23.3583 C   0  0  0  0  0  0  0  0  0  0  0  0
    7.0858    0.9976   22.9429 C   0  0  0  0  0  0  0  0  0  0  0  0
    7.7786    0.1492   23.7939 C   0  0  0  0  0  0  0  0  0  0  0  0
    9.1000   -0.2245   23.8092 N   0  0  0  0  0  0  0  0  0  0  0  0
    9.2787   -1.0854   24.8464 C   0  0  0  0  0  0  0  0  0  0  0  0
    8.1680   -1.2541   25.5252 N   0  0  0  0  0  0  0  0  0  0  0  0
    7.2094   -0.4556   24.9252 C   0  0  0  0  0  0  0  0  0  0  0  0
   -1.6823   -1.1142   30.0426 N   0  0  0  0  0  0  0  0  0  0  0  0
   -2.6907   -2.0077   30.3440 C   0  0  0  0  0  0  0  0  0  0  0  0
   -3.6890   -1.2966   30.9709 C   0  0  0  0  0  0  0  0  0  0  0  0
   -3.2065    0.0212   31.0010 C   0  0  0  0  0  0  0  0  0  0  0  0
   -1.9992    0.1414   30.4355 N   0  0  0  0  0  0  0  0  0  0  0  0
    0.2229   -2.4548   31.3474 H   0  0  0  0  0  0  0  0  0  0  0  0
    1.5865   -2.0799   30.2878 H   0  0  0  0  0  0  0  0  0  0  0  0
    0.8114   -0.7916   31.2289 H   0  0  0  0  0  0  0  0  0  0  0  0
   -0.4806   -2.3865   28.9470 H   0  0  0  0  0  0  0  0  0  0  0  0
    0.4015    0.5575   29.0111 H   0  0  0  0  0  0  0  0  0  0  0  0
   -0.4388   -0.2297   27.6750 H   0  0  0  0  0  0  0  0  0  0  0  0
    1.6151   -1.0437   26.8837 H   0  0  0  0  0  0  0  0  0  0  0  0
    3.1915   -1.2121   26.3585 H   0  0  0  0  0  0  0  0  0  0  0  0
    5.6201   -1.6491   26.8748 H   0  0  0  0  0  0  0  0  0  0  0  0
    5.6911    0.0015   27.4560 H   0  0  0  0  0  0  0  0  0  0  0  0
    5.2007    2.0279   22.7893 H   0  0  0  0  0  0  0  0  0  0  0  0
    7.5285    1.4589   22.0703 H   0  0  0  0  0  0  0  0  0  0  0  0
    9.8206    0.0770   23.1686 H   0  0  0  0  0  0  0  0  0  0  0  0
   10.2341   -1.5442   25.0659 H   0  0  0  0  0  0  0  0  0  0  0  0
   -2.5926   -3.0562   30.1009 H   0  0  0  0  0  0  0  0  0  0  0  0
   -4.6238   -1.6769   31.3553 H   0  0  0  0  0  0  0  0  0  0  0  0
   -3.6813    0.9034   31.4107 H   0  0  0  0  0  0  0  0  0  0  0  0
  1  2  1  0
  2  3  1  0
  3  4  1  0
  4  5  1  0
  5  6  2  0
  5  7  1  0
  7  8  1  0
  8  9  1  0
  9 10  2  0
 10 11  1  0
 10 12  1  0
 12 13  2  0
 13 14  1  0
 14 15  1  0
 15 16  1  0
 16 17  2  0
 17 18  1  0
  2 19  1  0
 19 20  1  0
 20 21  2  0
 21 22  1  0
 22 23  2  0
 18  9  1  0
 23 19  1  0
 18 14  2  0
  1 24  1  0
  1 25  1  0
  1 26  1  0
  2 27  1  0
  3 28  1  0
  3 29  1  0
  4 30  1  0
  7 31  1  0
  8 32  1  0
  8 33  1  0
 12 34  1  0
 13 35  1  0
 15 36  1  0
 16 37  1  0
 20 38  1  0
 21 39  1  0
 22 40  1  0
M  END
>  <Energy>  (145) 
-44.514914870584015

>  <compound_id>  (145) 
10935

>  <target_id>  (145) 
1

>  <reference_id>  (145) 
55

>  <inspiration_ids>  (145) 
[55, 7]

>  <energy_score>  (145) 
-4.321150567601947

>  <distance_score>  (145) 
12.40044557620967

>  <path>  (145) 
/opt/xchem-fragalysis-2/maxwin/BulkDock/SCRATCH/511013/C10935-P55/C10935-P55.minimised.mol

>  <scratch_subdir>  (145) 
/opt/xchem-fragalysis-2/maxwin/BulkDock/SCRATCH/511013/C10935-P55

>  <fragmenstein_runtime>  (145) 
16.76806950569153

>  <fragmenstein_outcome>  (145) 
too moved

>  <fragmenstein_mode>  (145) 
expansion

>  <fragmenstein_error>  (145) 


$$$$
C10935-P7
     RDKit          3D

 40 42  0  0  0  0  0  0  0  0999 V2000
   -5.1829   -1.5793   25.7551 C   0  0  0  0  0  0  0  0  0  0  0  0
   -6.0159   -1.8471   24.4615 C   0  0  0  0  0  0  0  0  0  0  0  0
   -5.1624   -2.1474   22.9212 C   0  0  0  0  0  0  0  0  0  0  0  0
   -3.4133   -1.9839   22.8163 N   0  0  0  0  0  0  0  0  0  0  0  0
   -2.3376   -2.6899   23.5047 C   0  0  0  0  0  0  0  0  0  0  0  0
   -2.4533   -3.4897   24.3709 O   0  0  0  0  0  0  0  0  0  0  0  0
   -0.6951   -2.2525   22.6746 N   0  0  0  0  0  0  0  0  0  0  0  0
    1.1599   -3.0353   22.8630 C   0  0  0  0  0  0  0  0  0  0  0  0
    2.9480   -2.5211   23.7319 C   0  0  0  0  0  0  0  0  0  0  0  0
    3.1435   -2.4505   25.2615 C   0  0  0  0  0  0  0  0  0  0  0  0
    2.4314   -3.1990   26.1296 F   0  0  0  0  0  0  0  0  0  0  0  0
    3.9997   -1.6941   26.1159 C   0  0  0  0  0  0  0  0  0  0  0  0
    5.0495   -0.9464   25.6967 C   0  0  0  0  0  0  0  0  0  0  0  0
    5.3485   -1.1889   24.3917 C   0  0  0  0  0  0  0  0  0  0  0  0
    6.5037   -0.7378   23.7775 N   0  0  0  0  0  0  0  0  0  0  0  0
    6.5559   -1.2030   22.5253 C   0  0  0  0  0  0  0  0  0  0  0  0
    5.4895   -1.9072   22.2981 N   0  0  0  0  0  0  0  0  0  0  0  0
    4.5286   -1.8978   23.4640 C   0  0  0  0  0  0  0  0  0  0  0  0
   -7.2981   -1.1233   24.6757 N   0  0  0  0  0  0  0  0  0  0  0  0
   -7.5375    0.2254   24.6082 C   0  0  0  0  0  0  0  0  0  0  0  0
   -8.5880    0.4959   25.4618 C   0  0  0  0  0  0  0  0  0  0  0  0
   -8.9618   -0.7498   25.9810 C   0  0  0  0  0  0  0  0  0  0  0  0
   -8.2129   -1.7392   25.4915 N   0  0  0  0  0  0  0  0  0  0  0  0
   -5.6328   -2.0698   26.6266 H   0  0  0  0  0  0  0  0  0  0  0  0
   -4.1486   -1.9001   25.6729 H   0  0  0  0  0  0  0  0  0  0  0  0
   -5.1961   -0.5410   26.0969 H   0  0  0  0  0  0  0  0  0  0  0  0
   -6.4740   -2.8346   24.5094 H   0  0  0  0  0  0  0  0  0  0  0  0
   -5.6293   -1.6207   22.0733 H   0  0  0  0  0  0  0  0  0  0  0  0
   -5.2840   -3.2157   22.7039 H   0  0  0  0  0  0  0  0  0  0  0  0
   -3.0015   -1.3115   22.1959 H   0  0  0  0  0  0  0  0  0  0  0  0
   -0.8319   -1.5020   22.0374 H   0  0  0  0  0  0  0  0  0  0  0  0
    1.3773   -3.2566   21.8254 H   0  0  0  0  0  0  0  0  0  0  0  0
    1.0625   -4.1244   23.0373 H   0  0  0  0  0  0  0  0  0  0  0  0
    3.8103   -1.7670   27.1862 H   0  0  0  0  0  0  0  0  0  0  0  0
    5.6868   -0.4028   26.3789 H   0  0  0  0  0  0  0  0  0  0  0  0
    7.2075   -0.1860   24.2416 H   0  0  0  0  0  0  0  0  0  0  0  0
    7.3627   -1.0159   21.8367 H   0  0  0  0  0  0  0  0  0  0  0  0
   -6.9259    0.8850   24.0123 H   0  0  0  0  0  0  0  0  0  0  0  0
   -9.0203    1.4630   25.6752 H   0  0  0  0  0  0  0  0  0  0  0  0
   -9.7496   -0.9826   26.6860 H   0  0  0  0  0  0  0  0  0  0  0  0
  1  2  1  0
  2  3  1  0
  3  4  1  0
  4  5  1  0
  5  6  2  0
  5  7  1  0
  7  8  1  0
  8  9  1  0
  9 10  2  0
 10 11  1  0
 10 12  1  0
 12 13  2  0
 13 14  1  0
 14 15  1  0
 15 16  1  0
 16 17  2  0
 17 18  1  0
  2 19  1  0
 19 20  1  0
 20 21  2  0
 21 22  1  0
 22 23  2  0
 18  9  1  0
 23 19  1  0
 18 14  2  0
  1 24  1  0
  1 25  1  0
  1 26  1  0
  2 27  1  0
  3 28  1  0
  3 29  1  0
  4 30  1  0
  7 31  1  0
  8 32  1  0
  8 33  1  0
 12 34  1  0
 13 35  1  0
 15 36  1  0
 16 37  1  0
 20 38  1  0
 21 39  1  0
 22 40  1  0
M  END
>  <Energy>  (146) 
356.18936191072584

>  <compound_id>  (146) 
10935

>  <target_id>  (146) 
1

>  <reference_id>  (146) 
7

>  <inspiration_ids>  (146) 
[55, 7]

>  <energy_score>  (146) 
396.38312621370403

>  <distance_score>  (146) 
12.989889297456912

>  <path>  (146) 
/opt/xchem-fragalysis-2/maxwin/BulkDock/SCRATCH/511013/C10935-P7/C10935-P7.minimised.mol

>  <scratch_subdir>  (146) 
/opt/xchem-fragalysis-2/maxwin/BulkDock/SCRATCH/511013/C10935-P7

>  <fragmenstein_runtime>  (146) 
8.188690900802612

>  <fragmenstein_outcome>  (146) 
too moved

>  <fragmenstein_mode>  (146) 
expansion

>  <fragmenstein_error>  (146) 


$$$$
C10936-P55
     RDKit          3D

 45 48  0  0  0  0  0  0  0  0999 V2000
    3.6547   -0.5071   27.9306 C   0  0  0  0  0  0  0  0  0  0  0  0
    4.5319    0.2016   27.1137 N   0  0  0  0  0  0  0  0  0  0  0  0
    2.9409   -0.8442   27.3632 C   0  0  0  0  0  0  0  0  0  0  0  0
    1.3561   -0.1564   27.9338 C   0  0  0  0  0  0  0  0  0  0  0  0
    0.5649   -0.7907   28.9901 N   0  0  0  0  0  0  0  0  0  0  0  0
   -0.7654   -1.1530   28.9096 C   0  0  0  0  0  0  0  0  0  0  0  0
   -1.2092   -1.3646   30.1954 C   0  0  0  0  0  0  0  0  0  0  0  0
   -0.0843   -1.1050   30.9920 C   0  0  0  0  0  0  0  0  0  0  0  0
    0.9932   -0.7652   30.2712 N   0  0  0  0  0  0  0  0  0  0  0  0
    4.6014    0.5522   25.7263 C   0  0  0  0  0  0  0  0  0  0  0  0
    4.1119    1.5796   25.2728 O   0  0  0  0  0  0  0  0  0  0  0  0
    5.4619   -0.4139   24.8143 C   0  0  0  0  0  0  0  0  0  0  0  0
    6.1446    0.1679   23.5993 N   0  0  0  0  0  0  0  0  0  0  0  0
    7.1637    1.1098   23.5296 C   0  0  0  0  0  0  0  0  0  0  0  0
    8.1823    1.5359   24.6295 C   0  0  0  0  0  0  0  0  0  0  0  0
    9.6041    1.0319   24.4827 C   0  0  0  0  0  0  0  0  0  0  0  0
    9.3084    2.4807   24.2508 C   0  0  0  0  0  0  0  0  0  0  0  0
    7.3206    1.5715   22.3019 N   0  0  0  0  0  0  0  0  0  0  0  0
    6.6060    0.7380   21.5077 C   0  0  0  0  0  0  0  0  0  0  0  0
    6.4424    0.7541   20.1110 C   0  0  0  0  0  0  0  0  0  0  0  0
    5.8076   -0.3119   19.4818 C   0  0  0  0  0  0  0  0  0  0  0  0
    5.3224   -1.3643   20.2445 C   0  0  0  0  0  0  0  0  0  0  0  0
    5.3992   -1.3432   21.6444 C   0  0  0  0  0  0  0  0  0  0  0  0
    6.0189   -0.2638   22.2723 C   0  0  0  0  0  0  0  0  0  0  0  0
    3.7174   -0.7426   29.1075 H   0  0  0  0  0  0  0  0  0  0  0  0
    3.5940    0.5229   28.5119 H   0  0  0  0  0  0  0  0  0  0  0  0
    4.6038   -1.2171   28.1136 H   0  0  0  0  0  0  0  0  0  0  0  0
    2.9518   -2.0447   27.2871 H   0  0  0  0  0  0  0  0  0  0  0  0
    2.6494   -0.7831   26.2532 H   0  0  0  0  0  0  0  0  0  0  0  0
    0.7094   -0.1280   27.0564 H   0  0  0  0  0  0  0  0  0  0  0  0
    1.5210    0.8858   28.2384 H   0  0  0  0  0  0  0  0  0  0  0  0
   -1.2780   -1.2069   27.9590 H   0  0  0  0  0  0  0  0  0  0  0  0
   -2.1999   -1.6575   30.5089 H   0  0  0  0  0  0  0  0  0  0  0  0
    0.0025   -1.1489   32.0701 H   0  0  0  0  0  0  0  0  0  0  0  0
    4.8297   -1.2373   24.4745 H   0  0  0  0  0  0  0  0  0  0  0  0
    6.2816   -0.8252   25.4143 H   0  0  0  0  0  0  0  0  0  0  0  0
    7.7720    1.6393   25.6271 H   0  0  0  0  0  0  0  0  0  0  0  0
   10.1425    0.7620   25.3831 H   0  0  0  0  0  0  0  0  0  0  0  0
    9.8597    0.4307   23.6171 H   0  0  0  0  0  0  0  0  0  0  0  0
    9.3538    2.8542   23.2339 H   0  0  0  0  0  0  0  0  0  0  0  0
    9.6345    3.1961   24.9960 H   0  0  0  0  0  0  0  0  0  0  0  0
    6.8099    1.5960   19.5380 H   0  0  0  0  0  0  0  0  0  0  0  0
    5.6694   -0.3017   18.4046 H   0  0  0  0  0  0  0  0  0  0  0  0
    4.7944   -2.1811   19.7581 H   0  0  0  0  0  0  0  0  0  0  0  0
    4.8666   -2.0759   22.2253 H   0  0  0  0  0  0  0  0  0  0  0  0
  1  2  1  0
  2  3  1  0
  3  4  1  0
  4  5  1  0
  5  6  1  0
  6  7  2  0
  7  8  1  0
  8  9  2  0
  2 10  1  0
 10 11  2  0
 10 12  1  0
 12 13  1  0
 13 14  1  0
 14 15  1  0
 15 16  1  0
 16 17  1  0
 14 18  2  0
 18 19  1  0
 19 20  2  0
 20 21  1  0
 21 22  2  0
 22 23  1  0
 23 24  2  0
  9  5  1  0
 24 13  1  0
 17 15  1  0
 24 19  1  0
  1 25  1  0
  1 26  1  0
  1 27  1  0
  3 28  1  0
  3 29  1  0
  4 30  1  0
  4 31  1  0
  6 32  1  0
  7 33  1  0
  8 34  1  0
 12 35  1  0
 12 36  1  0
 15 37  1  0
 16 38  1  0
 16 39  1  0
 17 40  1  0
 17 41  1  0
 20 42  1  0
 21 43  1  0
 22 44  1  0
 23 45  1  0
M  END
>  <Energy>  (147) 
628.42593844753162

>  <compound_id>  (147) 
10936

>  <target_id>  (147) 
1

>  <reference_id>  (147) 
55

>  <inspiration_ids>  (147) 
[55, 7]

>  <energy_score>  (147) 
564.6100589440687

>  <distance_score>  (147) 
12.737580890983244

>  <path>  (147) 
/opt/xchem-fragalysis-2/maxwin/BulkDock/SCRATCH/511013/C10936-P55/C10936-P55.minimised.mol

>  <scratch_subdir>  (147) 
/opt/xchem-fragalysis-2/maxwin/BulkDock/SCRATCH/511013/C10936-P55

>  <fragmenstein_runtime>  (147) 
12.599218606948853

>  <fragmenstein_outcome>  (147) 
too moved

>  <fragmenstein_mode>  (147) 
expansion

>  <fragmenstein_error>  (147) 


$$$$
C10936-P7
     RDKit          3D

 45 48  0  0  0  0  0  0  0  0999 V2000
    2.0071   -0.9462   27.5758 C   0  0  0  0  0  0  0  0  0  0  0  0
    3.1963    0.4893   27.7104 N   0  0  0  0  0  0  0  0  0  0  0  0
    2.1814   -0.3888   28.3061 C   0  0  0  0  0  0  0  0  0  0  0  0
    1.3684   -0.5004   29.9484 C   0  0  0  0  0  0  0  0  0  0  0  0
   -0.0843   -0.4985   30.1205 N   0  0  0  0  0  0  0  0  0  0  0  0
   -0.8116   -1.4256   30.8415 C   0  0  0  0  0  0  0  0  0  0  0  0
   -2.0421   -0.8648   31.0967 C   0  0  0  0  0  0  0  0  0  0  0  0
   -1.9820    0.3934   30.4776 C   0  0  0  0  0  0  0  0  0  0  0  0
   -0.8026    0.6196   29.8865 N   0  0  0  0  0  0  0  0  0  0  0  0
    3.8158    0.6480   26.4185 C   0  0  0  0  0  0  0  0  0  0  0  0
    3.3472    1.3890   25.5625 O   0  0  0  0  0  0  0  0  0  0  0  0
    5.1814   -0.0778   26.1954 C   0  0  0  0  0  0  0  0  0  0  0  0
    5.8380   -0.1174   24.8444 N   0  0  0  0  0  0  0  0  0  0  0  0
    6.0747    0.8803   23.9060 C   0  0  0  0  0  0  0  0  0  0  0  0
    6.0947    2.4313   24.0970 C   0  0  0  0  0  0  0  0  0  0  0  0
    7.4290    3.1287   23.8963 C   0  0  0  0  0  0  0  0  0  0  0  0
    6.3363    3.3152   22.8903 C   0  0  0  0  0  0  0  0  0  0  0  0
    6.4886    0.3787   22.7537 N   0  0  0  0  0  0  0  0  0  0  0  0
    6.8255   -0.9030   23.0315 C   0  0  0  0  0  0  0  0  0  0  0  0
    7.4216   -1.8462   22.1900 C   0  0  0  0  0  0  0  0  0  0  0  0
    7.9835   -2.9924   22.7627 C   0  0  0  0  0  0  0  0  0  0  0  0
    7.8388   -3.2404   24.1248 C   0  0  0  0  0  0  0  0  0  0  0  0
    7.1006   -2.3746   24.9490 C   0  0  0  0  0  0  0  0  0  0  0  0
    6.5961   -1.2000   24.3720 C   0  0  0  0  0  0  0  0  0  0  0  0
    2.3718   -2.0865   27.7890 H   0  0  0  0  0  0  0  0  0  0  0  0
    0.8882   -0.7877   27.1490 H   0  0  0  0  0  0  0  0  0  0  0  0
    2.3317   -1.1655   26.4804 H   0  0  0  0  0  0  0  0  0  0  0  0
    1.6024    0.6521   28.4051 H   0  0  0  0  0  0  0  0  0  0  0  0
    3.0848   -0.6129   29.0506 H   0  0  0  0  0  0  0  0  0  0  0  0
    1.7645    0.3247   30.5572 H   0  0  0  0  0  0  0  0  0  0  0  0
    1.7234   -1.4493   30.3758 H   0  0  0  0  0  0  0  0  0  0  0  0
   -0.3786   -2.3706   31.1377 H   0  0  0  0  0  0  0  0  0  0  0  0
   -2.8599   -1.3003   31.6515 H   0  0  0  0  0  0  0  0  0  0  0  0
   -2.7436    1.1615   30.4338 H   0  0  0  0  0  0  0  0  0  0  0  0
    5.0432   -1.1232   26.4917 H   0  0  0  0  0  0  0  0  0  0  0  0
    5.9254    0.3878   26.8513 H   0  0  0  0  0  0  0  0  0  0  0  0
    5.4234    2.8159   24.8552 H   0  0  0  0  0  0  0  0  0  0  0  0
    7.6657    3.9555   24.5542 H   0  0  0  0  0  0  0  0  0  0  0  0
    8.2837    2.5289   23.6038 H   0  0  0  0  0  0  0  0  0  0  0  0
    6.4231    2.8305   21.9250 H   0  0  0  0  0  0  0  0  0  0  0  0
    5.8164    4.2648   22.8617 H   0  0  0  0  0  0  0  0  0  0  0  0
    7.5129   -1.6205   21.1366 H   0  0  0  0  0  0  0  0  0  0  0  0
    8.5386   -3.6966   22.1472 H   0  0  0  0  0  0  0  0  0  0  0  0
    8.2767   -4.1393   24.5540 H   0  0  0  0  0  0  0  0  0  0  0  0
    6.9610   -2.5983   26.0005 H   0  0  0  0  0  0  0  0  0  0  0  0
  1  2  1  0
  2  3  1  0
  3  4  1  0
  4  5  1  0
  5  6  1  0
  6  7  2  0
  7  8  1  0
  8  9  2  0
  2 10  1  0
 10 11  2  0
 10 12  1  0
 12 13  1  0
 13 14  1  0
 14 15  1  0
 15 16  1  0
 16 17  1  0
 14 18  2  0
 18 19  1  0
 19 20  2  0
 20 21  1  0
 21 22  2  0
 22 23  1  0
 23 24  2  0
  9  5  1  0
 24 13  1  0
 17 15  1  0
 24 19  1  0
  1 25  1  0
  1 26  1  0
  1 27  1  0
  3 28  1  0
  3 29  1  0
  4 30  1  0
  4 31  1  0
  6 32  1  0
  7 33  1  0
  8 34  1  0
 12 35  1  0
 12 36  1  0
 15 37  1  0
 16 38  1  0
 16 39  1  0
 17 40  1  0
 17 41  1  0
 20 42  1  0
 21 43  1  0
 22 44  1  0
 23 45  1  0
M  END
>  <Energy>  (148) 
631.36286489306781

>  <compound_id>  (148) 
10936

>  <target_id>  (148) 
1

>  <reference_id>  (148) 
7

>  <inspiration_ids>  (148) 
[55, 7]

>  <energy_score>  (148) 
567.5469853896063

>  <distance_score>  (148) 
12.540328142313026

>  <path>  (148) 
/opt/xchem-fragalysis-2/maxwin/BulkDock/SCRATCH/511013/C10936-P7/C10936-P7.minimised.mol

>  <scratch_subdir>  (148) 
/opt/xchem-fragalysis-2/maxwin/BulkDock/SCRATCH/511013/C10936-P7

>  <fragmenstein_runtime>  (148) 
10.96243691444397

>  <fragmenstein_outcome>  (148) 
too moved

>  <fragmenstein_mode>  (148) 
expansion

>  <fragmenstein_error>  (148) 


$$$$
C10937-P55
     RDKit          3D

 35 37  0  0  0  0  0  0  0  0999 V2000
    0.6740    1.0467   30.2840 O   0  0  0  0  0  0  0  0  0  0  0  0
    0.3790   -0.1015   30.1003 C   0  0  0  0  0  0  0  0  0  0  0  0
   -0.5730   -0.9811   30.8289 N   0  0  0  0  0  0  0  0  0  0  0  0
   -1.3895   -0.7346   32.0887 C   0  0  0  0  0  0  0  0  0  0  0  0
   -2.9279   -1.1136   32.2126 C   0  0  0  0  0  0  0  0  0  0  0  0
   -3.2280   -2.6009   32.3689 C   0  0  0  0  0  0  0  0  0  0  0  0
   -4.5493   -2.8627   32.5857 F   0  0  0  0  0  0  0  0  0  0  0  0
   -2.5502   -3.1211   33.4256 F   0  0  0  0  0  0  0  0  0  0  0  0
   -3.6606   -0.4274   33.2966 N   0  0  0  0  0  0  0  0  0  0  0  0
   -3.5336   -0.6090   34.6513 C   0  0  0  0  0  0  0  0  0  0  0  0
   -4.6406   -0.0352   35.2349 C   0  0  0  0  0  0  0  0  0  0  0  0
   -5.3680    0.4950   34.1604 C   0  0  0  0  0  0  0  0  0  0  0  0
   -4.7597    0.3011   32.9878 N   0  0  0  0  0  0  0  0  0  0  0  0
    1.2453   -0.7538   28.9653 C   0  0  0  0  0  0  0  0  0  0  0  0
    1.2930   -2.1398   28.7682 C   0  0  0  0  0  0  0  0  0  0  0  0
    0.5200   -2.9465   29.5177 F   0  0  0  0  0  0  0  0  0  0  0  0
    2.1177   -2.7632   27.8213 C   0  0  0  0  0  0  0  0  0  0  0  0
    2.9660   -2.0523   26.9782 C   0  0  0  0  0  0  0  0  0  0  0  0
    2.9272   -0.6770   27.1252 C   0  0  0  0  0  0  0  0  0  0  0  0
    3.5449    0.3006   26.3775 N   0  0  0  0  0  0  0  0  0  0  0  0
    3.1795    1.4996   26.9041 C   0  0  0  0  0  0  0  0  0  0  0  0
    2.3498    1.3505   27.9124 N   0  0  0  0  0  0  0  0  0  0  0  0
    2.1224   -0.0099   28.0724 C   0  0  0  0  0  0  0  0  0  0  0  0
   -0.5111   -1.9225   30.4526 H   0  0  0  0  0  0  0  0  0  0  0  0
   -1.2895    0.3413   32.2780 H   0  0  0  0  0  0  0  0  0  0  0  0
   -0.8357   -1.2398   32.8886 H   0  0  0  0  0  0  0  0  0  0  0  0
   -3.3871   -0.7547   31.2952 H   0  0  0  0  0  0  0  0  0  0  0  0
   -2.9078   -3.1490   31.4822 H   0  0  0  0  0  0  0  0  0  0  0  0
   -2.7088   -1.1656   35.0759 H   0  0  0  0  0  0  0  0  0  0  0  0
   -4.8877   -0.0177   36.2865 H   0  0  0  0  0  0  0  0  0  0  0  0
   -6.3136    1.0163   34.1800 H   0  0  0  0  0  0  0  0  0  0  0  0
    2.0358   -3.8378   27.7285 H   0  0  0  0  0  0  0  0  0  0  0  0
    3.5326   -2.5347   26.1911 H   0  0  0  0  0  0  0  0  0  0  0  0
    4.0475    0.1521   25.5094 H   0  0  0  0  0  0  0  0  0  0  0  0
    3.5079    2.4504   26.5081 H   0  0  0  0  0  0  0  0  0  0  0  0
  1  2  2  0
  2  3  1  0
  3  4  1  0
  4  5  1  0
  5  6  1  0
  6  7  1  0
  6  8  1  0
  5  9  1  0
  9 10  1  0
 10 11  2  0
 11 12  1  0
 12 13  2  0
  2 14  1  0
 14 15  2  0
 15 16  1  0
 15 17  1  0
 17 18  2  0
 18 19  1  0
 19 20  1  0
 20 21  1  0
 21 22  2  0
 22 23  1  0
 13  9  1  0
 23 14  1  0
 23 19  2  0
  3 24  1  0
  4 25  1  0
  4 26  1  0
  5 27  1  0
  6 28  1  0
 10 29  1  0
 11 30  1  0
 12 31  1  0
 17 32  1  0
 18 33  1  0
 20 34  1  0
 21 35  1  0
M  END
>  <Energy>  (149) 
42.128588969260818

>  <compound_id>  (149) 
10937

>  <target_id>  (149) 
1

>  <reference_id>  (149) 
55

>  <inspiration_ids>  (149) 
[55, 7]

>  <energy_score>  (149) 
6.55340327275357

>  <distance_score>  (149) 
12.75195801057612

>  <path>  (149) 
/opt/xchem-fragalysis-2/maxwin/BulkDock/SCRATCH/511013/C10937-P55/C10937-P55.minimised.mol

>  <scratch_subdir>  (149) 
/opt/xchem-fragalysis-2/maxwin/BulkDock/SCRATCH/511013/C10937-P55

>  <fragmenstein_runtime>  (149) 
8.539546012878418

>  <fragmenstein_outcome>  (149) 
too moved

>  <fragmenstein_mode>  (149) 
expansion

>  <fragmenstein_error>  (149) 


$$$$
C10937-P7
     RDKit          3D

 35 37  0  0  0  0  0  0  0  0999 V2000
    0.9591   -5.2223   23.0390 O   0  0  0  0  0  0  0  0  0  0  0  0
    1.6148   -4.3439   22.5087 C   0  0  0  0  0  0  0  0  0  0  0  0
    2.5789   -3.1752   23.2799 N   0  0  0  0  0  0  0  0  0  0  0  0
    3.0293   -2.9496   25.0556 C   0  0  0  0  0  0  0  0  0  0  0  0
    2.2535   -2.3028   26.6719 C   0  0  0  0  0  0  0  0  0  0  0  0
    3.1696   -2.2929   27.9093 C   0  0  0  0  0  0  0  0  0  0  0  0
    2.8822   -3.2368   28.8500 F   0  0  0  0  0  0  0  0  0  0  0  0
    4.4744   -2.4361   27.5729 F   0  0  0  0  0  0  0  0  0  0  0  0
    0.9347   -2.3991   27.3941 N   0  0  0  0  0  0  0  0  0  0  0  0
    0.2281   -1.2975   27.9101 C   0  0  0  0  0  0  0  0  0  0  0  0
   -0.7333   -1.7711   28.7710 C   0  0  0  0  0  0  0  0  0  0  0  0
   -0.5092   -3.1525   28.7961 C   0  0  0  0  0  0  0  0  0  0  0  0
    0.4956   -3.5428   28.0031 N   0  0  0  0  0  0  0  0  0  0  0  0
    1.5524   -4.5325   20.7808 C   0  0  0  0  0  0  0  0  0  0  0  0
    0.9344   -5.7377   20.3604 C   0  0  0  0  0  0  0  0  0  0  0  0
    0.9286   -6.8257   21.1545 F   0  0  0  0  0  0  0  0  0  0  0  0
    0.3155   -5.9891   19.1047 C   0  0  0  0  0  0  0  0  0  0  0  0
    0.4607   -5.1046   18.0703 C   0  0  0  0  0  0  0  0  0  0  0  0
    1.6766   -4.5173   18.2833 C   0  0  0  0  0  0  0  0  0  0  0  0
    2.6538   -4.2938   17.3445 N   0  0  0  0  0  0  0  0  0  0  0  0
    3.7318   -4.8111   17.9762 C   0  0  0  0  0  0  0  0  0  0  0  0
    3.6674   -4.5319   19.2593 N   0  0  0  0  0  0  0  0  0  0  0  0
    2.3076   -4.4597   19.5599 C   0  0  0  0  0  0  0  0  0  0  0  0
    2.9158   -2.5611   22.6266 H   0  0  0  0  0  0  0  0  0  0  0  0
    3.6790   -2.0763   24.8723 H   0  0  0  0  0  0  0  0  0  0  0  0
    3.7763   -3.6947   25.2458 H   0  0  0  0  0  0  0  0  0  0  0  0
    2.2630   -1.2434   26.3726 H   0  0  0  0  0  0  0  0  0  0  0  0
    3.0964   -1.3278   28.4245 H   0  0  0  0  0  0  0  0  0  0  0  0
    0.4822   -0.2954   27.5978 H   0  0  0  0  0  0  0  0  0  0  0  0
   -1.4689   -1.2001   29.3167 H   0  0  0  0  0  0  0  0  0  0  0  0
   -1.0306   -3.9051   29.3668 H   0  0  0  0  0  0  0  0  0  0  0  0
   -0.2667   -6.8993   18.9868 H   0  0  0  0  0  0  0  0  0  0  0  0
    0.0236   -5.2696   17.0946 H   0  0  0  0  0  0  0  0  0  0  0  0
    2.5015   -4.3545   16.3496 H   0  0  0  0  0  0  0  0  0  0  0  0
    4.5220   -5.3304   17.4524 H   0  0  0  0  0  0  0  0  0  0  0  0
  1  2  2  0
  2  3  1  0
  3  4  1  0
  4  5  1  0
  5  6  1  0
  6  7  1  0
  6  8  1  0
  5  9  1  0
  9 10  1  0
 10 11  2  0
 11 12  1  0
 12 13  2  0
  2 14  1  0
 14 15  2  0
 15 16  1  0
 15 17  1  0
 17 18  2  0
 18 19  1  0
 19 20  1  0
 20 21  1  0
 21 22  2  0
 22 23  1  0
 13  9  1  0
 23 14  1  0
 23 19  2  0
  3 24  1  0
  4 25  1  0
  4 26  1  0
  5 27  1  0
  6 28  1  0
 10 29  1  0
 11 30  1  0
 12 31  1  0
 17 32  1  0
 18 33  1  0
 20 34  1  0
 21 35  1  0
M  END
>  <Energy>  (150) 
290.25528943875776

>  <compound_id>  (150) 
10937

>  <target_id>  (150) 
1

>  <reference_id>  (150) 
7

>  <inspiration_ids>  (150) 
[55, 7]

>  <energy_score>  (150) 
254.68010374225165

>  <distance_score>  (150) 
14.104584660132355

>  <path>  (150) 
/opt/xchem-fragalysis-2/maxwin/BulkDock/SCRATCH/511013/C10937-P7/C10937-P7.minimised.mol

>  <scratch_subdir>  (150) 
/opt/xchem-fragalysis-2/maxwin/BulkDock/SCRATCH/511013/C10937-P7

>  <fragmenstein_runtime>  (150) 
9.805938720703125

>  <fragmenstein_outcome>  (150) 
too moved

>  <fragmenstein_mode>  (150) 
expansion

>  <fragmenstein_error>  (150) 


$$$$
C10938-P55
     RDKit          3D

 39 42  0  0  0  0  0  0  0  0999 V2000
    3.7010    0.9164   27.8492 O   0  0  0  0  0  0  0  0  0  0  0  0
    3.3446   -0.0280   27.1946 C   0  0  0  0  0  0  0  0  0  0  0  0
    2.1627   -0.9218   27.7067 C   0  0  0  0  0  0  0  0  0  0  0  0
    1.0845   -0.3233   28.5433 N   0  0  0  0  0  0  0  0  0  0  0  0
    1.0187   -0.3234   29.9246 C   0  0  0  0  0  0  0  0  0  0  0  0
   -0.2748   -0.0068   30.2787 C   0  0  0  0  0  0  0  0  0  0  0  0
   -0.9419    0.1430   29.0544 C   0  0  0  0  0  0  0  0  0  0  0  0
   -0.1398   -0.0588   28.0017 N   0  0  0  0  0  0  0  0  0  0  0  0
    3.9096   -0.6093   25.9444 N   0  0  0  0  0  0  0  0  0  0  0  0
    5.0950   -0.2773   25.2046 C   0  0  0  0  0  0  0  0  0  0  0  0
    5.3375   -0.9875   24.0087 C   0  0  0  0  0  0  0  0  0  0  0  0
    6.5127   -0.8480   23.2286 C   0  0  0  0  0  0  0  0  0  0  0  0
    7.4661    0.0597   23.6904 C   0  0  0  0  0  0  0  0  0  0  0  0
    8.7307    0.4034   23.2680 N   0  0  0  0  0  0  0  0  0  0  0  0
    9.2149    1.4039   24.0700 C   0  0  0  0  0  0  0  0  0  0  0  0
   10.6150    2.1237   23.9785 C   0  0  0  0  0  0  0  0  0  0  0  0
   10.6568    3.3762   23.0703 C   0  0  0  0  0  0  0  0  0  0  0  0
   12.0873    2.9643   22.6641 C   0  0  0  0  0  0  0  0  0  0  0  0
   11.7122    1.5263   23.0686 C   0  0  0  0  0  0  0  0  0  0  0  0
    8.3412    1.6775   25.0200 N   0  0  0  0  0  0  0  0  0  0  0  0
    7.2596    0.8349   24.8255 C   0  0  0  0  0  0  0  0  0  0  0  0
    6.0656    0.6619   25.5916 C   0  0  0  0  0  0  0  0  0  0  0  0
    2.6072   -1.7131   28.3232 H   0  0  0  0  0  0  0  0  0  0  0  0
    1.6554   -1.4080   26.8775 H   0  0  0  0  0  0  0  0  0  0  0  0
    1.8938   -0.5515   30.5168 H   0  0  0  0  0  0  0  0  0  0  0  0
   -0.6739    0.0895   31.2775 H   0  0  0  0  0  0  0  0  0  0  0  0
   -1.9819    0.3846   28.8790 H   0  0  0  0  0  0  0  0  0  0  0  0
    3.3014   -1.3599   25.6190 H   0  0  0  0  0  0  0  0  0  0  0  0
    4.5815   -1.6867   23.6552 H   0  0  0  0  0  0  0  0  0  0  0  0
    6.6493   -1.4321   22.3264 H   0  0  0  0  0  0  0  0  0  0  0  0
    9.2471   -0.0598   22.5406 H   0  0  0  0  0  0  0  0  0  0  0  0
   10.9969    2.3345   24.9875 H   0  0  0  0  0  0  0  0  0  0  0  0
    9.9328    3.3683   22.2540 H   0  0  0  0  0  0  0  0  0  0  0  0
   10.5804    4.3354   23.5905 H   0  0  0  0  0  0  0  0  0  0  0  0
   12.3502    3.1125   21.6146 H   0  0  0  0  0  0  0  0  0  0  0  0
   12.8666    3.4079   23.2941 H   0  0  0  0  0  0  0  0  0  0  0  0
   11.3544    0.9351   22.2319 H   0  0  0  0  0  0  0  0  0  0  0  0
   12.4977    0.9667   23.5837 H   0  0  0  0  0  0  0  0  0  0  0  0
    5.9404    1.2562   26.4913 H   0  0  0  0  0  0  0  0  0  0  0  0
  1  2  2  0
  2  3  1  0
  3  4  1  0
  4  5  1  0
  5  6  2  0
  6  7  1  0
  7  8  2  0
  2  9  1  0
  9 10  1  0
 10 11  2  0
 11 12  1  0
 12 13  2  0
 13 14  1  0
 14 15  1  0
 15 16  1  0
 16 17  1  0
 17 18  1  0
 18 19  1  0
 15 20  2  0
 20 21  1  0
 21 22  2  0
  8  4  1  0
 22 10  1  0
 21 13  1  0
 19 16  1  0
  3 23  1  0
  3 24  1  0
  5 25  1  0
  6 26  1  0
  7 27  1  0
  9 28  1  0
 11 29  1  0
 12 30  1  0
 14 31  1  0
 16 32  1  0
 17 33  1  0
 17 34  1  0
 18 35  1  0
 18 36  1  0
 19 37  1  0
 19 38  1  0
 22 39  1  0
M  END
>  <Energy>  (151) 
40.657604031880815

>  <compound_id>  (151) 
10938

>  <target_id>  (151) 
1

>  <reference_id>  (151) 
55

>  <inspiration_ids>  (151) 
[55, 7]

>  <energy_score>  (151) 
-11.170503823011643

>  <distance_score>  (151) 
12.444401691579122

>  <path>  (151) 
/opt/xchem-fragalysis-2/maxwin/BulkDock/SCRATCH/511013/C10938-P55/C10938-P55.minimised.mol

>  <scratch_subdir>  (151) 
/opt/xchem-fragalysis-2/maxwin/BulkDock/SCRATCH/511013/C10938-P55

>  <fragmenstein_runtime>  (151) 
9.779597997665405

>  <fragmenstein_outcome>  (151) 
too moved

>  <fragmenstein_mode>  (151) 
expansion

>  <fragmenstein_error>  (151) 


$$$$
C10938-P7
     RDKit          3D

 39 42  0  0  0  0  0  0  0  0999 V2000
   -1.1781   -1.9056   22.4449 O   0  0  0  0  0  0  0  0  0  0  0  0
   -0.9904   -2.8280   23.1521 C   0  0  0  0  0  0  0  0  0  0  0  0
   -2.6544   -3.0738   24.4165 C   0  0  0  0  0  0  0  0  0  0  0  0
   -3.3481   -2.2766   26.0715 N   0  0  0  0  0  0  0  0  0  0  0  0
   -2.6334   -1.3319   27.0938 C   0  0  0  0  0  0  0  0  0  0  0  0
   -3.1287   -1.4886   28.3698 C   0  0  0  0  0  0  0  0  0  0  0  0
   -4.2545   -2.2998   28.2344 C   0  0  0  0  0  0  0  0  0  0  0  0
   -4.5411   -2.6592   26.9505 N   0  0  0  0  0  0  0  0  0  0  0  0
    0.6110   -3.9466   22.8575 N   0  0  0  0  0  0  0  0  0  0  0  0
    1.8103   -3.9265   21.5984 C   0  0  0  0  0  0  0  0  0  0  0  0
    1.4516   -4.2574   20.2902 C   0  0  0  0  0  0  0  0  0  0  0  0
    2.1043   -3.9714   19.0322 C   0  0  0  0  0  0  0  0  0  0  0  0
    3.1905   -3.1243   19.0974 C   0  0  0  0  0  0  0  0  0  0  0  0
    3.6744   -2.1727   18.2439 N   0  0  0  0  0  0  0  0  0  0  0  0
    4.6171   -1.4228   18.9124 C   0  0  0  0  0  0  0  0  0  0  0  0
    5.2802   -0.1716   18.2396 C   0  0  0  0  0  0  0  0  0  0  0  0
    6.5816    0.3633   18.8383 C   0  0  0  0  0  0  0  0  0  0  0  0
    5.7890    1.4648   19.5442 C   0  0  0  0  0  0  0  0  0  0  0  0
    4.6388    1.1899   18.5665 C   0  0  0  0  0  0  0  0  0  0  0  0
    4.8765   -1.9503   20.0978 N   0  0  0  0  0  0  0  0  0  0  0  0
    3.8638   -2.9101   20.2761 C   0  0  0  0  0  0  0  0  0  0  0  0
    3.2233   -3.4440   21.4805 C   0  0  0  0  0  0  0  0  0  0  0  0
   -2.8261   -4.0900   24.6317 H   0  0  0  0  0  0  0  0  0  0  0  0
   -3.4600   -2.6666   23.8473 H   0  0  0  0  0  0  0  0  0  0  0  0
   -1.7971   -0.7240   26.7745 H   0  0  0  0  0  0  0  0  0  0  0  0
   -2.7489   -1.0236   29.2671 H   0  0  0  0  0  0  0  0  0  0  0  0
   -4.9553   -2.6006   29.0013 H   0  0  0  0  0  0  0  0  0  0  0  0
    0.5823   -4.7252   23.4673 H   0  0  0  0  0  0  0  0  0  0  0  0
    0.4517   -4.5457   20.1205 H   0  0  0  0  0  0  0  0  0  0  0  0
    1.5403   -4.1224   18.1162 H   0  0  0  0  0  0  0  0  0  0  0  0
    3.2917   -1.9609   17.3359 H   0  0  0  0  0  0  0  0  0  0  0  0
    5.3607   -0.3354   17.1569 H   0  0  0  0  0  0  0  0  0  0  0  0
    7.2362    0.7343   18.0435 H   0  0  0  0  0  0  0  0  0  0  0  0
    7.1334   -0.2992   19.5082 H   0  0  0  0  0  0  0  0  0  0  0  0
    6.2080    2.4709   19.4891 H   0  0  0  0  0  0  0  0  0  0  0  0
    5.5447    1.2321   20.5865 H   0  0  0  0  0  0  0  0  0  0  0  0
    3.6418    1.1670   19.0166 H   0  0  0  0  0  0  0  0  0  0  0  0
    4.6177    1.8763   17.7115 H   0  0  0  0  0  0  0  0  0  0  0  0
    3.6083   -2.9219   22.3688 H   0  0  0  0  0  0  0  0  0  0  0  0
  1  2  2  0
  2  3  1  0
  3  4  1  0
  4  5  1  0
  5  6  2  0
  6  7  1  0
  7  8  2  0
  2  9  1  0
  9 10  1  0
 10 11  2  0
 11 12  1  0
 12 13  2  0
 13 14  1  0
 14 15  1  0
 15 16  1  0
 16 17  1  0
 17 18  1  0
 18 19  1  0
 15 20  2  0
 20 21  1  0
 21 22  2  0
  8  4  1  0
 22 10  1  0
 21 13  1  0
 19 16  1  0
  3 23  1  0
  3 24  1  0
  5 25  1  0
  6 26  1  0
  7 27  1  0
  9 28  1  0
 11 29  1  0
 12 30  1  0
 14 31  1  0
 16 32  1  0
 17 33  1  0
 17 34  1  0
 18 35  1  0
 18 36  1  0
 19 37  1  0
 19 38  1  0
 22 39  1  0
M  END
>  <Energy>  (152) 
475.36659930744122

>  <compound_id>  (152) 
10938

>  <target_id>  (152) 
1

>  <reference_id>  (152) 
7

>  <inspiration_ids>  (152) 
[55, 7]

>  <energy_score>  (152) 
423.538491452549

>  <distance_score>  (152) 
12.34174195222143

>  <path>  (152) 
/opt/xchem-fragalysis-2/maxwin/BulkDock/SCRATCH/511013/C10938-P7/C10938-P7.minimised.mol

>  <scratch_subdir>  (152) 
/opt/xchem-fragalysis-2/maxwin/BulkDock/SCRATCH/511013/C10938-P7

>  <fragmenstein_runtime>  (152) 
12.656030178070068

>  <fragmenstein_outcome>  (152) 
too moved

>  <fragmenstein_mode>  (152) 
expansion

>  <fragmenstein_error>  (152) 


$$$$
C10942-P55
     RDKit          3D

 38 40  0  0  0  0  0  0  0  0999 V2000
   -1.8277   -9.4430   19.4583 C   0  0  0  0  0  0  0  0  0  0  0  0
   -1.3491  -10.0190   20.7586 C   0  0  0  0  0  0  0  0  0  0  0  0
   -2.0966   -9.8730   21.9542 C   0  0  0  0  0  0  0  0  0  0  0  0
   -1.8556  -10.5842   23.1734 C   0  0  0  0  0  0  0  0  0  0  0  0
   -2.7291  -10.2392   24.2799 N   0  0  0  0  0  0  0  0  0  0  0  0
   -2.7428  -10.7059   25.7080 C   0  0  0  0  0  0  0  0  0  0  0  0
   -2.0783  -11.5444   26.2648 O   0  0  0  0  0  0  0  0  0  0  0  0
   -3.8543   -9.7263   26.5868 C   0  0  0  0  0  0  0  0  0  0  0  0
   -3.2271   -8.4916   26.7087 F   0  0  0  0  0  0  0  0  0  0  0  0
   -4.9245   -9.4787   25.7611 F   0  0  0  0  0  0  0  0  0  0  0  0
   -4.4637   -9.9293   28.0319 C   0  0  0  0  0  0  0  0  0  0  0  0
   -5.3981   -8.7085   28.4126 C   0  0  0  0  0  0  0  0  0  0  0  0
   -5.8822   -8.5173   29.7777 N   0  0  0  0  0  0  0  0  0  0  0  0
   -5.2083   -7.9115   30.8105 C   0  0  0  0  0  0  0  0  0  0  0  0
   -6.1310   -7.6712   31.8047 C   0  0  0  0  0  0  0  0  0  0  0  0
   -7.3451   -8.1337   31.2733 C   0  0  0  0  0  0  0  0  0  0  0  0
   -7.2055   -8.6209   30.0349 N   0  0  0  0  0  0  0  0  0  0  0  0
   -0.7636  -11.4670   23.0454 C   0  0  0  0  0  0  0  0  0  0  0  0
   -0.1598  -12.3559   23.9027 N   0  0  0  0  0  0  0  0  0  0  0  0
    0.9523  -12.8842   23.3010 C   0  0  0  0  0  0  0  0  0  0  0  0
    1.0924  -12.4622   22.0708 N   0  0  0  0  0  0  0  0  0  0  0  0
    0.0534  -11.5743   21.8950 C   0  0  0  0  0  0  0  0  0  0  0  0
   -0.2184  -10.8277   20.7467 C   0  0  0  0  0  0  0  0  0  0  0  0
   -1.0268   -8.8841   18.9646 H   0  0  0  0  0  0  0  0  0  0  0  0
   -2.1492  -10.2526   18.7939 H   0  0  0  0  0  0  0  0  0  0  0  0
   -2.6877   -8.7818   19.6020 H   0  0  0  0  0  0  0  0  0  0  0  0
   -2.9551   -9.1998   21.9242 H   0  0  0  0  0  0  0  0  0  0  0  0
   -3.3750   -9.4485   24.1768 H   0  0  0  0  0  0  0  0  0  0  0  0
   -5.0415  -10.8583   28.0650 H   0  0  0  0  0  0  0  0  0  0  0  0
   -3.6476  -10.0077   28.7578 H   0  0  0  0  0  0  0  0  0  0  0  0
   -4.8749   -7.7759   28.1722 H   0  0  0  0  0  0  0  0  0  0  0  0
   -6.2830   -8.7385   27.7639 H   0  0  0  0  0  0  0  0  0  0  0  0
   -4.1496   -7.7035   30.7508 H   0  0  0  0  0  0  0  0  0  0  0  0
   -5.9577   -7.2200   32.7719 H   0  0  0  0  0  0  0  0  0  0  0  0
   -8.3266   -8.1259   31.7313 H   0  0  0  0  0  0  0  0  0  0  0  0
   -0.4714  -12.5465   24.8451 H   0  0  0  0  0  0  0  0  0  0  0  0
    1.6026  -13.5827   23.8083 H   0  0  0  0  0  0  0  0  0  0  0  0
    0.3995  -10.9523   19.8653 H   0  0  0  0  0  0  0  0  0  0  0  0
  1  2  1  0
  2  3  2  0
  3  4  1  0
  4  5  1  0
  5  6  1  0
  6  7  2  0
  6  8  1  0
  8  9  1  0
  8 10  1  0
  8 11  1  0
 11 12  1  0
 12 13  1  0
 13 14  1  0
 14 15  2  0
 15 16  1  0
 16 17  2  0
  4 18  2  0
 18 19  1  0
 19 20  1  0
 20 21  2  0
 21 22  1  0
 22 23  2  0
 23  2  1  0
 17 13  1  0
 22 18  1  0
  1 24  1  0
  1 25  1  0
  1 26  1  0
  3 27  1  0
  5 28  1  0
 11 29  1  0
 11 30  1  0
 12 31  1  0
 12 32  1  0
 14 33  1  0
 15 34  1  0
 16 35  1  0
 19 36  1  0
 20 37  1  0
 23 38  1  0
M  END
>  <Energy>  (153) 
67.820208386039212

>  <compound_id>  (153) 
10942

>  <target_id>  (153) 
1

>  <reference_id>  (153) 
55

>  <inspiration_ids>  (153) 
[55, 7]

>  <energy_score>  (153) 
-17.573946211152304

>  <distance_score>  (153) 
15.860985258158053

>  <path>  (153) 
/opt/xchem-fragalysis-2/maxwin/BulkDock/SCRATCH/511013/C10942-P55/C10942-P55.minimised.mol

>  <scratch_subdir>  (153) 
/opt/xchem-fragalysis-2/maxwin/BulkDock/SCRATCH/511013/C10942-P55

>  <fragmenstein_runtime>  (153) 
7.634196043014526

>  <fragmenstein_outcome>  (153) 
too moved

>  <fragmenstein_mode>  (153) 
expansion

>  <fragmenstein_error>  (153) 


$$$$
C10942-P7
     RDKit          3D

 38 40  0  0  0  0  0  0  0  0999 V2000
    0.9571  -12.1352   21.4278 C   0  0  0  0  0  0  0  0  0  0  0  0
    0.4047  -10.9192   20.7337 C   0  0  0  0  0  0  0  0  0  0  0  0
   -0.9341  -10.5177   20.9921 C   0  0  0  0  0  0  0  0  0  0  0  0
   -1.6083   -9.4915   20.3038 C   0  0  0  0  0  0  0  0  0  0  0  0
   -2.9451   -9.0351   20.7729 N   0  0  0  0  0  0  0  0  0  0  0  0
   -3.7798   -9.4639   21.9835 C   0  0  0  0  0  0  0  0  0  0  0  0
   -3.5853  -10.3349   22.8027 O   0  0  0  0  0  0  0  0  0  0  0  0
   -5.2452   -8.5608   22.1927 C   0  0  0  0  0  0  0  0  0  0  0  0
   -6.2458   -9.2282   21.5314 F   0  0  0  0  0  0  0  0  0  0  0  0
   -5.1188   -7.3682   21.5204 F   0  0  0  0  0  0  0  0  0  0  0  0
   -5.8194   -8.2278   23.6835 C   0  0  0  0  0  0  0  0  0  0  0  0
   -7.3171   -7.9164   24.0020 C   0  0  0  0  0  0  0  0  0  0  0  0
   -7.6039   -7.2652   25.3044 N   0  0  0  0  0  0  0  0  0  0  0  0
   -8.5587   -6.3001   25.5484 C   0  0  0  0  0  0  0  0  0  0  0  0
   -8.5224   -6.0194   26.8963 C   0  0  0  0  0  0  0  0  0  0  0  0
   -7.5211   -6.8663   27.3963 C   0  0  0  0  0  0  0  0  0  0  0  0
   -6.9468   -7.6074   26.4393 N   0  0  0  0  0  0  0  0  0  0  0  0
   -0.7789   -8.9528   19.2271 C   0  0  0  0  0  0  0  0  0  0  0  0
   -0.9778   -8.0665   18.1715 N   0  0  0  0  0  0  0  0  0  0  0  0
    0.2280   -7.7118   17.6206 C   0  0  0  0  0  0  0  0  0  0  0  0
    1.2011   -8.4349   18.1064 N   0  0  0  0  0  0  0  0  0  0  0  0
    0.5976   -9.2301   19.0583 C   0  0  0  0  0  0  0  0  0  0  0  0
    1.2014  -10.2308   19.8146 C   0  0  0  0  0  0  0  0  0  0  0  0
    2.0430  -12.0634   21.5492 H   0  0  0  0  0  0  0  0  0  0  0  0
    0.7319  -13.0286   20.8365 H   0  0  0  0  0  0  0  0  0  0  0  0
    0.5185  -12.2571   22.4235 H   0  0  0  0  0  0  0  0  0  0  0  0
   -1.4652  -11.0490   21.7820 H   0  0  0  0  0  0  0  0  0  0  0  0
   -3.3641   -8.2149   20.3518 H   0  0  0  0  0  0  0  0  0  0  0  0
   -5.4951   -9.0249   24.3606 H   0  0  0  0  0  0  0  0  0  0  0  0
   -5.3449   -7.2839   23.9420 H   0  0  0  0  0  0  0  0  0  0  0  0
   -7.9041   -8.8410   23.9949 H   0  0  0  0  0  0  0  0  0  0  0  0
   -7.7155   -7.2459   23.2323 H   0  0  0  0  0  0  0  0  0  0  0  0
   -9.1778   -5.9144   24.7503 H   0  0  0  0  0  0  0  0  0  0  0  0
   -9.1432   -5.3176   27.4344 H   0  0  0  0  0  0  0  0  0  0  0  0
   -7.1797   -6.9811   28.4169 H   0  0  0  0  0  0  0  0  0  0  0  0
   -1.8591   -7.6428   17.9302 H   0  0  0  0  0  0  0  0  0  0  0  0
    0.3169   -6.9430   16.8646 H   0  0  0  0  0  0  0  0  0  0  0  0
    2.2421  -10.4853   19.6524 H   0  0  0  0  0  0  0  0  0  0  0  0
  1  2  1  0
  2  3  2  0
  3  4  1  0
  4  5  1  0
  5  6  1  0
  6  7  2  0
  6  8  1  0
  8  9  1  0
  8 10  1  0
  8 11  1  0
 11 12  1  0
 12 13  1  0
 13 14  1  0
 14 15  2  0
 15 16  1  0
 16 17  2  0
  4 18  2  0
 18 19  1  0
 19 20  1  0
 20 21  2  0
 21 22  1  0
 22 23  2  0
 23  2  1  0
 17 13  1  0
 22 18  1  0
  1 24  1  0
  1 25  1  0
  1 26  1  0
  3 27  1  0
  5 28  1  0
 11 29  1  0
 11 30  1  0
 12 31  1  0
 12 32  1  0
 14 33  1  0
 15 34  1  0
 16 35  1  0
 19 36  1  0
 20 37  1  0
 23 38  1  0
M  END
>  <Energy>  (154) 
85.240930150716267

>  <compound_id>  (154) 
10942

>  <target_id>  (154) 
1

>  <reference_id>  (154) 
7

>  <inspiration_ids>  (154) 
[55, 7]

>  <energy_score>  (154) 
-0.15322444647551947

>  <distance_score>  (154) 
15.233539115272794

>  <path>  (154) 
/opt/xchem-fragalysis-2/maxwin/BulkDock/SCRATCH/511013/C10942-P7/C10942-P7.minimised.mol

>  <scratch_subdir>  (154) 
/opt/xchem-fragalysis-2/maxwin/BulkDock/SCRATCH/511013/C10942-P7

>  <fragmenstein_runtime>  (154) 
8.738916635513306

>  <fragmenstein_outcome>  (154) 
too moved

>  <fragmenstein_mode>  (154) 
expansion

>  <fragmenstein_error>  (154) 


$$$$
C10944-P55
     RDKit          3D

 38 40  0  0  0  0  0  0  0  0999 V2000
   -3.4167  -10.4919   21.5229 C   0  0  0  0  0  0  0  0  0  0  0  0
   -4.1838   -9.2068   21.4214 C   0  0  0  0  0  0  0  0  0  0  0  0
   -5.3015   -8.9743   22.2560 C   0  0  0  0  0  0  0  0  0  0  0  0
   -6.1153   -7.7960   22.2754 C   0  0  0  0  0  0  0  0  0  0  0  0
   -7.1762   -7.8076   23.2953 N   0  0  0  0  0  0  0  0  0  0  0  0
   -8.0839   -6.7190   23.7823 C   0  0  0  0  0  0  0  0  0  0  0  0
   -8.2210   -5.5844   23.4008 O   0  0  0  0  0  0  0  0  0  0  0  0
   -9.0851   -7.2621   24.9418 C   0  0  0  0  0  0  0  0  0  0  0  0
   -9.4085   -6.7890   26.4621 C   0  0  0  0  0  0  0  0  0  0  0  0
   -8.4740   -7.3709   27.5318 C   0  0  0  0  0  0  0  0  0  0  0  0
   -7.2081   -6.8973   27.3946 F   0  0  0  0  0  0  0  0  0  0  0  0
   -8.9109   -7.1083   28.7927 F   0  0  0  0  0  0  0  0  0  0  0  0
   -9.8436   -5.4384   26.8333 N   0  0  0  0  0  0  0  0  0  0  0  0
  -11.1454   -5.0696   27.1203 C   0  0  0  0  0  0  0  0  0  0  0  0
  -11.0889   -3.8948   27.8362 C   0  0  0  0  0  0  0  0  0  0  0  0
   -9.7199   -3.6146   27.9364 C   0  0  0  0  0  0  0  0  0  0  0  0
   -8.9674   -4.5462   27.3436 N   0  0  0  0  0  0  0  0  0  0  0  0
   -5.6755   -6.8595   21.2931 C   0  0  0  0  0  0  0  0  0  0  0  0
   -6.1047   -5.6111   20.8935 N   0  0  0  0  0  0  0  0  0  0  0  0
   -5.2958   -5.1446   19.8916 C   0  0  0  0  0  0  0  0  0  0  0  0
   -4.3582   -6.0015   19.5821 N   0  0  0  0  0  0  0  0  0  0  0  0
   -4.5816   -7.0706   20.4202 C   0  0  0  0  0  0  0  0  0  0  0  0
   -3.8469   -8.2632   20.4637 C   0  0  0  0  0  0  0  0  0  0  0  0
   -3.8975  -11.2643   20.9151 H   0  0  0  0  0  0  0  0  0  0  0  0
   -3.3693  -10.8340   22.5621 H   0  0  0  0  0  0  0  0  0  0  0  0
   -2.3854  -10.3619   21.1779 H   0  0  0  0  0  0  0  0  0  0  0  0
   -5.5460   -9.7729   22.9586 H   0  0  0  0  0  0  0  0  0  0  0  0
   -7.2659   -8.6114   23.9012 H   0  0  0  0  0  0  0  0  0  0  0  0
   -8.9097   -8.3441   25.0143 H   0  0  0  0  0  0  0  0  0  0  0  0
  -10.0579   -7.1842   24.4292 H   0  0  0  0  0  0  0  0  0  0  0  0
  -10.3342   -7.3592   26.6531 H   0  0  0  0  0  0  0  0  0  0  0  0
   -8.4166   -8.4591   27.4316 H   0  0  0  0  0  0  0  0  0  0  0  0
  -11.9832   -5.6839   26.8209 H   0  0  0  0  0  0  0  0  0  0  0  0
  -11.9174   -3.3271   28.2342 H   0  0  0  0  0  0  0  0  0  0  0  0
   -9.2344   -2.7798   28.4260 H   0  0  0  0  0  0  0  0  0  0  0  0
   -6.8911   -5.1200   21.2973 H   0  0  0  0  0  0  0  0  0  0  0  0
   -5.4533   -4.1800   19.4290 H   0  0  0  0  0  0  0  0  0  0  0  0
   -3.0360   -8.4331   19.7656 H   0  0  0  0  0  0  0  0  0  0  0  0
  1  2  1  0
  2  3  2  0
  3  4  1  0
  4  5  1  0
  5  6  1  0
  6  7  2  0
  6  8  1  0
  8  9  1  0
  9 10  1  0
 10 11  1  0
 10 12  1  0
  9 13  1  0
 13 14  1  0
 14 15  2  0
 15 16  1  0
 16 17  2  0
  4 18  2  0
 18 19  1  0
 19 20  1  0
 20 21  2  0
 21 22  1  0
 22 23  2  0
 23  2  1  0
 17 13  1  0
 22 18  1  0
  1 24  1  0
  1 25  1  0
  1 26  1  0
  3 27  1  0
  5 28  1  0
  8 29  1  0
  8 30  1  0
  9 31  1  0
 10 32  1  0
 14 33  1  0
 15 34  1  0
 16 35  1  0
 19 36  1  0
 20 37  1  0
 23 38  1  0
M  END
>  <Energy>  (155) 
25.204881362716048

>  <compound_id>  (155) 
10944

>  <target_id>  (155) 
1

>  <reference_id>  (155) 
55

>  <inspiration_ids>  (155) 
[55, 7]

>  <energy_score>  (155) 
14.06635211164712

>  <distance_score>  (155) 
15.883272496986908

>  <path>  (155) 
/opt/xchem-fragalysis-2/maxwin/BulkDock/SCRATCH/511013/C10944-P55/C10944-P55.minimised.mol

>  <scratch_subdir>  (155) 
/opt/xchem-fragalysis-2/maxwin/BulkDock/SCRATCH/511013/C10944-P55

>  <fragmenstein_runtime>  (155) 
13.169215440750122

>  <fragmenstein_outcome>  (155) 
too moved

>  <fragmenstein_mode>  (155) 
expansion

>  <fragmenstein_error>  (155) 


$$$$
C10944-P7
     RDKit          3D

 38 40  0  0  0  0  0  0  0  0999 V2000
    3.1036   -1.1163   17.6398 C   0  0  0  0  0  0  0  0  0  0  0  0
    1.7626   -0.6957   18.1359 C   0  0  0  0  0  0  0  0  0  0  0  0
    0.9897   -1.1822   19.5181 C   0  0  0  0  0  0  0  0  0  0  0  0
   -0.3175   -1.4761   20.9756 C   0  0  0  0  0  0  0  0  0  0  0  0
   -1.8975   -1.0118   22.2695 N   0  0  0  0  0  0  0  0  0  0  0  0
   -2.6606   -1.9292   23.6686 C   0  0  0  0  0  0  0  0  0  0  0  0
   -2.4209   -3.0597   23.9840 O   0  0  0  0  0  0  0  0  0  0  0  0
   -3.8834   -1.0647   25.1286 C   0  0  0  0  0  0  0  0  0  0  0  0
   -5.5793    0.2222   25.2172 C   0  0  0  0  0  0  0  0  0  0  0  0
   -7.3906   -0.6072   25.5001 C   0  0  0  0  0  0  0  0  0  0  0  0
   -8.3280    0.2609   24.9913 F   0  0  0  0  0  0  0  0  0  0  0  0
   -7.9085   -0.8818   26.7509 F   0  0  0  0  0  0  0  0  0  0  0  0
   -5.3734    1.6904   25.9158 N   0  0  0  0  0  0  0  0  0  0  0  0
   -4.2369    2.2414   26.4491 C   0  0  0  0  0  0  0  0  0  0  0  0
   -4.6517    3.3088   27.2201 C   0  0  0  0  0  0  0  0  0  0  0  0
   -6.0438    3.3659   27.0503 C   0  0  0  0  0  0  0  0  0  0  0  0
   -6.4868    2.4140   26.2293 N   0  0  0  0  0  0  0  0  0  0  0  0
   -0.4613   -0.9124   19.0457 C   0  0  0  0  0  0  0  0  0  0  0  0
   -1.3134   -1.5197   17.9259 N   0  0  0  0  0  0  0  0  0  0  0  0
   -1.9076   -0.5091   17.2274 C   0  0  0  0  0  0  0  0  0  0  0  0
   -1.2480    0.6066   17.3670 N   0  0  0  0  0  0  0  0  0  0  0  0
   -0.1531    0.1841   18.0504 C   0  0  0  0  0  0  0  0  0  0  0  0
    1.1328    0.3380   17.5764 C   0  0  0  0  0  0  0  0  0  0  0  0
    3.9106   -0.7416   18.2699 H   0  0  0  0  0  0  0  0  0  0  0  0
    3.2809   -0.7099   16.6359 H   0  0  0  0  0  0  0  0  0  0  0  0
    3.1619   -2.1991   17.5221 H   0  0  0  0  0  0  0  0  0  0  0  0
    1.8763   -0.5040   19.9105 H   0  0  0  0  0  0  0  0  0  0  0  0
   -2.3521   -0.0999   22.1670 H   0  0  0  0  0  0  0  0  0  0  0  0
   -4.0615   -1.9090   25.8192 H   0  0  0  0  0  0  0  0  0  0  0  0
   -3.1684   -0.4872   25.7892 H   0  0  0  0  0  0  0  0  0  0  0  0
   -6.0773    0.7627   24.4051 H   0  0  0  0  0  0  0  0  0  0  0  0
   -7.4329   -1.5767   24.9947 H   0  0  0  0  0  0  0  0  0  0  0  0
   -3.2601    1.8116   26.2967 H   0  0  0  0  0  0  0  0  0  0  0  0
   -4.0289    3.9582   27.8181 H   0  0  0  0  0  0  0  0  0  0  0  0
   -6.7519    4.0651   27.4755 H   0  0  0  0  0  0  0  0  0  0  0  0
   -1.6281   -2.4757   17.9842 H   0  0  0  0  0  0  0  0  0  0  0  0
   -2.7916   -0.6632   16.6238 H   0  0  0  0  0  0  0  0  0  0  0  0
    1.4232    0.9231   16.7230 H   0  0  0  0  0  0  0  0  0  0  0  0
  1  2  1  0
  2  3  2  0
  3  4  1  0
  4  5  1  0
  5  6  1  0
  6  7  2  0
  6  8  1  0
  8  9  1  0
  9 10  1  0
 10 11  1  0
 10 12  1  0
  9 13  1  0
 13 14  1  0
 14 15  2  0
 15 16  1  0
 16 17  2  0
  4 18  2  0
 18 19  1  0
 19 20  1  0
 20 21  2  0
 21 22  1  0
 22 23  2  0
 23  2  1  0
 17 13  1  0
 22 18  1  0
  1 24  1  0
  1 25  1  0
  1 26  1  0
  3 27  1  0
  5 28  1  0
  8 29  1  0
  8 30  1  0
  9 31  1  0
 10 32  1  0
 14 33  1  0
 15 34  1  0
 16 35  1  0
 19 36  1  0
 20 37  1  0
 23 38  1  0
M  END
>  <Energy>  (156) 
1046.5157848681151

>  <compound_id>  (156) 
10944

>  <target_id>  (156) 
1

>  <reference_id>  (156) 
7

>  <inspiration_ids>  (156) 
[55, 7]

>  <energy_score>  (156) 
1035.3772556170509

>  <distance_score>  (156) 
13.446835249432684

>  <path>  (156) 
/opt/xchem-fragalysis-2/maxwin/BulkDock/SCRATCH/511013/C10944-P7/C10944-P7.minimised.mol

>  <scratch_subdir>  (156) 
/opt/xchem-fragalysis-2/maxwin/BulkDock/SCRATCH/511013/C10944-P7

>  <fragmenstein_runtime>  (156) 
12.867357969284058

>  <fragmenstein_outcome>  (156) 
too moved

>  <fragmenstein_mode>  (156) 
expansion

>  <fragmenstein_error>  (156) 


$$$$
C10964-P55
     RDKit          3D

 46 48  0  0  0  0  0  0  0  0999 V2000
   -1.2733   -1.3398   29.9989 C   0  0  0  0  0  0  0  0  0  0  0  0
   -0.3112   -1.9970   29.1625 O   0  0  0  0  0  0  0  0  0  0  0  0
    0.7500   -1.1228   28.6456 C   0  0  0  0  0  0  0  0  0  0  0  0
    1.8575   -1.9605   27.8427 C   0  0  0  0  0  0  0  0  0  0  0  0
    3.1572   -1.4515   27.1083 N   0  0  0  0  0  0  0  0  0  0  0  0
    3.7557   -2.5605   26.3530 C   0  0  0  0  0  0  0  0  0  0  0  0
    4.7392   -2.4302   24.9369 C   0  0  0  0  0  0  0  0  0  0  0  0
    4.7263   -1.7396   23.4142 C   0  0  0  0  0  0  0  0  0  0  0  0
    5.4848   -0.8947   21.7633 N   0  0  0  0  0  0  0  0  0  0  0  0
    6.8945   -1.4112   20.6006 C   0  0  0  0  0  0  0  0  0  0  0  0
    7.6645   -2.3198   20.6826 O   0  0  0  0  0  0  0  0  0  0  0  0
    6.8022   -0.1570   19.2642 N   0  0  0  0  0  0  0  0  0  0  0  0
    7.7060    0.1088   18.0220 N   0  0  0  0  0  0  0  0  0  0  0  0
    7.6095    1.5068   17.7336 C   0  0  0  0  0  0  0  0  0  0  0  0
    8.5958    1.9904   17.0276 N   0  0  0  0  0  0  0  0  0  0  0  0
    9.1171    0.8910   16.4641 C   0  0  0  0  0  0  0  0  0  0  0  0
   10.2510    0.7976   15.6459 C   0  0  0  0  0  0  0  0  0  0  0  0
   10.5494   -0.4328   15.0973 C   0  0  0  0  0  0  0  0  0  0  0  0
    9.6016   -1.4377   15.1836 C   0  0  0  0  0  0  0  0  0  0  0  0
    8.3672   -1.2660   15.8292 C   0  0  0  0  0  0  0  0  0  0  0  0
    8.2925   -0.2208   16.7507 C   0  0  0  0  0  0  0  0  0  0  0  0
    4.2396   -0.5076   24.8640 C   0  0  0  0  0  0  0  0  0  0  0  0
    3.0393   -0.6256   25.9424 C   0  0  0  0  0  0  0  0  0  0  0  0
   -0.7772   -0.9282   30.8820 H   0  0  0  0  0  0  0  0  0  0  0  0
   -1.7700   -0.5441   29.4370 H   0  0  0  0  0  0  0  0  0  0  0  0
   -2.0158   -2.0771   30.3135 H   0  0  0  0  0  0  0  0  0  0  0  0
    0.2958   -0.3886   27.9727 H   0  0  0  0  0  0  0  0  0  0  0  0
    1.2299   -0.6109   29.4860 H   0  0  0  0  0  0  0  0  0  0  0  0
    1.2898   -2.5824   27.1545 H   0  0  0  0  0  0  0  0  0  0  0  0
    2.2459   -2.6744   28.5835 H   0  0  0  0  0  0  0  0  0  0  0  0
    2.9406   -3.1923   26.0180 H   0  0  0  0  0  0  0  0  0  0  0  0
    4.3358   -3.0736   27.1154 H   0  0  0  0  0  0  0  0  0  0  0  0
    5.7170   -2.1196   25.3437 H   0  0  0  0  0  0  0  0  0  0  0  0
    4.5158   -3.4520   24.7117 H   0  0  0  0  0  0  0  0  0  0  0  0
    5.7246   -2.1170   23.4536 H   0  0  0  0  0  0  0  0  0  0  0  0
    5.0601   -0.0273   21.4652 H   0  0  0  0  0  0  0  0  0  0  0  0
    6.0570    0.3941   19.3947 H   0  0  0  0  0  0  0  0  0  0  0  0
    6.8833    2.1329   18.1990 H   0  0  0  0  0  0  0  0  0  0  0  0
   10.8855    1.6615   15.4848 H   0  0  0  0  0  0  0  0  0  0  0  0
   11.4490   -0.5810   14.5080 H   0  0  0  0  0  0  0  0  0  0  0  0
    9.7953   -2.3827   14.6798 H   0  0  0  0  0  0  0  0  0  0  0  0
    7.6164   -2.0349   15.7188 H   0  0  0  0  0  0  0  0  0  0  0  0
    3.9294    0.4259   24.4883 H   0  0  0  0  0  0  0  0  0  0  0  0
    5.0773   -0.2714   25.5309 H   0  0  0  0  0  0  0  0  0  0  0  0
    2.3462   -1.1450   25.3431 H   0  0  0  0  0  0  0  0  0  0  0  0
    2.7485    0.3801   26.2632 H   0  0  0  0  0  0  0  0  0  0  0  0
  1  2  1  0
  2  3  1  0
  3  4  1  0
  4  5  1  0
  5  6  1  0
  6  7  1  0
  7  8  1  0
  8  9  1  0
  9 10  1  0
 10 11  2  0
 10 12  1  0
 12 13  1  0
 13 14  1  0
 14 15  2  0
 15 16  1  0
 16 17  2  0
 17 18  1  0
 18 19  2  0
 19 20  1  0
 20 21  2  0
  8 22  1  0
 22 23  1  0
 23  5  1  0
 21 13  1  0
 21 16  1  0
  1 24  1  0
  1 25  1  0
  1 26  1  0
  3 27  1  0
  3 28  1  0
  4 29  1  0
  4 30  1  0
  6 31  1  0
  6 32  1  0
  7 33  1  0
  7 34  1  0
  8 35  1  0
  9 36  1  0
 12 37  1  0
 14 38  1  0
 17 39  1  0
 18 40  1  0
 19 41  1  0
 20 42  1  0
 22 43  1  0
 22 44  1  0
 23 45  1  0
 23 46  1  0
M  END
>  <Energy>  (157) 
503.57182344541076

>  <compound_id>  (157) 
10964

>  <target_id>  (157) 
1

>  <reference_id>  (157) 
55

>  <inspiration_ids>  (157) 
[55, 7]

>  <energy_score>  (157) 
495.42891021357457

>  <distance_score>  (157) 
13.591017474705295

>  <path>  (157) 
/opt/xchem-fragalysis-2/maxwin/BulkDock/SCRATCH/511013/C10964-P55/C10964-P55.minimised.mol

>  <scratch_subdir>  (157) 
/opt/xchem-fragalysis-2/maxwin/BulkDock/SCRATCH/511013/C10964-P55

>  <fragmenstein_runtime>  (157) 
8.172518491744995

>  <fragmenstein_outcome>  (157) 
too moved

>  <fragmenstein_mode>  (157) 
expansion

>  <fragmenstein_error>  (157) 


$$$$
C10964-P7
     RDKit          3D

 46 48  0  0  0  0  0  0  0  0999 V2000
   -9.5442   -1.4286   36.0196 C   0  0  0  0  0  0  0  0  0  0  0  0
   -8.1516   -1.6708   35.8432 O   0  0  0  0  0  0  0  0  0  0  0  0
   -7.5889   -1.0516   34.6559 C   0  0  0  0  0  0  0  0  0  0  0  0
   -6.0445   -1.2367   34.6730 C   0  0  0  0  0  0  0  0  0  0  0  0
   -5.1448   -0.9924   33.5300 N   0  0  0  0  0  0  0  0  0  0  0  0
   -5.0954   -1.9926   32.4812 C   0  0  0  0  0  0  0  0  0  0  0  0
   -3.7241   -2.0013   31.7464 C   0  0  0  0  0  0  0  0  0  0  0  0
   -2.9341   -0.6784   31.8483 C   0  0  0  0  0  0  0  0  0  0  0  0
   -1.8091   -0.6130   30.8452 N   0  0  0  0  0  0  0  0  0  0  0  0
   -0.5183   -1.4460   30.7289 C   0  0  0  0  0  0  0  0  0  0  0  0
   -0.1013   -2.2647   31.4544 O   0  0  0  0  0  0  0  0  0  0  0  0
    0.0306   -0.9612   29.3910 N   0  0  0  0  0  0  0  0  0  0  0  0
    1.0966   -1.4136   28.6417 N   0  0  0  0  0  0  0  0  0  0  0  0
    1.3280   -2.7527   28.4893 C   0  0  0  0  0  0  0  0  0  0  0  0
    2.2758   -3.0067   27.6230 N   0  0  0  0  0  0  0  0  0  0  0  0
    2.7152   -1.7838   27.1994 C   0  0  0  0  0  0  0  0  0  0  0  0
    3.6987   -1.5102   26.2391 C   0  0  0  0  0  0  0  0  0  0  0  0
    4.0247   -0.1902   25.9745 C   0  0  0  0  0  0  0  0  0  0  0  0
    3.3800    0.8431   26.6520 C   0  0  0  0  0  0  0  0  0  0  0  0
    2.3618    0.5918   27.5959 C   0  0  0  0  0  0  0  0  0  0  0  0
    2.0229   -0.7448   27.8505 C   0  0  0  0  0  0  0  0  0  0  0  0
   -3.9522    0.4838   31.8665 C   0  0  0  0  0  0  0  0  0  0  0  0
   -4.9892    0.3690   33.0402 C   0  0  0  0  0  0  0  0  0  0  0  0
   -9.8431   -1.8266   36.9929 H   0  0  0  0  0  0  0  0  0  0  0  0
  -10.1170   -1.9455   35.2480 H   0  0  0  0  0  0  0  0  0  0  0  0
   -9.7521   -0.3550   36.0095 H   0  0  0  0  0  0  0  0  0  0  0  0
   -8.0164   -1.5257   33.7731 H   0  0  0  0  0  0  0  0  0  0  0  0
   -7.8300    0.0168   34.6467 H   0  0  0  0  0  0  0  0  0  0  0  0
   -5.6664   -0.6465   35.5191 H   0  0  0  0  0  0  0  0  0  0  0  0
   -5.8413   -2.2647   34.9743 H   0  0  0  0  0  0  0  0  0  0  0  0
   -5.2332   -2.9976   32.8919 H   0  0  0  0  0  0  0  0  0  0  0  0
   -5.9057   -1.8274   31.7604 H   0  0  0  0  0  0  0  0  0  0  0  0
   -3.1003   -2.8078   32.1535 H   0  0  0  0  0  0  0  0  0  0  0  0
   -3.8989   -2.2528   30.6926 H   0  0  0  0  0  0  0  0  0  0  0  0
   -2.4145   -0.6841   32.8160 H   0  0  0  0  0  0  0  0  0  0  0  0
   -1.9201   -0.0571   30.0183 H   0  0  0  0  0  0  0  0  0  0  0  0
   -0.6086   -0.3084   28.9873 H   0  0  0  0  0  0  0  0  0  0  0  0
    0.7666   -3.4999   29.0330 H   0  0  0  0  0  0  0  0  0  0  0  0
    4.1712   -2.3186   25.6967 H   0  0  0  0  0  0  0  0  0  0  0  0
    4.7606   -0.0018   25.2053 H   0  0  0  0  0  0  0  0  0  0  0  0
    3.6448    1.8736   26.4331 H   0  0  0  0  0  0  0  0  0  0  0  0
    1.8629    1.4083   28.1055 H   0  0  0  0  0  0  0  0  0  0  0  0
   -3.4268    1.4431   31.9395 H   0  0  0  0  0  0  0  0  0  0  0  0
   -4.4931    0.4946   30.9112 H   0  0  0  0  0  0  0  0  0  0  0  0
   -5.9486    0.7750   32.7004 H   0  0  0  0  0  0  0  0  0  0  0  0
   -4.6396    1.0041   33.8627 H   0  0  0  0  0  0  0  0  0  0  0  0
  1  2  1  0
  2  3  1  0
  3  4  1  0
  4  5  1  0
  5  6  1  0
  6  7  1  0
  7  8  1  0
  8  9  1  0
  9 10  1  0
 10 11  2  0
 10 12  1  0
 12 13  1  0
 13 14  1  0
 14 15  2  0
 15 16  1  0
 16 17  2  0
 17 18  1  0
 18 19  2  0
 19 20  1  0
 20 21  2  0
  8 22  1  0
 22 23  1  0
 23  5  1  0
 21 13  1  0
 21 16  1  0
  1 24  1  0
  1 25  1  0
  1 26  1  0
  3 27  1  0
  3 28  1  0
  4 29  1  0
  4 30  1  0
  6 31  1  0
  6 32  1  0
  7 33  1  0
  7 34  1  0
  8 35  1  0
  9 36  1  0
 12 37  1  0
 14 38  1  0
 17 39  1  0
 18 40  1  0
 19 41  1  0
 20 42  1  0
 22 43  1  0
 22 44  1  0
 23 45  1  0
 23 46  1  0
M  END
>  <Energy>  (158) 
6.5623983610571592

>  <compound_id>  (158) 
10964

>  <target_id>  (158) 
1

>  <reference_id>  (158) 
7

>  <inspiration_ids>  (158) 
[55, 7]

>  <energy_score>  (158) 
-1.5805148707702017

>  <distance_score>  (158) 
12.527903374556125

>  <path>  (158) 
/opt/xchem-fragalysis-2/maxwin/BulkDock/SCRATCH/511013/C10964-P7/C10964-P7.minimised.mol

>  <scratch_subdir>  (158) 
/opt/xchem-fragalysis-2/maxwin/BulkDock/SCRATCH/511013/C10964-P7

>  <fragmenstein_runtime>  (158) 
16.320799112319946

>  <fragmenstein_outcome>  (158) 
too moved

>  <fragmenstein_mode>  (158) 
expansion

>  <fragmenstein_error>  (158) 


$$$$
C10977-P55
     RDKit          3D

 47 49  0  0  0  0  0  0  0  0999 V2000
   -4.5998   -2.4845   33.0657 C   0  0  0  0  0  0  0  0  0  0  0  0
   -3.7893   -2.8765   31.9518 O   0  0  0  0  0  0  0  0  0  0  0  0
   -2.7128   -1.9420   31.6643 C   0  0  0  0  0  0  0  0  0  0  0  0
   -1.8898   -2.3266   30.3567 C   0  0  0  0  0  0  0  0  0  0  0  0
   -0.8604   -1.3851   29.7634 N   0  0  0  0  0  0  0  0  0  0  0  0
    0.1963   -1.9566   28.8778 N   0  0  0  0  0  0  0  0  0  0  0  0
    1.0042   -1.1524   28.1727 C   0  0  0  0  0  0  0  0  0  0  0  0
    2.3090   -1.7725   27.2260 C   0  0  0  0  0  0  0  0  0  0  0  0
    2.5807   -2.9051   27.5369 O   0  0  0  0  0  0  0  0  0  0  0  0
    2.9417   -0.8555   26.1886 N   0  0  0  0  0  0  0  0  0  0  0  0
    4.2024   -1.0533   25.2768 C   0  0  0  0  0  0  0  0  0  0  0  0
    4.4671   -1.4986   23.5440 C   0  0  0  0  0  0  0  0  0  0  0  0
    4.8074   -0.3327   21.8736 C   0  0  0  0  0  0  0  0  0  0  0  0
    5.4987    1.1155   21.0746 N   0  0  0  0  0  0  0  0  0  0  0  0
    4.7288    2.3225   21.0898 C   0  0  0  0  0  0  0  0  0  0  0  0
    5.1388    3.2637   20.2819 N   0  0  0  0  0  0  0  0  0  0  0  0
    5.9349    2.6159   19.4057 C   0  0  0  0  0  0  0  0  0  0  0  0
    6.3826    3.1022   18.1572 C   0  0  0  0  0  0  0  0  0  0  0  0
    7.0632    2.2646   17.2815 C   0  0  0  0  0  0  0  0  0  0  0  0
    7.2714    0.9474   17.6367 C   0  0  0  0  0  0  0  0  0  0  0  0
    6.8784    0.4807   18.9090 C   0  0  0  0  0  0  0  0  0  0  0  0
    6.2035    1.3038   19.8262 C   0  0  0  0  0  0  0  0  0  0  0  0
    0.8258    0.3182   28.2601 C   0  0  0  0  0  0  0  0  0  0  0  0
   -0.1813    0.8122   28.9905 C   0  0  0  0  0  0  0  0  0  0  0  0
   -1.1307   -0.0257   29.7472 C   0  0  0  0  0  0  0  0  0  0  0  0
   -2.0607    0.5335   30.3192 O   0  0  0  0  0  0  0  0  0  0  0  0
   -5.3254   -3.2772   33.2569 H   0  0  0  0  0  0  0  0  0  0  0  0
   -5.1325   -1.5584   32.8334 H   0  0  0  0  0  0  0  0  0  0  0  0
   -3.9779   -2.3520   33.9557 H   0  0  0  0  0  0  0  0  0  0  0  0
   -2.0244   -1.9239   32.5166 H   0  0  0  0  0  0  0  0  0  0  0  0
   -3.1652   -0.9551   31.5725 H   0  0  0  0  0  0  0  0  0  0  0  0
   -1.3868   -3.2841   30.5324 H   0  0  0  0  0  0  0  0  0  0  0  0
   -2.5932   -2.4790   29.5413 H   0  0  0  0  0  0  0  0  0  0  0  0
    2.5216    0.0505   26.2486 H   0  0  0  0  0  0  0  0  0  0  0  0
    4.7432   -1.8385   25.8083 H   0  0  0  0  0  0  0  0  0  0  0  0
    4.7333   -0.1221   25.4545 H   0  0  0  0  0  0  0  0  0  0  0  0
    5.3998   -2.0422   23.6539 H   0  0  0  0  0  0  0  0  0  0  0  0
    3.6774   -2.2401   23.3829 H   0  0  0  0  0  0  0  0  0  0  0  0
    5.7632   -0.8187   21.6569 H   0  0  0  0  0  0  0  0  0  0  0  0
    4.5258    0.5817   22.3640 H   0  0  0  0  0  0  0  0  0  0  0  0
    3.8291    2.3884   21.6877 H   0  0  0  0  0  0  0  0  0  0  0  0
    6.1549    4.1264   17.8807 H   0  0  0  0  0  0  0  0  0  0  0  0
    7.4161    2.6525   16.3311 H   0  0  0  0  0  0  0  0  0  0  0  0
    7.7950    0.2874   16.9500 H   0  0  0  0  0  0  0  0  0  0  0  0
    7.1680   -0.5100   19.2199 H   0  0  0  0  0  0  0  0  0  0  0  0
    1.5162    0.9741   27.7538 H   0  0  0  0  0  0  0  0  0  0  0  0
   -0.3458    1.8808   29.0678 H   0  0  0  0  0  0  0  0  0  0  0  0
  1  2  1  0
  2  3  1  0
  3  4  1  0
  4  5  1  0
  5  6  1  0
  6  7  2  0
  7  8  1  0
  8  9  2  0
  8 10  1  0
 10 11  1  0
 11 12  1  0
 12 13  1  0
 13 14  1  0
 14 15  1  0
 15 16  2  0
 16 17  1  0
 17 18  2  0
 18 19  1  0
 19 20  2  0
 20 21  1  0
 21 22  2  0
  7 23  1  0
 23 24  2  0
 24 25  1  0
 25 26  2  0
 25  5  1  0
 22 14  1  0
 22 17  1  0
  1 27  1  0
  1 28  1  0
  1 29  1  0
  3 30  1  0
  3 31  1  0
  4 32  1  0
  4 33  1  0
 10 34  1  0
 11 35  1  0
 11 36  1  0
 12 37  1  0
 12 38  1  0
 13 39  1  0
 13 40  1  0
 15 41  1  0
 18 42  1  0
 19 43  1  0
 20 44  1  0
 21 45  1  0
 23 46  1  0
 24 47  1  0
M  END
>  <Energy>  (159) 
372.50543031740693

>  <compound_id>  (159) 
10977

>  <target_id>  (159) 
1

>  <reference_id>  (159) 
55

>  <inspiration_ids>  (159) 
[55, 7]

>  <energy_score>  (159) 
244.82437293632805

>  <distance_score>  (159) 
11.335394399586388

>  <path>  (159) 
/opt/xchem-fragalysis-2/maxwin/BulkDock/SCRATCH/511013/C10977-P55/C10977-P55.minimised.mol

>  <scratch_subdir>  (159) 
/opt/xchem-fragalysis-2/maxwin/BulkDock/SCRATCH/511013/C10977-P55

>  <fragmenstein_runtime>  (159) 
10.01719617843628

>  <fragmenstein_outcome>  (159) 
too moved

>  <fragmenstein_mode>  (159) 
expansion

>  <fragmenstein_error>  (159) 


$$$$
C10977-P7
     RDKit          3D

 47 49  0  0  0  0  0  0  0  0999 V2000
   -4.7235   -2.0596   33.3964 C   0  0  0  0  0  0  0  0  0  0  0  0
   -3.3568   -1.6729   33.1959 O   0  0  0  0  0  0  0  0  0  0  0  0
   -3.0328   -1.4738   31.8002 C   0  0  0  0  0  0  0  0  0  0  0  0
   -1.5175   -1.1451   31.4874 C   0  0  0  0  0  0  0  0  0  0  0  0
   -0.8908   -1.7940   30.2722 N   0  0  0  0  0  0  0  0  0  0  0  0
    0.1216   -1.0479   29.4566 N   0  0  0  0  0  0  0  0  0  0  0  0
    0.9033   -1.7132   28.5928 C   0  0  0  0  0  0  0  0  0  0  0  0
    2.1910   -0.9866   27.7287 C   0  0  0  0  0  0  0  0  0  0  0  0
    2.6072   -0.0094   28.2964 O   0  0  0  0  0  0  0  0  0  0  0  0
    2.6713   -1.6653   26.4630 N   0  0  0  0  0  0  0  0  0  0  0  0
    3.8019   -1.2517   25.4265 C   0  0  0  0  0  0  0  0  0  0  0  0
    4.0064   -2.2467   24.0491 C   0  0  0  0  0  0  0  0  0  0  0  0
    5.2200   -1.9297   22.5603 C   0  0  0  0  0  0  0  0  0  0  0  0
    6.3953   -2.6762   21.1531 N   0  0  0  0  0  0  0  0  0  0  0  0
    7.3565   -1.7583   20.5798 C   0  0  0  0  0  0  0  0  0  0  0  0
    8.5124   -2.3582   20.3603 N   0  0  0  0  0  0  0  0  0  0  0  0
    8.8511   -3.5152   21.0742 C   0  0  0  0  0  0  0  0  0  0  0  0
   10.0446   -4.2165   21.5181 C   0  0  0  0  0  0  0  0  0  0  0  0
   10.0683   -5.3097   22.3545 C   0  0  0  0  0  0  0  0  0  0  0  0
    8.9229   -5.5634   23.0220 C   0  0  0  0  0  0  0  0  0  0  0  0
    7.8479   -4.6871   22.8598 C   0  0  0  0  0  0  0  0  0  0  0  0
    7.7643   -3.7232   21.7751 C   0  0  0  0  0  0  0  0  0  0  0  0
    0.7540   -3.1732   28.4436 C   0  0  0  0  0  0  0  0  0  0  0  0
   -0.1064   -3.8326   29.2230 C   0  0  0  0  0  0  0  0  0  0  0  0
   -0.8899   -3.1798   30.2801 C   0  0  0  0  0  0  0  0  0  0  0  0
   -1.4641   -3.8932   31.0975 O   0  0  0  0  0  0  0  0  0  0  0  0
   -4.8908   -2.1786   34.4697 H   0  0  0  0  0  0  0  0  0  0  0  0
   -5.3947   -1.2858   33.0136 H   0  0  0  0  0  0  0  0  0  0  0  0
   -4.9153   -3.0132   32.8976 H   0  0  0  0  0  0  0  0  0  0  0  0
   -3.3734   -2.3417   31.2306 H   0  0  0  0  0  0  0  0  0  0  0  0
   -3.5845   -0.5867   31.4917 H   0  0  0  0  0  0  0  0  0  0  0  0
   -0.9044   -1.4376   32.3481 H   0  0  0  0  0  0  0  0  0  0  0  0
   -1.4107   -0.0623   31.3559 H   0  0  0  0  0  0  0  0  0  0  0  0
    2.0382   -2.4151   26.2261 H   0  0  0  0  0  0  0  0  0  0  0  0
    4.7357   -1.2860   25.9986 H   0  0  0  0  0  0  0  0  0  0  0  0
    3.6170   -0.2043   25.1893 H   0  0  0  0  0  0  0  0  0  0  0  0
    3.0498   -2.5117   23.6105 H   0  0  0  0  0  0  0  0  0  0  0  0
    4.2762   -3.1141   24.6516 H   0  0  0  0  0  0  0  0  0  0  0  0
    5.7534   -2.0619   23.5275 H   0  0  0  0  0  0  0  0  0  0  0  0
    5.0718   -2.9002   22.1987 H   0  0  0  0  0  0  0  0  0  0  0  0
    7.1346   -0.7486   20.2630 H   0  0  0  0  0  0  0  0  0  0  0  0
   11.0517   -3.8854   21.2608 H   0  0  0  0  0  0  0  0  0  0  0  0
   10.9884   -5.8448   22.5567 H   0  0  0  0  0  0  0  0  0  0  0  0
    8.8927   -6.3754   23.7380 H   0  0  0  0  0  0  0  0  0  0  0  0
    7.0005   -4.8075   23.5031 H   0  0  0  0  0  0  0  0  0  0  0  0
    1.3853   -3.6923   27.7415 H   0  0  0  0  0  0  0  0  0  0  0  0
   -0.2089   -4.9084   29.1663 H   0  0  0  0  0  0  0  0  0  0  0  0
  1  2  1  0
  2  3  1  0
  3  4  1  0
  4  5  1  0
  5  6  1  0
  6  7  2  0
  7  8  1  0
  8  9  2  0
  8 10  1  0
 10 11  1  0
 11 12  1  0
 12 13  1  0
 13 14  1  0
 14 15  1  0
 15 16  2  0
 16 17  1  0
 17 18  2  0
 18 19  1  0
 19 20  2  0
 20 21  1  0
 21 22  2  0
  7 23  1  0
 23 24  2  0
 24 25  1  0
 25 26  2  0
 25  5  1  0
 22 14  1  0
 22 17  1  0
  1 27  1  0
  1 28  1  0
  1 29  1  0
  3 30  1  0
  3 31  1  0
  4 32  1  0
  4 33  1  0
 10 34  1  0
 11 35  1  0
 11 36  1  0
 12 37  1  0
 12 38  1  0
 13 39  1  0
 13 40  1  0
 15 41  1  0
 18 42  1  0
 19 43  1  0
 20 44  1  0
 21 45  1  0
 23 46  1  0
 24 47  1  0
M  END
>  <Energy>  (160) 
464.20063103636494

>  <compound_id>  (160) 
10977

>  <target_id>  (160) 
1

>  <reference_id>  (160) 
7

>  <inspiration_ids>  (160) 
[55, 7]

>  <energy_score>  (160) 
336.5195736552797

>  <distance_score>  (160) 
10.990190904943146

>  <path>  (160) 
/opt/xchem-fragalysis-2/maxwin/BulkDock/SCRATCH/511013/C10977-P7/C10977-P7.minimised.mol

>  <scratch_subdir>  (160) 
/opt/xchem-fragalysis-2/maxwin/BulkDock/SCRATCH/511013/C10977-P7

>  <fragmenstein_runtime>  (160) 
12.073724031448364

>  <fragmenstein_outcome>  (160) 
too moved

>  <fragmenstein_mode>  (160) 
expansion

>  <fragmenstein_error>  (160) 


$$$$
C10978-P55
     RDKit          3D

 49 53  0  0  0  0  0  0  0  0999 V2000
   -1.1118   -2.7326   30.1063 C   0  0  0  0  0  0  0  0  0  0  0  0
    0.2682   -2.6362   29.7090 O   0  0  0  0  0  0  0  0  0  0  0  0
    0.4571   -2.8347   28.2816 C   0  0  0  0  0  0  0  0  0  0  0  0
    2.0175   -2.8533   27.7543 C   0  0  0  0  0  0  0  0  0  0  0  0
    2.5240   -1.7844   26.7784 N   0  0  0  0  0  0  0  0  0  0  0  0
    2.2026   -0.5626   27.4069 C   0  0  0  0  0  0  0  0  0  0  0  0
    1.1093   -0.0955   27.6843 O   0  0  0  0  0  0  0  0  0  0  0  0
    3.4857    0.0342   27.8538 C   0  0  0  0  0  0  0  0  0  0  0  0
    3.5839    0.5538   29.2689 C   0  0  0  0  0  0  0  0  0  0  0  0
    3.6559    1.5032   28.1022 C   0  0  0  0  0  0  0  0  0  0  0  0
    4.6115   -0.7556   27.2433 N   0  0  0  0  0  0  0  0  0  0  0  0
    3.9808   -1.5112   26.1094 C   0  0  0  0  0  0  0  0  0  0  0  0
    5.1106   -2.0818   24.8939 C   0  0  0  0  0  0  0  0  0  0  0  0
    4.9323   -2.4325   23.5336 C   0  0  0  0  0  0  0  0  0  0  0  0
    6.0452   -2.3000   22.3162 C   0  0  0  0  0  0  0  0  0  0  0  0
    7.3770   -1.9253   22.5000 C   0  0  0  0  0  0  0  0  0  0  0  0
    8.4008   -0.6560   21.6243 N   0  0  0  0  0  0  0  0  0  0  0  0
    9.8605   -0.9706   22.8832 C   0  0  0  0  0  0  0  0  0  0  0  0
   10.4453   -2.6854   22.3490 N   0  0  0  0  0  0  0  0  0  0  0  0
   10.1881   -2.7263   20.2472 C   0  0  0  0  0  0  0  0  0  0  0  0
   11.8036   -2.7928   18.9578 C   0  0  0  0  0  0  0  0  0  0  0  0
   11.5753   -1.7912   17.3444 C   0  0  0  0  0  0  0  0  0  0  0  0
   10.1910   -0.6002   16.8744 C   0  0  0  0  0  0  0  0  0  0  0  0
    8.7015   -0.1614   18.0053 C   0  0  0  0  0  0  0  0  0  0  0  0
    8.9597   -1.0405   19.7626 C   0  0  0  0  0  0  0  0  0  0  0  0
    7.6212   -2.1378   23.9396 C   0  0  0  0  0  0  0  0  0  0  0  0
    6.5623   -2.0606   25.0412 C   0  0  0  0  0  0  0  0  0  0  0  0
   -1.7311   -2.0610   29.5058 H   0  0  0  0  0  0  0  0  0  0  0  0
   -1.4343   -3.7675   29.9963 H   0  0  0  0  0  0  0  0  0  0  0  0
   -1.1839   -2.4475   31.1587 H   0  0  0  0  0  0  0  0  0  0  0  0
   -0.1309   -2.0925   27.7407 H   0  0  0  0  0  0  0  0  0  0  0  0
    0.0499   -3.8277   28.0563 H   0  0  0  0  0  0  0  0  0  0  0  0
    2.1328   -3.7899   27.2258 H   0  0  0  0  0  0  0  0  0  0  0  0
    2.6798   -2.8435   28.6272 H   0  0  0  0  0  0  0  0  0  0  0  0
    4.4939    0.3650   29.8241 H   0  0  0  0  0  0  0  0  0  0  0  0
    2.6837    0.5650   29.8737 H   0  0  0  0  0  0  0  0  0  0  0  0
    2.8047    2.1492   27.9205 H   0  0  0  0  0  0  0  0  0  0  0  0
    4.6142    1.9507   27.8692 H   0  0  0  0  0  0  0  0  0  0  0  0
    4.9100   -1.4833   27.8886 H   0  0  0  0  0  0  0  0  0  0  0  0
    3.6638   -0.6894   25.4448 H   0  0  0  0  0  0  0  0  0  0  0  0
    3.8986   -2.6881   23.3023 H   0  0  0  0  0  0  0  0  0  0  0  0
    5.7304   -2.4058   21.2849 H   0  0  0  0  0  0  0  0  0  0  0  0
   10.4895   -0.0792   22.8963 H   0  0  0  0  0  0  0  0  0  0  0  0
   12.6898   -3.3584   19.2687 H   0  0  0  0  0  0  0  0  0  0  0  0
   12.3965   -1.8773   16.6240 H   0  0  0  0  0  0  0  0  0  0  0  0
   10.2389   -0.1235   15.8908 H   0  0  0  0  0  0  0  0  0  0  0  0
    7.9057    0.5614   17.8177 H   0  0  0  0  0  0  0  0  0  0  0  0
    8.6168   -2.0718   24.3773 H   0  0  0  0  0  0  0  0  0  0  0  0
    6.9622   -1.8775   26.0476 H   0  0  0  0  0  0  0  0  0  0  0  0
  1  2  1  0
  2  3  1  0
  3  4  1  0
  4  5  1  0
  5  6  1  0
  6  7  2  0
  6  8  1  0
  8  9  1  0
  9 10  1  0
  8 11  1  0
 11 12  1  0
 12 13  1  0
 13 14  2  0
 14 15  1  0
 15 16  2  0
 16 17  1  0
 17 18  1  0
 18 19  2  0
 19 20  1  0
 20 21  2  0
 21 22  1  0
 22 23  2  0
 23 24  1  0
 24 25  2  0
 16 26  1  0
 26 27  2  0
 12  5  1  0
 27 13  1  0
 10  8  1  0
 25 17  1  0
 25 20  1  0
  1 28  1  0
  1 29  1  0
  1 30  1  0
  3 31  1  0
  3 32  1  0
  4 33  1  0
  4 34  1  0
  9 35  1  0
  9 36  1  0
 10 37  1  0
 10 38  1  0
 11 39  1  0
 12 40  1  0
 14 41  1  0
 15 42  1  0
 18 43  1  0
 21 44  1  0
 22 45  1  0
 23 46  1  0
 24 47  1  0
 26 48  1  0
 27 49  1  0
M  END
>  <Energy>  (161) 
1489.5004034855217

>  <compound_id>  (161) 
10978

>  <target_id>  (161) 
1

>  <reference_id>  (161) 
55

>  <inspiration_ids>  (161) 
[55, 7]

>  <energy_score>  (161) 
1398.882699757965

>  <distance_score>  (161) 
12.994083389065969

>  <path>  (161) 
/opt/xchem-fragalysis-2/maxwin/BulkDock/SCRATCH/511013/C10978-P55/C10978-P55.minimised.mol

>  <scratch_subdir>  (161) 
/opt/xchem-fragalysis-2/maxwin/BulkDock/SCRATCH/511013/C10978-P55

>  <fragmenstein_runtime>  (161) 
11.436870336532593

>  <fragmenstein_outcome>  (161) 
too moved

>  <fragmenstein_mode>  (161) 
expansion

>  <fragmenstein_error>  (161) 


$$$$
C10978-P7
     RDKit          3D

 49 53  0  0  0  0  0  0  0  0999 V2000
   -8.1872   -1.0372   35.5426 C   0  0  0  0  0  0  0  0  0  0  0  0
   -7.3384   -1.6826   34.5951 O   0  0  0  0  0  0  0  0  0  0  0  0
   -6.4547   -0.7685   33.9176 C   0  0  0  0  0  0  0  0  0  0  0  0
   -5.2579   -1.5179   33.2160 C   0  0  0  0  0  0  0  0  0  0  0  0
   -4.1188   -0.6879   32.6574 N   0  0  0  0  0  0  0  0  0  0  0  0
   -3.9104    0.4403   33.4343 C   0  0  0  0  0  0  0  0  0  0  0  0
   -4.5000    1.5052   33.3692 O   0  0  0  0  0  0  0  0  0  0  0  0
   -2.8368    0.1016   34.3911 C   0  0  0  0  0  0  0  0  0  0  0  0
   -2.0918    1.1257   35.1846 C   0  0  0  0  0  0  0  0  0  0  0  0
   -3.0752    0.2271   35.8743 C   0  0  0  0  0  0  0  0  0  0  0  0
   -2.2105   -1.1370   33.8841 N   0  0  0  0  0  0  0  0  0  0  0  0
   -2.7874   -1.3506   32.5355 C   0  0  0  0  0  0  0  0  0  0  0  0
   -1.7344   -0.8830   31.4151 C   0  0  0  0  0  0  0  0  0  0  0  0
   -1.1032   -1.8053   30.5328 C   0  0  0  0  0  0  0  0  0  0  0  0
    0.0136   -1.4758   29.6445 C   0  0  0  0  0  0  0  0  0  0  0  0
    0.5809   -0.1959   29.5965 C   0  0  0  0  0  0  0  0  0  0  0  0
    1.7950    0.1874   28.7940 N   0  0  0  0  0  0  0  0  0  0  0  0
    2.4371    1.4204   28.9270 C   0  0  0  0  0  0  0  0  0  0  0  0
    3.5561    1.5473   28.2535 N   0  0  0  0  0  0  0  0  0  0  0  0
    3.6769    0.3836   27.5649 C   0  0  0  0  0  0  0  0  0  0  0  0
    4.7135    0.0343   26.6792 C   0  0  0  0  0  0  0  0  0  0  0  0
    4.6172   -1.1372   25.9521 C   0  0  0  0  0  0  0  0  0  0  0  0
    3.5384   -1.9759   26.1774 C   0  0  0  0  0  0  0  0  0  0  0  0
    2.5435   -1.7009   27.1437 C   0  0  0  0  0  0  0  0  0  0  0  0
    2.5982   -0.4826   27.8337 C   0  0  0  0  0  0  0  0  0  0  0  0
   -0.0715    0.7340   30.4500 C   0  0  0  0  0  0  0  0  0  0  0  0
   -1.1847    0.4050   31.3240 C   0  0  0  0  0  0  0  0  0  0  0  0
   -7.6227   -0.8508   36.4609 H   0  0  0  0  0  0  0  0  0  0  0  0
   -8.5678   -0.0891   35.1552 H   0  0  0  0  0  0  0  0  0  0  0  0
   -9.0234   -1.7019   35.7720 H   0  0  0  0  0  0  0  0  0  0  0  0
   -6.0658   -0.0712   34.6661 H   0  0  0  0  0  0  0  0  0  0  0  0
   -7.0247   -0.2028   33.1723 H   0  0  0  0  0  0  0  0  0  0  0  0
   -4.8329   -2.2045   33.9600 H   0  0  0  0  0  0  0  0  0  0  0  0
   -5.6325   -2.1402   32.3969 H   0  0  0  0  0  0  0  0  0  0  0  0
   -1.0388    0.9677   35.3831 H   0  0  0  0  0  0  0  0  0  0  0  0
   -2.3651    2.1683   35.0610 H   0  0  0  0  0  0  0  0  0  0  0  0
   -2.6875   -0.5464   36.5263 H   0  0  0  0  0  0  0  0  0  0  0  0
   -4.0066    0.6680   36.2115 H   0  0  0  0  0  0  0  0  0  0  0  0
   -1.2007   -1.0395   33.7931 H   0  0  0  0  0  0  0  0  0  0  0  0
   -2.9630   -2.4200   32.3683 H   0  0  0  0  0  0  0  0  0  0  0  0
   -1.4387   -2.8440   30.5290 H   0  0  0  0  0  0  0  0  0  0  0  0
    0.4207   -2.2853   29.0445 H   0  0  0  0  0  0  0  0  0  0  0  0
    2.0567    2.1970   29.5723 H   0  0  0  0  0  0  0  0  0  0  0  0
    5.5530    0.7021   26.5576 H   0  0  0  0  0  0  0  0  0  0  0  0
    5.3655   -1.4012   25.2137 H   0  0  0  0  0  0  0  0  0  0  0  0
    3.4593   -2.8712   25.5684 H   0  0  0  0  0  0  0  0  0  0  0  0
    1.7272   -2.3981   27.2768 H   0  0  0  0  0  0  0  0  0  0  0  0
    0.2541    1.7712   30.4973 H   0  0  0  0  0  0  0  0  0  0  0  0
   -1.5689    1.2013   31.9595 H   0  0  0  0  0  0  0  0  0  0  0  0
  1  2  1  0
  2  3  1  0
  3  4  1  0
  4  5  1  0
  5  6  1  0
  6  7  2  0
  6  8  1  0
  8  9  1  0
  9 10  1  0
  8 11  1  0
 11 12  1  0
 12 13  1  0
 13 14  2  0
 14 15  1  0
 15 16  2  0
 16 17  1  0
 17 18  1  0
 18 19  2  0
 19 20  1  0
 20 21  2  0
 21 22  1  0
 22 23  2  0
 23 24  1  0
 24 25  2  0
 16 26  1  0
 26 27  2  0
 12  5  1  0
 27 13  1  0
 10  8  1  0
 25 17  1  0
 25 20  1  0
  1 28  1  0
  1 29  1  0
  1 30  1  0
  3 31  1  0
  3 32  1  0
  4 33  1  0
  4 34  1  0
  9 35  1  0
  9 36  1  0
 10 37  1  0
 10 38  1  0
 11 39  1  0
 12 40  1  0
 14 41  1  0
 15 42  1  0
 18 43  1  0
 21 44  1  0
 22 45  1  0
 23 46  1  0
 24 47  1  0
 26 48  1  0
 27 49  1  0
M  END
>  <Energy>  (162) 
103.64105089130651

>  <compound_id>  (162) 
10978

>  <target_id>  (162) 
1

>  <reference_id>  (162) 
7

>  <inspiration_ids>  (162) 
[55, 7]

>  <energy_score>  (162) 
13.023347163734542

>  <distance_score>  (162) 
12.424856703503595

>  <path>  (162) 
/opt/xchem-fragalysis-2/maxwin/BulkDock/SCRATCH/511013/C10978-P7/C10978-P7.minimised.mol

>  <scratch_subdir>  (162) 
/opt/xchem-fragalysis-2/maxwin/BulkDock/SCRATCH/511013/C10978-P7

>  <fragmenstein_runtime>  (162) 
8.796098470687866

>  <fragmenstein_outcome>  (162) 
too moved

>  <fragmenstein_mode>  (162) 
expansion

>  <fragmenstein_error>  (162) 


$$$$
C10979-P55
     RDKit          3D

 52 56  0  0  0  0  0  0  0  0999 V2000
   -8.2748   -0.9657   35.4045 C   0  0  0  0  0  0  0  0  0  0  0  0
   -7.4971   -1.5870   34.3816 O   0  0  0  0  0  0  0  0  0  0  0  0
   -6.5063   -0.7057   33.8177 C   0  0  0  0  0  0  0  0  0  0  0  0
   -5.4484   -1.4847   32.9495 C   0  0  0  0  0  0  0  0  0  0  0  0
   -4.1632   -0.7688   32.5127 N   0  0  0  0  0  0  0  0  0  0  0  0
   -3.9457    0.3786   33.2578 C   0  0  0  0  0  0  0  0  0  0  0  0
   -4.5855    1.4121   33.1005 O   0  0  0  0  0  0  0  0  0  0  0  0
   -3.0336    0.2389   34.3969 C   0  0  0  0  0  0  0  0  0  0  0  0
   -3.0168    1.2037   35.4123 C   0  0  0  0  0  0  0  0  0  0  0  0
   -2.1880    1.0136   36.5147 C   0  0  0  0  0  0  0  0  0  0  0  0
   -1.4100   -0.1407   36.6045 C   0  0  0  0  0  0  0  0  0  0  0  0
   -1.4560   -1.1054   35.5914 C   0  0  0  0  0  0  0  0  0  0  0  0
   -2.2541   -0.9166   34.4585 C   0  0  0  0  0  0  0  0  0  0  0  0
   -2.3727   -1.9402   33.5113 N   0  0  0  0  0  0  0  0  0  0  0  0
   -2.9736   -1.6195   32.2161 C   0  0  0  0  0  0  0  0  0  0  0  0
   -1.8145   -1.4039   31.1329 C   0  0  0  0  0  0  0  0  0  0  0  0
   -1.2519   -0.2456   30.5599 C   0  0  0  0  0  0  0  0  0  0  0  0
   -0.0973   -0.2706   29.6077 C   0  0  0  0  0  0  0  0  0  0  0  0
    0.5486   -1.4577   29.1938 C   0  0  0  0  0  0  0  0  0  0  0  0
    1.7458   -1.6012   28.2677 N   0  0  0  0  0  0  0  0  0  0  0  0
    2.3508   -2.8368   28.0041 C   0  0  0  0  0  0  0  0  0  0  0  0
    3.4029   -2.8065   27.2223 N   0  0  0  0  0  0  0  0  0  0  0  0
    3.5255   -1.5034   26.8696 C   0  0  0  0  0  0  0  0  0  0  0  0
    4.4883   -0.9596   25.9931 C   0  0  0  0  0  0  0  0  0  0  0  0
    4.4952    0.4090   25.7618 C   0  0  0  0  0  0  0  0  0  0  0  0
    3.5580    1.2132   26.4064 C   0  0  0  0  0  0  0  0  0  0  0  0
    2.5822    0.6856   27.2894 C   0  0  0  0  0  0  0  0  0  0  0  0
    2.5545   -0.7018   27.5162 C   0  0  0  0  0  0  0  0  0  0  0  0
   -0.0350   -2.6065   29.7696 C   0  0  0  0  0  0  0  0  0  0  0  0
   -1.1453   -2.5756   30.6914 C   0  0  0  0  0  0  0  0  0  0  0  0
   -8.5553    0.0556   35.1325 H   0  0  0  0  0  0  0  0  0  0  0  0
   -9.1796   -1.5573   35.5612 H   0  0  0  0  0  0  0  0  0  0  0  0
   -7.6986   -0.9431   36.3340 H   0  0  0  0  0  0  0  0  0  0  0  0
   -6.0031   -0.2065   34.6520 H   0  0  0  0  0  0  0  0  0  0  0  0
   -7.0056    0.0477   33.1998 H   0  0  0  0  0  0  0  0  0  0  0  0
   -5.1603   -2.3498   33.5461 H   0  0  0  0  0  0  0  0  0  0  0  0
   -5.9242   -1.8897   32.0509 H   0  0  0  0  0  0  0  0  0  0  0  0
   -3.6444    2.0890   35.3453 H   0  0  0  0  0  0  0  0  0  0  0  0
   -2.1576    1.7555   37.3090 H   0  0  0  0  0  0  0  0  0  0  0  0
   -0.7744   -0.2995   37.4729 H   0  0  0  0  0  0  0  0  0  0  0  0
   -0.8647   -2.0118   35.7013 H   0  0  0  0  0  0  0  0  0  0  0  0
   -1.5159   -2.4837   33.4211 H   0  0  0  0  0  0  0  0  0  0  0  0
   -3.4424   -2.5366   31.8374 H   0  0  0  0  0  0  0  0  0  0  0  0
   -1.6657    0.7294   30.8196 H   0  0  0  0  0  0  0  0  0  0  0  0
    0.2485    0.6926   29.2392 H   0  0  0  0  0  0  0  0  0  0  0  0
    1.9837   -3.7569   28.4280 H   0  0  0  0  0  0  0  0  0  0  0  0
    5.1939   -1.6170   25.4988 H   0  0  0  0  0  0  0  0  0  0  0  0
    5.2105    0.8405   25.0687 H   0  0  0  0  0  0  0  0  0  0  0  0
    3.5661    2.2850   26.2161 H   0  0  0  0  0  0  0  0  0  0  0  0
    1.8645    1.3497   27.7567 H   0  0  0  0  0  0  0  0  0  0  0  0
    0.3282   -3.6051   29.5415 H   0  0  0  0  0  0  0  0  0  0  0  0
   -1.4768   -3.5433   31.0724 H   0  0  0  0  0  0  0  0  0  0  0  0
  1  2  1  0
  2  3  1  0
  3  4  1  0
  4  5  1  0
  5  6  1  0
  6  7  2  0
  6  8  1  0
  8  9  2  0
  9 10  1  0
 10 11  2  0
 11 12  1  0
 12 13  2  0
 13 14  1  0
 14 15  1  0
 15 16  1  0
 16 17  2  0
 17 18  1  0
 18 19  2  0
 19 20  1  0
 20 21  1  0
 21 22  2  0
 22 23  1  0
 23 24  2  0
 24 25  1  0
 25 26  2  0
 26 27  1  0
 27 28  2  0
 19 29  1  0
 29 30  2  0
 15  5  1  0
 30 16  1  0
 13  8  1  0
 28 20  1  0
 28 23  1  0
  1 31  1  0
  1 32  1  0
  1 33  1  0
  3 34  1  0
  3 35  1  0
  4 36  1  0
  4 37  1  0
  9 38  1  0
 10 39  1  0
 11 40  1  0
 12 41  1  0
 14 42  1  0
 15 43  1  0
 17 44  1  0
 18 45  1  0
 21 46  1  0
 24 47  1  0
 25 48  1  0
 26 49  1  0
 27 50  1  0
 29 51  1  0
 30 52  1  0
M  END
>  <Energy>  (163) 
108.0843109004376

>  <compound_id>  (163) 
10979

>  <target_id>  (163) 
1

>  <reference_id>  (163) 
55

>  <inspiration_ids>  (163) 
[55, 7]

>  <energy_score>  (163) 
7.7176849415428705

>  <distance_score>  (163) 
12.318942952188676

>  <path>  (163) 
/opt/xchem-fragalysis-2/maxwin/BulkDock/SCRATCH/511013/C10979-P55/C10979-P55.minimised.mol

>  <scratch_subdir>  (163) 
/opt/xchem-fragalysis-2/maxwin/BulkDock/SCRATCH/511013/C10979-P55

>  <fragmenstein_runtime>  (163) 
14.114821910858154

>  <fragmenstein_outcome>  (163) 
too moved

>  <fragmenstein_mode>  (163) 
expansion

>  <fragmenstein_error>  (163) 


$$$$
C10979-P7
     RDKit          3D

 52 56  0  0  0  0  0  0  0  0999 V2000
   -7.9138   -1.1052   35.1046 C   0  0  0  0  0  0  0  0  0  0  0  0
   -6.6412   -1.5315   34.6247 O   0  0  0  0  0  0  0  0  0  0  0  0
   -6.4060   -1.1677   33.2446 C   0  0  0  0  0  0  0  0  0  0  0  0
   -5.1144   -1.8864   32.7116 C   0  0  0  0  0  0  0  0  0  0  0  0
   -3.8831   -1.0913   32.3121 N   0  0  0  0  0  0  0  0  0  0  0  0
   -3.7634    0.0590   33.0778 C   0  0  0  0  0  0  0  0  0  0  0  0
   -4.3026    1.1192   32.7866 O   0  0  0  0  0  0  0  0  0  0  0  0
   -3.0602   -0.1061   34.3510 C   0  0  0  0  0  0  0  0  0  0  0  0
   -3.2793    0.7839   35.4095 C   0  0  0  0  0  0  0  0  0  0  0  0
   -2.6027    0.5826   36.6089 C   0  0  0  0  0  0  0  0  0  0  0  0
   -1.7354   -0.5029   36.7412 C   0  0  0  0  0  0  0  0  0  0  0  0
   -1.5423   -1.3909   35.6757 C   0  0  0  0  0  0  0  0  0  0  0  0
   -2.1929   -1.1945   34.4534 C   0  0  0  0  0  0  0  0  0  0  0  0
   -2.0754   -2.1545   33.4410 N   0  0  0  0  0  0  0  0  0  0  0  0
   -2.6399   -1.8884   32.1137 C   0  0  0  0  0  0  0  0  0  0  0  0
   -1.4815   -1.6821   31.0346 C   0  0  0  0  0  0  0  0  0  0  0  0
   -0.9955   -0.5340   30.3775 C   0  0  0  0  0  0  0  0  0  0  0  0
    0.1479   -0.5559   29.4147 C   0  0  0  0  0  0  0  0  0  0  0  0
    0.8539   -1.7298   29.0678 C   0  0  0  0  0  0  0  0  0  0  0  0
    2.0305   -1.8675   28.1166 N   0  0  0  0  0  0  0  0  0  0  0  0
    2.6230   -3.1021   27.8240 C   0  0  0  0  0  0  0  0  0  0  0  0
    3.6733   -3.0641   27.0400 N   0  0  0  0  0  0  0  0  0  0  0  0
    3.7986   -1.7559   26.7065 C   0  0  0  0  0  0  0  0  0  0  0  0
    4.7681   -1.2009   25.8449 C   0  0  0  0  0  0  0  0  0  0  0  0
    4.7744    0.1705   25.6302 C   0  0  0  0  0  0  0  0  0  0  0  0
    3.8272    0.9650   26.2718 C   0  0  0  0  0  0  0  0  0  0  0  0
    2.8506    0.4269   27.1457 C   0  0  0  0  0  0  0  0  0  0  0  0
    2.8256   -0.9621   27.3590 C   0  0  0  0  0  0  0  0  0  0  0  0
    0.3538   -2.8685   29.7364 C   0  0  0  0  0  0  0  0  0  0  0  0
   -0.7467   -2.8412   30.6695 C   0  0  0  0  0  0  0  0  0  0  0  0
   -7.9567   -1.2970   36.1798 H   0  0  0  0  0  0  0  0  0  0  0  0
   -8.0484   -0.0335   34.9330 H   0  0  0  0  0  0  0  0  0  0  0  0
   -8.7034   -1.6799   34.6199 H   0  0  0  0  0  0  0  0  0  0  0  0
   -6.3655   -0.0804   33.1589 H   0  0  0  0  0  0  0  0  0  0  0  0
   -7.2526   -1.5153   32.6509 H   0  0  0  0  0  0  0  0  0  0  0  0
   -4.8157   -2.5855   33.4898 H   0  0  0  0  0  0  0  0  0  0  0  0
   -5.3759   -2.4731   31.8257 H   0  0  0  0  0  0  0  0  0  0  0  0
   -3.9674    1.6180   35.2968 H   0  0  0  0  0  0  0  0  0  0  0  0
   -2.7561    1.2641   37.4422 H   0  0  0  0  0  0  0  0  0  0  0  0
   -1.2157   -0.6677   37.6826 H   0  0  0  0  0  0  0  0  0  0  0  0
   -0.8839   -2.2448   35.8166 H   0  0  0  0  0  0  0  0  0  0  0  0
   -1.1410   -2.5568   33.3983 H   0  0  0  0  0  0  0  0  0  0  0  0
   -3.0488   -2.8454   31.7636 H   0  0  0  0  0  0  0  0  0  0  0  0
   -1.4705    0.4290   30.5709 H   0  0  0  0  0  0  0  0  0  0  0  0
    0.4254    0.3964   28.9686 H   0  0  0  0  0  0  0  0  0  0  0  0
    2.2401   -4.0290   28.2181 H   0  0  0  0  0  0  0  0  0  0  0  0
    5.4801   -1.8507   25.3501 H   0  0  0  0  0  0  0  0  0  0  0  0
    5.4937    0.6118   24.9479 H   0  0  0  0  0  0  0  0  0  0  0  0
    3.8324    2.0382   26.0902 H   0  0  0  0  0  0  0  0  0  0  0  0
    2.1337    1.0854   27.6213 H   0  0  0  0  0  0  0  0  0  0  0  0
    0.7895   -3.8528   29.5873 H   0  0  0  0  0  0  0  0  0  0  0  0
   -1.0186   -3.7991   31.1186 H   0  0  0  0  0  0  0  0  0  0  0  0
  1  2  1  0
  2  3  1  0
  3  4  1  0
  4  5  1  0
  5  6  1  0
  6  7  2  0
  6  8  1  0
  8  9  2  0
  9 10  1  0
 10 11  2  0
 11 12  1  0
 12 13  2  0
 13 14  1  0
 14 15  1  0
 15 16  1  0
 16 17  2  0
 17 18  1  0
 18 19  2  0
 19 20  1  0
 20 21  1  0
 21 22  2  0
 22 23  1  0
 23 24  2  0
 24 25  1  0
 25 26  2  0
 26 27  1  0
 27 28  2  0
 19 29  1  0
 29 30  2  0
 15  5  1  0
 30 16  1  0
 13  8  1  0
 28 20  1  0
 28 23  1  0
  1 31  1  0
  1 32  1  0
  1 33  1  0
  3 34  1  0
  3 35  1  0
  4 36  1  0
  4 37  1  0
  9 38  1  0
 10 39  1  0
 11 40  1  0
 12 41  1  0
 14 42  1  0
 15 43  1  0
 17 44  1  0
 18 45  1  0
 21 46  1  0
 24 47  1  0
 25 48  1  0
 26 49  1  0
 27 50  1  0
 29 51  1  0
 30 52  1  0
M  END
>  <Energy>  (164) 
111.32340210482919

>  <compound_id>  (164) 
10979

>  <target_id>  (164) 
1

>  <reference_id>  (164) 
7

>  <inspiration_ids>  (164) 
[55, 7]

>  <energy_score>  (164) 
10.956776145932508

>  <distance_score>  (164) 
12.220925465986088

>  <path>  (164) 
/opt/xchem-fragalysis-2/maxwin/BulkDock/SCRATCH/511013/C10979-P7/C10979-P7.minimised.mol

>  <scratch_subdir>  (164) 
/opt/xchem-fragalysis-2/maxwin/BulkDock/SCRATCH/511013/C10979-P7

>  <fragmenstein_runtime>  (164) 
13.09705924987793

>  <fragmenstein_outcome>  (164) 
too moved

>  <fragmenstein_mode>  (164) 
expansion

>  <fragmenstein_error>  (164) 


$$$$
C10997-P55
     RDKit          3D

 42 44  0  0  0  0  0  0  0  0999 V2000
    7.4631    2.4666   17.4104 C   0  0  0  0  0  0  0  0  0  0  0  0
    7.2390    1.3631   18.3676 C   0  0  0  0  0  0  0  0  0  0  0  0
    7.2993    1.2621   19.7067 N   0  0  0  0  0  0  0  0  0  0  0  0
    6.7618   -0.2856   20.1347 C   0  0  0  0  0  0  0  0  0  0  0  0
    5.9135   -1.6645   21.3743 C   0  0  0  0  0  0  0  0  0  0  0  0
    5.1683   -1.7265   22.6343 C   0  0  0  0  0  0  0  0  0  0  0  0
    3.5391   -2.3343   23.6428 C   0  0  0  0  0  0  0  0  0  0  0  0
    2.9146   -3.0602   22.9629 O   0  0  0  0  0  0  0  0  0  0  0  0
    2.7324   -1.9137   25.2863 N   0  0  0  0  0  0  0  0  0  0  0  0
    0.8827   -2.3796   26.0633 C   0  0  0  0  0  0  0  0  0  0  0  0
    1.1120   -3.1487   27.4802 C   0  0  0  0  0  0  0  0  0  0  0  0
    2.4237   -2.7046   28.1403 C   0  0  0  0  0  0  0  0  0  0  0  0
    0.0386   -2.9159   28.4901 N   0  0  0  0  0  0  0  0  0  0  0  0
   -0.4605   -1.6955   29.0760 C   0  0  0  0  0  0  0  0  0  0  0  0
   -0.1947   -0.5530   28.8421 O   0  0  0  0  0  0  0  0  0  0  0  0
   -1.3872   -1.9165   30.2281 C   0  0  0  0  0  0  0  0  0  0  0  0
   -1.6556   -3.0313   31.0649 C   0  0  0  0  0  0  0  0  0  0  0  0
   -2.5833   -2.8029   32.0049 N   0  0  0  0  0  0  0  0  0  0  0  0
   -2.8624   -1.5010   31.8466 N   0  0  0  0  0  0  0  0  0  0  0  0
   -2.1720   -0.9306   30.8178 C   0  0  0  0  0  0  0  0  0  0  0  0
    5.8411   -0.8241   21.7271 C   0  0  0  0  0  0  0  0  0  0  0  0
    7.4147   -0.8719   20.4930 C   0  0  0  0  0  0  0  0  0  0  0  0
    7.5415   -0.6633   19.1260 C   0  0  0  0  0  0  0  0  0  0  0  0
    7.0337    0.0746   18.0292 N   0  0  0  0  0  0  0  0  0  0  0  0
    7.4217    3.4450   17.8931 H   0  0  0  0  0  0  0  0  0  0  0  0
    8.4317    2.3598   16.9137 H   0  0  0  0  0  0  0  0  0  0  0  0
    6.6797    2.4730   16.6489 H   0  0  0  0  0  0  0  0  0  0  0  0
    5.8939   -2.6897   20.8542 H   0  0  0  0  0  0  0  0  0  0  0  0
    3.3839   -1.3585   25.8204 H   0  0  0  0  0  0  0  0  0  0  0  0
    0.7233   -1.3521   26.5398 H   0  0  0  0  0  0  0  0  0  0  0  0
   -0.0266   -2.8295   24.3276 H   0  0  0  0  0  0  0  0  0  0  0  0
    1.1559   -4.2297   27.3341 H   0  0  0  0  0  0  0  0  0  0  0  0
    3.2940   -2.9342   27.5250 H   0  0  0  0  0  0  0  0  0  0  0  0
    2.4270   -1.6270   28.3375 H   0  0  0  0  0  0  0  0  0  0  0  0
    2.5611   -3.2124   29.1020 H   0  0  0  0  0  0  0  0  0  0  0  0
   -0.3474   -3.7029   28.9901 H   0  0  0  0  0  0  0  0  0  0  0  0
   -1.2054   -4.0145   31.0298 H   0  0  0  0  0  0  0  0  0  0  0  0
   -3.5319   -1.0650   32.4729 H   0  0  0  0  0  0  0  0  0  0  0  0
   -2.2898    0.1163   30.5738 H   0  0  0  0  0  0  0  0  0  0  0  0
    5.2581    0.2052   21.6537 H   0  0  0  0  0  0  0  0  0  0  0  0
    8.4477   -0.4498   20.9008 H   0  0  0  0  0  0  0  0  0  0  0  0
    7.0806   -0.2140   17.0636 H   0  0  0  0  0  0  0  0  0  0  0  0
  1  2  1  0
  2  3  2  0
  3  4  1  0
  4  5  2  0
  5  6  1  0
  6  7  1  0
  7  8  2  0
  7  9  1  0
  9 10  1  0
 10 11  1  0
 11 12  1  0
 11 13  1  0
 13 14  1  0
 14 15  2  0
 14 16  1  0
 16 17  1  0
 17 18  2  0
 18 19  1  0
 19 20  1  0
  6 21  2  0
 21 22  1  0
 22 23  2  0
 23 24  1  0
 24  2  1  0
 23  4  1  0
 20 16  2  0
  1 25  1  0
  1 26  1  0
  1 27  1  0
  5 28  1  0
  9 29  1  0
 10 30  1  0
 10 31  1  0
 11 32  1  0
 12 33  1  0
 12 34  1  0
 12 35  1  0
 13 36  1  0
 17 37  1  0
 19 38  1  0
 20 39  1  0
 21 40  1  0
 22 41  1  0
 24 42  1  0
M  END
>  <Energy>  (165) 
1566.0510051985686

>  <compound_id>  (165) 
10997

>  <target_id>  (165) 
1

>  <reference_id>  (165) 
55

>  <inspiration_ids>  (165) 
[55, 7]

>  <energy_score>  (165) 
1549.885285929091

>  <distance_score>  (165) 
9.358644172793653

>  <path>  (165) 
/opt/xchem-fragalysis-2/maxwin/BulkDock/SCRATCH/511013/C10997-P55/C10997-P55.minimised.mol

>  <scratch_subdir>  (165) 
/opt/xchem-fragalysis-2/maxwin/BulkDock/SCRATCH/511013/C10997-P55

>  <fragmenstein_runtime>  (165) 
7.9019927978515625

>  <fragmenstein_outcome>  (165) 
too moved

>  <fragmenstein_mode>  (165) 
expansion

>  <fragmenstein_error>  (165) 


$$$$
C10997-P7
     RDKit          3D

 42 44  0  0  0  0  0  0  0  0999 V2000
   11.0143   -0.0206   14.5830 C   0  0  0  0  0  0  0  0  0  0  0  0
    9.7712   -0.0583   15.3881 C   0  0  0  0  0  0  0  0  0  0  0  0
    9.6342    0.3808   16.6195 N   0  0  0  0  0  0  0  0  0  0  0  0
    8.3113    0.2331   16.9107 C   0  0  0  0  0  0  0  0  0  0  0  0
    7.6496    0.2243   18.1693 C   0  0  0  0  0  0  0  0  0  0  0  0
    6.4364    0.0300   18.6630 C   0  0  0  0  0  0  0  0  0  0  0  0
    6.5220   -0.2698   20.5704 C   0  0  0  0  0  0  0  0  0  0  0  0
    7.4911   -0.9996   20.8239 O   0  0  0  0  0  0  0  0  0  0  0  0
    5.1464    0.4165   21.7280 N   0  0  0  0  0  0  0  0  0  0  0  0
    4.7709    0.1156   23.6850 C   0  0  0  0  0  0  0  0  0  0  0  0
    3.4934    1.0910   24.7384 C   0  0  0  0  0  0  0  0  0  0  0  0
    3.2517    2.6556   24.7873 C   0  0  0  0  0  0  0  0  0  0  0  0
    2.9872    0.4611   26.0127 N   0  0  0  0  0  0  0  0  0  0  0  0
    2.4354    1.0602   27.2176 C   0  0  0  0  0  0  0  0  0  0  0  0
    2.3215    2.2090   27.5351 O   0  0  0  0  0  0  0  0  0  0  0  0
    1.8071    0.1072   28.1866 C   0  0  0  0  0  0  0  0  0  0  0  0
    1.0770    0.4886   29.3688 C   0  0  0  0  0  0  0  0  0  0  0  0
    0.3923   -0.5110   29.9376 N   0  0  0  0  0  0  0  0  0  0  0  0
    0.6576   -1.5492   29.1308 N   0  0  0  0  0  0  0  0  0  0  0  0
    1.5075   -1.2402   28.0964 C   0  0  0  0  0  0  0  0  0  0  0  0
    5.7521   -0.5429   17.5143 C   0  0  0  0  0  0  0  0  0  0  0  0
    6.2978   -0.7587   16.1656 C   0  0  0  0  0  0  0  0  0  0  0  0
    7.6487   -0.4393   15.9294 C   0  0  0  0  0  0  0  0  0  0  0  0
    8.5843   -0.6020   14.9355 N   0  0  0  0  0  0  0  0  0  0  0  0
   10.8401    0.4783   13.6248 H   0  0  0  0  0  0  0  0  0  0  0  0
   11.7981    0.5293   15.1131 H   0  0  0  0  0  0  0  0  0  0  0  0
   11.3804   -1.0341   14.3934 H   0  0  0  0  0  0  0  0  0  0  0  0
    8.2266   -0.2882   18.9452 H   0  0  0  0  0  0  0  0  0  0  0  0
    4.4412    0.9182   21.2027 H   0  0  0  0  0  0  0  0  0  0  0  0
    5.4814   -0.0087   24.4790 H   0  0  0  0  0  0  0  0  0  0  0  0
    4.6097   -1.0193   23.7626 H   0  0  0  0  0  0  0  0  0  0  0  0
    2.5808    1.0276   24.1857 H   0  0  0  0  0  0  0  0  0  0  0  0
    3.8793    3.1774   25.5180 H   0  0  0  0  0  0  0  0  0  0  0  0
    3.3247    3.1170   23.7963 H   0  0  0  0  0  0  0  0  0  0  0  0
    2.2177    2.8627   25.1000 H   0  0  0  0  0  0  0  0  0  0  0  0
    2.9979   -0.5485   26.1189 H   0  0  0  0  0  0  0  0  0  0  0  0
    1.0013    1.4841   29.7903 H   0  0  0  0  0  0  0  0  0  0  0  0
    0.2162   -2.4415   29.3286 H   0  0  0  0  0  0  0  0  0  0  0  0
    1.7531   -1.9903   27.3576 H   0  0  0  0  0  0  0  0  0  0  0  0
    4.7674   -1.0071   17.6437 H   0  0  0  0  0  0  0  0  0  0  0  0
    5.6950   -1.2515   15.4023 H   0  0  0  0  0  0  0  0  0  0  0  0
    8.4422   -0.9989   14.0097 H   0  0  0  0  0  0  0  0  0  0  0  0
  1  2  1  0
  2  3  2  0
  3  4  1  0
  4  5  2  0
  5  6  1  0
  6  7  1  0
  7  8  2  0
  7  9  1  0
  9 10  1  0
 10 11  1  0
 11 12  1  0
 11 13  1  0
 13 14  1  0
 14 15  2  0
 14 16  1  0
 16 17  1  0
 17 18  2  0
 18 19  1  0
 19 20  1  0
  6 21  2  0
 21 22  1  0
 22 23  2  0
 23 24  1  0
 24  2  1  0
 23  4  1  0
 20 16  2  0
  1 25  1  0
  1 26  1  0
  1 27  1  0
  5 28  1  0
  9 29  1  0
 10 30  1  0
 10 31  1  0
 11 32  1  0
 12 33  1  0
 12 34  1  0
 12 35  1  0
 13 36  1  0
 17 37  1  0
 19 38  1  0
 20 39  1  0
 21 40  1  0
 22 41  1  0
 24 42  1  0
M  END
>  <Energy>  (166) 
380.92629386242658

>  <compound_id>  (166) 
10997

>  <target_id>  (166) 
1

>  <reference_id>  (166) 
7

>  <inspiration_ids>  (166) 
[55, 7]

>  <energy_score>  (166) 
364.76057459294896

>  <distance_score>  (166) 
10.41878109827898

>  <path>  (166) 
/opt/xchem-fragalysis-2/maxwin/BulkDock/SCRATCH/511013/C10997-P7/C10997-P7.minimised.mol

>  <scratch_subdir>  (166) 
/opt/xchem-fragalysis-2/maxwin/BulkDock/SCRATCH/511013/C10997-P7

>  <fragmenstein_runtime>  (166) 
18.02878713607788

>  <fragmenstein_outcome>  (166) 
too moved

>  <fragmenstein_mode>  (166) 
expansion

>  <fragmenstein_error>  (166) 


$$$$
C10998-P55
     RDKit          3D

 42 44  0  0  0  0  0  0  0  0999 V2000
    3.3499   -2.7920   23.3715 C   0  0  0  0  0  0  0  0  0  0  0  0
    4.9104   -2.0708   22.9370 C   0  0  0  0  0  0  0  0  0  0  0  0
    5.2870   -3.1998   21.2498 C   0  0  0  0  0  0  0  0  0  0  0  0
    5.7601   -3.3302   19.4816 N   0  0  0  0  0  0  0  0  0  0  0  0
    6.7986   -4.7583   18.3998 C   0  0  0  0  0  0  0  0  0  0  0  0
    7.0827   -5.8051   18.9753 O   0  0  0  0  0  0  0  0  0  0  0  0
    7.7286   -4.5470   16.3081 C   0  0  0  0  0  0  0  0  0  0  0  0
    7.2318   -3.0813   15.4967 C   0  0  0  0  0  0  0  0  0  0  0  0
    7.7704   -1.7574   15.0563 C   0  0  0  0  0  0  0  0  0  0  0  0
    9.1225   -1.5168   15.2214 C   0  0  0  0  0  0  0  0  0  0  0  0
    9.8711   -2.6677   15.1352 C   0  0  0  0  0  0  0  0  0  0  0  0
    9.0854   -3.9451   15.2665 C   0  0  0  0  0  0  0  0  0  0  0  0
   11.2132   -2.4213   15.0123 N   0  0  0  0  0  0  0  0  0  0  0  0
   11.2941   -1.1109   15.0328 C   0  0  0  0  0  0  0  0  0  0  0  0
   10.0547   -0.5252   15.1368 N   0  0  0  0  0  0  0  0  0  0  0  0
    9.8678    0.8931   15.2398 C   0  0  0  0  0  0  0  0  0  0  0  0
    4.5219   -1.5999   24.5680 N   0  0  0  0  0  0  0  0  0  0  0  0
    5.3335   -1.5339   25.7703 C   0  0  0  0  0  0  0  0  0  0  0  0
    6.5130   -1.7138   25.9346 O   0  0  0  0  0  0  0  0  0  0  0  0
    4.4062   -1.2813   26.9556 C   0  0  0  0  0  0  0  0  0  0  0  0
    3.0544   -1.7186   27.1774 C   0  0  0  0  0  0  0  0  0  0  0  0
    2.5122   -1.3169   28.3362 N   0  0  0  0  0  0  0  0  0  0  0  0
    3.5275   -0.6645   28.9169 N   0  0  0  0  0  0  0  0  0  0  0  0
    4.6613   -0.6189   28.1468 C   0  0  0  0  0  0  0  0  0  0  0  0
    2.7838   -3.3679   22.6358 H   0  0  0  0  0  0  0  0  0  0  0  0
    3.4256   -3.2960   24.3467 H   0  0  0  0  0  0  0  0  0  0  0  0
    2.6517   -2.0395   23.6039 H   0  0  0  0  0  0  0  0  0  0  0  0
    4.6933   -1.1706   22.3798 H   0  0  0  0  0  0  0  0  0  0  0  0
    6.3070   -3.2036   21.5473 H   0  0  0  0  0  0  0  0  0  0  0  0
    5.6727   -2.2140   21.0985 H   0  0  0  0  0  0  0  0  0  0  0  0
    5.6675   -2.4786   18.9143 H   0  0  0  0  0  0  0  0  0  0  0  0
    6.1831   -3.1393   15.1133 H   0  0  0  0  0  0  0  0  0  0  0  0
    7.1374   -1.1604   14.4305 H   0  0  0  0  0  0  0  0  0  0  0  0
    9.9205   -4.5234   14.8429 H   0  0  0  0  0  0  0  0  0  0  0  0
   12.2090   -0.5376   14.9616 H   0  0  0  0  0  0  0  0  0  0  0  0
    8.8862    1.1057   15.6649 H   0  0  0  0  0  0  0  0  0  0  0  0
   10.6317    1.3030   15.9067 H   0  0  0  0  0  0  0  0  0  0  0  0
    9.9873    1.3248   14.2447 H   0  0  0  0  0  0  0  0  0  0  0  0
    3.5802   -1.3054   24.7895 H   0  0  0  0  0  0  0  0  0  0  0  0
    2.4629   -2.3399   26.5259 H   0  0  0  0  0  0  0  0  0  0  0  0
    3.3886   -0.2787   29.8444 H   0  0  0  0  0  0  0  0  0  0  0  0
    5.5585   -0.1332   28.5021 H   0  0  0  0  0  0  0  0  0  0  0  0
  1  2  1  0
  2  3  1  0
  3  4  1  0
  4  5  1  0
  5  6  2  0
  5  7  1  0
  7  8  2  0
  8  9  1  0
  9 10  2  0
 10 11  1  0
 11 12  2  0
 11 13  1  0
 13 14  2  0
 14 15  1  0
 15 16  1  0
  2 17  1  0
 17 18  1  0
 18 19  2  0
 18 20  1  0
 20 21  1  0
 21 22  2  0
 22 23  1  0
 23 24  1  0
 12  7  1  0
 24 20  2  0
 15 10  1  0
  1 25  1  0
  1 26  1  0
  1 27  1  0
  2 28  1  0
  3 29  1  0
  3 30  1  0
  4 31  1  0
  8 32  1  0
  9 33  1  0
 12 34  1  0
 14 35  1  0
 16 36  1  0
 16 37  1  0
 16 38  1  0
 17 39  1  0
 21 40  1  0
 23 41  1  0
 24 42  1  0
M  END
>  <Energy>  (167) 
1021.2936203606505

>  <compound_id>  (167) 
10998

>  <target_id>  (167) 
1

>  <reference_id>  (167) 
55

>  <inspiration_ids>  (167) 
[55, 7]

>  <energy_score>  (167) 
995.7367464036987

>  <distance_score>  (167) 
12.2633099166926

>  <path>  (167) 
/opt/xchem-fragalysis-2/maxwin/BulkDock/SCRATCH/511013/C10998-P55/C10998-P55.minimised.mol

>  <scratch_subdir>  (167) 
/opt/xchem-fragalysis-2/maxwin/BulkDock/SCRATCH/511013/C10998-P55

>  <fragmenstein_runtime>  (167) 
14.454136371612549

>  <fragmenstein_outcome>  (167) 
too moved

>  <fragmenstein_mode>  (167) 
expansion

>  <fragmenstein_error>  (167) 


$$$$
C10998-P7
     RDKit          3D

 42 44  0  0  0  0  0  0  0  0999 V2000
    6.7616   -1.3941   20.8897 C   0  0  0  0  0  0  0  0  0  0  0  0
    5.8026   -2.9272   21.7283 C   0  0  0  0  0  0  0  0  0  0  0  0
    7.4710   -4.1756   22.3821 C   0  0  0  0  0  0  0  0  0  0  0  0
    8.7558   -5.2824   21.4687 N   0  0  0  0  0  0  0  0  0  0  0  0
    8.8715   -7.1120   21.2722 C   0  0  0  0  0  0  0  0  0  0  0  0
    8.1297   -7.9126   21.8173 O   0  0  0  0  0  0  0  0  0  0  0  0
   10.1028   -8.0695   20.0057 C   0  0  0  0  0  0  0  0  0  0  0  0
    9.5757   -6.2874   19.6506 C   0  0  0  0  0  0  0  0  0  0  0  0
   10.6090   -5.4081   18.2740 C   0  0  0  0  0  0  0  0  0  0  0  0
   11.3501   -5.9829   16.5862 C   0  0  0  0  0  0  0  0  0  0  0  0
   12.1602   -7.6733   17.1072 C   0  0  0  0  0  0  0  0  0  0  0  0
   11.3808   -8.9607   18.6849 C   0  0  0  0  0  0  0  0  0  0  0  0
   13.2529   -6.1670   17.8216 N   0  0  0  0  0  0  0  0  0  0  0  0
   13.3481   -4.9807   17.2223 C   0  0  0  0  0  0  0  0  0  0  0  0
   12.3539   -4.8851   16.3195 N   0  0  0  0  0  0  0  0  0  0  0  0
   11.9265   -3.6031   15.7776 C   0  0  0  0  0  0  0  0  0  0  0  0
    4.8680   -1.9357   23.1246 N   0  0  0  0  0  0  0  0  0  0  0  0
    4.2016   -2.4203   24.4774 C   0  0  0  0  0  0  0  0  0  0  0  0
    4.1206   -3.5227   24.9474 O   0  0  0  0  0  0  0  0  0  0  0  0
    3.6386   -1.3901   25.4703 C   0  0  0  0  0  0  0  0  0  0  0  0
    3.5529    0.0056   25.6599 C   0  0  0  0  0  0  0  0  0  0  0  0
    2.9219    0.4197   26.7788 N   0  0  0  0  0  0  0  0  0  0  0  0
    2.5842   -0.7337   27.3659 N   0  0  0  0  0  0  0  0  0  0  0  0
    3.0137   -1.8110   26.6645 C   0  0  0  0  0  0  0  0  0  0  0  0
    6.2050   -0.4718   21.1340 H   0  0  0  0  0  0  0  0  0  0  0  0
    7.8279   -1.3617   21.0557 H   0  0  0  0  0  0  0  0  0  0  0  0
    6.9940   -1.1089   19.8311 H   0  0  0  0  0  0  0  0  0  0  0  0
    5.2466   -3.1957   20.8187 H   0  0  0  0  0  0  0  0  0  0  0  0
    7.8929   -3.6226   21.5391 H   0  0  0  0  0  0  0  0  0  0  0  0
    7.8123   -4.0488   23.4053 H   0  0  0  0  0  0  0  0  0  0  0  0
    9.5391   -4.8384   20.9811 H   0  0  0  0  0  0  0  0  0  0  0  0
    8.4520   -6.2899   19.7480 H   0  0  0  0  0  0  0  0  0  0  0  0
   11.5717   -5.0583   18.8184 H   0  0  0  0  0  0  0  0  0  0  0  0
   11.4433  -10.0881   18.5874 H   0  0  0  0  0  0  0  0  0  0  0  0
   14.0470   -4.1946   17.4692 H   0  0  0  0  0  0  0  0  0  0  0  0
   11.0471   -3.7448   15.1470 H   0  0  0  0  0  0  0  0  0  0  0  0
   11.7022   -2.9299   16.6058 H   0  0  0  0  0  0  0  0  0  0  0  0
   12.7432   -3.1859   15.1860 H   0  0  0  0  0  0  0  0  0  0  0  0
    4.6792   -0.9538   22.9925 H   0  0  0  0  0  0  0  0  0  0  0  0
    3.8805    0.7588   24.9760 H   0  0  0  0  0  0  0  0  0  0  0  0
    2.0840   -0.7129   28.2470 H   0  0  0  0  0  0  0  0  0  0  0  0
    2.8269   -2.8076   27.0272 H   0  0  0  0  0  0  0  0  0  0  0  0
  1  2  1  0
  2  3  1  0
  3  4  1  0
  4  5  1  0
  5  6  2  0
  5  7  1  0
  7  8  2  0
  8  9  1  0
  9 10  2  0
 10 11  1  0
 11 12  2  0
 11 13  1  0
 13 14  2  0
 14 15  1  0
 15 16  1  0
  2 17  1  0
 17 18  1  0
 18 19  2  0
 18 20  1  0
 20 21  1  0
 21 22  2  0
 22 23  1  0
 23 24  1  0
 12  7  1  0
 24 20  2  0
 15 10  1  0
  1 25  1  0
  1 26  1  0
  1 27  1  0
  2 28  1  0
  3 29  1  0
  3 30  1  0
  4 31  1  0
  8 32  1  0
  9 33  1  0
 12 34  1  0
 14 35  1  0
 16 36  1  0
 16 37  1  0
 16 38  1  0
 17 39  1  0
 21 40  1  0
 23 41  1  0
 24 42  1  0
M  END
>  <Energy>  (168) 
1581.3621923809637

>  <compound_id>  (168) 
10998

>  <target_id>  (168) 
1

>  <reference_id>  (168) 
7

>  <inspiration_ids>  (168) 
[55, 7]

>  <energy_score>  (168) 
1555.805318424052

>  <distance_score>  (168) 
12.836782276263566

>  <path>  (168) 
/opt/xchem-fragalysis-2/maxwin/BulkDock/SCRATCH/511013/C10998-P7/C10998-P7.minimised.mol

>  <scratch_subdir>  (168) 
/opt/xchem-fragalysis-2/maxwin/BulkDock/SCRATCH/511013/C10998-P7

>  <fragmenstein_runtime>  (168) 
10.76836633682251

>  <fragmenstein_outcome>  (168) 
too moved

>  <fragmenstein_mode>  (168) 
expansion

>  <fragmenstein_error>  (168) 


$$$$
C10999-P55
     RDKit          3D

 45 48  0  0  0  0  0  0  0  0999 V2000
    6.0595    0.0177   17.1856 C   0  0  0  0  0  0  0  0  0  0  0  0
    6.6987   -0.3774   18.5019 C   0  0  0  0  0  0  0  0  0  0  0  0
    6.9649    0.1293   19.8532 C   0  0  0  0  0  0  0  0  0  0  0  0
    5.8645   -0.3278   21.3474 N   0  0  0  0  0  0  0  0  0  0  0  0
    4.6376    0.4884   22.2517 C   0  0  0  0  0  0  0  0  0  0  0  0
    4.2601    0.0900   24.3159 C   0  0  0  0  0  0  0  0  0  0  0  0
    3.7236   -1.1859   24.7828 N   0  0  0  0  0  0  0  0  0  0  0  0
    3.5793   -1.5486   26.2215 C   0  0  0  0  0  0  0  0  0  0  0  0
    2.6626   -0.7478   27.3471 C   0  0  0  0  0  0  0  0  0  0  0  0
    1.1964   -1.2633   27.6925 C   0  0  0  0  0  0  0  0  0  0  0  0
    0.4241   -0.9280   28.9784 C   0  0  0  0  0  0  0  0  0  0  0  0
   -0.6216    0.0328   29.1523 C   0  0  0  0  0  0  0  0  0  0  0  0
   -1.2645   -0.0738   30.3231 N   0  0  0  0  0  0  0  0  0  0  0  0
   -0.6243   -1.0827   30.9334 N   0  0  0  0  0  0  0  0  0  0  0  0
    0.3701   -1.6322   30.1699 C   0  0  0  0  0  0  0  0  0  0  0  0
    4.2288   -2.0844   23.7457 C   0  0  0  0  0  0  0  0  0  0  0  0
    5.3862   -1.8311   22.2481 C   0  0  0  0  0  0  0  0  0  0  0  0
    7.3121    1.4966   18.7795 C   0  0  0  0  0  0  0  0  0  0  0  0
    8.5713    1.5761   17.7765 N   0  0  0  0  0  0  0  0  0  0  0  0
    8.5435    2.6878   17.0722 C   0  0  0  0  0  0  0  0  0  0  0  0
    7.3343    3.2680   17.3282 N   0  0  0  0  0  0  0  0  0  0  0  0
    6.6089    2.1488   17.7240 C   0  0  0  0  0  0  0  0  0  0  0  0
    5.8935    1.3744   16.8705 C   0  0  0  0  0  0  0  0  0  0  0  0
    5.5001   -0.7235   16.6255 H   0  0  0  0  0  0  0  0  0  0  0  0
    7.7636   -0.3485   18.1099 H   0  0  0  0  0  0  0  0  0  0  0  0
    5.4954    1.0438   22.1147 H   0  0  0  0  0  0  0  0  0  0  0  0
    3.7946    0.8787   21.6820 H   0  0  0  0  0  0  0  0  0  0  0  0
    4.9797    0.3067   25.1214 H   0  0  0  0  0  0  0  0  0  0  0  0
    3.4161    0.7721   24.6305 H   0  0  0  0  0  0  0  0  0  0  0  0
    3.2413   -2.5884   26.2712 H   0  0  0  0  0  0  0  0  0  0  0  0
    4.5956   -1.5450   26.6370 H   0  0  0  0  0  0  0  0  0  0  0  0
    2.6260    0.3134   27.0757 H   0  0  0  0  0  0  0  0  0  0  0  0
    3.2361   -0.8017   28.2820 H   0  0  0  0  0  0  0  0  0  0  0  0
    1.2025   -2.3561   27.6037 H   0  0  0  0  0  0  0  0  0  0  0  0
    0.5521   -0.8663   26.9173 H   0  0  0  0  0  0  0  0  0  0  0  0
   -0.9579    0.7773   28.4408 H   0  0  0  0  0  0  0  0  0  0  0  0
   -0.9215   -1.3554   31.8643 H   0  0  0  0  0  0  0  0  0  0  0  0
    0.9273   -2.4899   30.5190 H   0  0  0  0  0  0  0  0  0  0  0  0
    3.3783   -2.6868   23.4237 H   0  0  0  0  0  0  0  0  0  0  0  0
    4.8283   -2.6724   24.4382 H   0  0  0  0  0  0  0  0  0  0  0  0
    5.9571   -1.9421   23.1294 H   0  0  0  0  0  0  0  0  0  0  0  0
    5.5826   -2.6633   21.5681 H   0  0  0  0  0  0  0  0  0  0  0  0
    9.2981    3.0776   16.4026 H   0  0  0  0  0  0  0  0  0  0  0  0
    6.9670    3.9929   16.7327 H   0  0  0  0  0  0  0  0  0  0  0  0
    5.1966    1.7924   16.1499 H   0  0  0  0  0  0  0  0  0  0  0  0
  1  2  2  0
  2  3  1  0
  3  4  1  0
  4  5  1  0
  5  6  1  0
  6  7  1  0
  7  8  1  0
  8  9  1  0
  9 10  1  0
 10 11  1  0
 11 12  1  0
 12 13  2  0
 13 14  1  0
 14 15  1  0
  7 16  1  0
 16 17  1  0
  3 18  2  0
 18 19  1  0
 19 20  2  0
 20 21  1  0
 21 22  1  0
 22 23  2  0
 23  1  1  0
 17  4  1  0
 22 18  1  0
 15 11  2  0
  1 24  1  0
  2 25  1  0
  5 26  1  0
  5 27  1  0
  6 28  1  0
  6 29  1  0
  8 30  1  0
  8 31  1  0
  9 32  1  0
  9 33  1  0
 10 34  1  0
 10 35  1  0
 12 36  1  0
 14 37  1  0
 15 38  1  0
 16 39  1  0
 16 40  1  0
 17 41  1  0
 17 42  1  0
 20 43  1  0
 21 44  1  0
 23 45  1  0
M  END
>  <Energy>  (169) 
830.74916717153769

>  <compound_id>  (169) 
10999

>  <target_id>  (169) 
1

>  <reference_id>  (169) 
55

>  <inspiration_ids>  (169) 
[55, 7]

>  <energy_score>  (169) 
658.7558839745751

>  <distance_score>  (169) 
10.326489141802783

>  <path>  (169) 
/opt/xchem-fragalysis-2/maxwin/BulkDock/SCRATCH/511013/C10999-P55/C10999-P55.minimised.mol

>  <scratch_subdir>  (169) 
/opt/xchem-fragalysis-2/maxwin/BulkDock/SCRATCH/511013/C10999-P55

>  <fragmenstein_runtime>  (169) 
9.126629114151001

>  <fragmenstein_outcome>  (169) 
too moved

>  <fragmenstein_mode>  (169) 
expansion

>  <fragmenstein_error>  (169) 


$$$$
C10999-P7
     RDKit          3D

 45 48  0  0  0  0  0  0  0  0999 V2000
    6.3211   -1.3026   16.7214 C   0  0  0  0  0  0  0  0  0  0  0  0
    5.4359   -1.9863   18.2871 C   0  0  0  0  0  0  0  0  0  0  0  0
    5.6694   -3.4741   19.5971 C   0  0  0  0  0  0  0  0  0  0  0  0
    5.1230   -3.0832   21.4582 N   0  0  0  0  0  0  0  0  0  0  0  0
    3.4867   -3.0676   22.8071 C   0  0  0  0  0  0  0  0  0  0  0  0
    3.3361   -2.0533   24.2993 C   0  0  0  0  0  0  0  0  0  0  0  0
    4.0939   -2.3732   25.4540 N   0  0  0  0  0  0  0  0  0  0  0  0
    3.6246   -1.5978   26.6867 C   0  0  0  0  0  0  0  0  0  0  0  0
    2.4312   -2.2073   27.5863 C   0  0  0  0  0  0  0  0  0  0  0  0
    1.5018   -1.1786   28.3632 C   0  0  0  0  0  0  0  0  0  0  0  0
    0.2912   -1.7107   29.1346 C   0  0  0  0  0  0  0  0  0  0  0  0
   -1.0884   -1.4899   28.8570 C   0  0  0  0  0  0  0  0  0  0  0  0
   -1.9143   -2.0537   29.7472 N   0  0  0  0  0  0  0  0  0  0  0  0
   -1.0755   -2.5842   30.6515 N   0  0  0  0  0  0  0  0  0  0  0  0
    0.2422   -2.4132   30.3256 C   0  0  0  0  0  0  0  0  0  0  0  0
    5.2610   -1.7752   24.7124 C   0  0  0  0  0  0  0  0  0  0  0  0
    5.3460   -1.9174   22.7936 C   0  0  0  0  0  0  0  0  0  0  0  0
    7.1127   -4.5603   18.5722 C   0  0  0  0  0  0  0  0  0  0  0  0
    8.7866   -4.8535   19.6970 N   0  0  0  0  0  0  0  0  0  0  0  0
   10.2496   -5.2364   18.6898 C   0  0  0  0  0  0  0  0  0  0  0  0
   10.0744   -4.3465   16.9713 N   0  0  0  0  0  0  0  0  0  0  0  0
    7.9955   -4.3249   16.6301 C   0  0  0  0  0  0  0  0  0  0  0  0
    7.4473   -2.5996   15.9208 C   0  0  0  0  0  0  0  0  0  0  0  0
    5.8721   -0.5229   16.1115 H   0  0  0  0  0  0  0  0  0  0  0  0
    4.3610   -1.7233   18.1123 H   0  0  0  0  0  0  0  0  0  0  0  0
    2.5330   -3.4313   22.3722 H   0  0  0  0  0  0  0  0  0  0  0  0
    3.5090   -3.5876   23.7392 H   0  0  0  0  0  0  0  0  0  0  0  0
    3.6132   -1.0325   24.4025 H   0  0  0  0  0  0  0  0  0  0  0  0
    2.3964   -1.6683   24.5014 H   0  0  0  0  0  0  0  0  0  0  0  0
    4.4922   -1.5176   27.3539 H   0  0  0  0  0  0  0  0  0  0  0  0
    3.3539   -0.5681   26.4191 H   0  0  0  0  0  0  0  0  0  0  0  0
    1.7943   -2.8381   26.9755 H   0  0  0  0  0  0  0  0  0  0  0  0
    2.8840   -2.8804   28.3246 H   0  0  0  0  0  0  0  0  0  0  0  0
    1.1379   -0.4453   27.6327 H   0  0  0  0  0  0  0  0  0  0  0  0
    2.1334   -0.6244   29.0691 H   0  0  0  0  0  0  0  0  0  0  0  0
   -1.5109   -0.9359   28.0287 H   0  0  0  0  0  0  0  0  0  0  0  0
   -1.4630   -3.0539   31.4634 H   0  0  0  0  0  0  0  0  0  0  0  0
    1.0271   -2.7906   30.9661 H   0  0  0  0  0  0  0  0  0  0  0  0
    6.1688   -1.9915   25.2682 H   0  0  0  0  0  0  0  0  0  0  0  0
    5.2552   -0.6820   24.8731 H   0  0  0  0  0  0  0  0  0  0  0  0
    5.8730   -2.6331   23.3464 H   0  0  0  0  0  0  0  0  0  0  0  0
    4.6686   -1.1474   22.5779 H   0  0  0  0  0  0  0  0  0  0  0  0
   11.3321   -5.1908   18.9904 H   0  0  0  0  0  0  0  0  0  0  0  0
   10.5906   -4.7663   16.2079 H   0  0  0  0  0  0  0  0  0  0  0  0
    7.9453   -2.3524   14.9737 H   0  0  0  0  0  0  0  0  0  0  0  0
  1  2  2  0
  2  3  1  0
  3  4  1  0
  4  5  1  0
  5  6  1  0
  6  7  1  0
  7  8  1  0
  8  9  1  0
  9 10  1  0
 10 11  1  0
 11 12  1  0
 12 13  2  0
 13 14  1  0
 14 15  1  0
  7 16  1  0
 16 17  1  0
  3 18  2  0
 18 19  1  0
 19 20  2  0
 20 21  1  0
 21 22  1  0
 22 23  2  0
 23  1  1  0
 17  4  1  0
 22 18  1  0
 15 11  2  0
  1 24  1  0
  2 25  1  0
  5 26  1  0
  5 27  1  0
  6 28  1  0
  6 29  1  0
  8 30  1  0
  8 31  1  0
  9 32  1  0
  9 33  1  0
 10 34  1  0
 10 35  1  0
 12 36  1  0
 14 37  1  0
 15 38  1  0
 16 39  1  0
 16 40  1  0
 17 41  1  0
 17 42  1  0
 20 43  1  0
 21 44  1  0
 23 45  1  0
M  END
>  <Energy>  (170) 
2016.9919999961346

>  <compound_id>  (170) 
10999

>  <target_id>  (170) 
1

>  <reference_id>  (170) 
7

>  <inspiration_ids>  (170) 
[55, 7]

>  <energy_score>  (170) 
1844.998716799194

>  <distance_score>  (170) 
10.3057944711689

>  <path>  (170) 
/opt/xchem-fragalysis-2/maxwin/BulkDock/SCRATCH/511013/C10999-P7/C10999-P7.minimised.mol

>  <scratch_subdir>  (170) 
/opt/xchem-fragalysis-2/maxwin/BulkDock/SCRATCH/511013/C10999-P7

>  <fragmenstein_runtime>  (170) 
7.993162393569946

>  <fragmenstein_outcome>  (170) 
too moved

>  <fragmenstein_mode>  (170) 
expansion

>  <fragmenstein_error>  (170) 


$$$$
C11003-P55
     RDKit          3D

 38 40  0  0  0  0  0  0  0  0999 V2000
    9.8897   -1.1957   26.5891 C   0  0  0  0  0  0  0  0  0  0  0  0
   10.1671   -0.0618   25.6935 C   0  0  0  0  0  0  0  0  0  0  0  0
   11.1109   -0.0895   24.7804 N   0  0  0  0  0  0  0  0  0  0  0  0
   11.0108    1.0756   24.0936 C   0  0  0  0  0  0  0  0  0  0  0  0
   11.7794    1.5087   23.0025 C   0  0  0  0  0  0  0  0  0  0  0  0
   11.5066    2.7526   22.4454 C   0  0  0  0  0  0  0  0  0  0  0  0
   10.4745    3.5347   22.9610 C   0  0  0  0  0  0  0  0  0  0  0  0
    9.7013    3.1184   24.0597 C   0  0  0  0  0  0  0  0  0  0  0  0
    9.9908    1.8707   24.6236 C   0  0  0  0  0  0  0  0  0  0  0  0
    9.4742    1.1367   25.6943 N   0  0  0  0  0  0  0  0  0  0  0  0
    8.6112    1.6235   26.7897 C   0  0  0  0  0  0  0  0  0  0  0  0
    7.2326    0.9351   27.1113 C   0  0  0  0  0  0  0  0  0  0  0  0
    6.6175    1.3961   28.4590 C   0  0  0  0  0  0  0  0  0  0  0  0
    5.2178    1.0303   28.7534 N   0  0  0  0  0  0  0  0  0  0  0  0
    4.1925    1.7276   29.5058 C   0  0  0  0  0  0  0  0  0  0  0  0
    4.1993    2.8119   30.0102 O   0  0  0  0  0  0  0  0  0  0  0  0
    2.9269    0.9535   29.7487 C   0  0  0  0  0  0  0  0  0  0  0  0
    1.8203    1.4058   30.5540 C   0  0  0  0  0  0  0  0  0  0  0  0
    0.8070    0.5352   30.6355 N   0  0  0  0  0  0  0  0  0  0  0  0
    1.2302   -0.4870   29.8802 N   0  0  0  0  0  0  0  0  0  0  0  0
    2.4769   -0.2885   29.3339 C   0  0  0  0  0  0  0  0  0  0  0  0
   10.6878   -1.9428   26.5255 H   0  0  0  0  0  0  0  0  0  0  0  0
    9.8218   -0.8763   27.6331 H   0  0  0  0  0  0  0  0  0  0  0  0
    8.9538   -1.6881   26.3089 H   0  0  0  0  0  0  0  0  0  0  0  0
   12.5739    0.8765   22.6209 H   0  0  0  0  0  0  0  0  0  0  0  0
   12.1036    3.1127   21.6109 H   0  0  0  0  0  0  0  0  0  0  0  0
   10.2766    4.5069   22.5135 H   0  0  0  0  0  0  0  0  0  0  0  0
    8.9156    3.7548   24.4517 H   0  0  0  0  0  0  0  0  0  0  0  0
    8.4297    2.6871   26.5977 H   0  0  0  0  0  0  0  0  0  0  0  0
    9.2450    1.5741   27.6848 H   0  0  0  0  0  0  0  0  0  0  0  0
    6.5103    1.1856   26.3373 H   0  0  0  0  0  0  0  0  0  0  0  0
    7.3317   -0.1541   27.1159 H   0  0  0  0  0  0  0  0  0  0  0  0
    6.6701    2.4885   28.5314 H   0  0  0  0  0  0  0  0  0  0  0  0
    7.2159    0.9941   29.2842 H   0  0  0  0  0  0  0  0  0  0  0  0
    4.8963    0.0921   28.5478 H   0  0  0  0  0  0  0  0  0  0  0  0
    1.7457    2.3505   31.0803 H   0  0  0  0  0  0  0  0  0  0  0  0
    0.6225   -1.2924   29.7719 H   0  0  0  0  0  0  0  0  0  0  0  0
    2.9135   -1.0469   28.6996 H   0  0  0  0  0  0  0  0  0  0  0  0
  1  2  1  0
  2  3  2  0
  3  4  1  0
  4  5  2  0
  5  6  1  0
  6  7  2  0
  7  8  1  0
  8  9  2  0
  9 10  1  0
 10 11  1  0
 11 12  1  0
 12 13  1  0
 13 14  1  0
 14 15  1  0
 15 16  2  0
 15 17  1  0
 17 18  1  0
 18 19  2  0
 19 20  1  0
 20 21  1  0
 10  2  1  0
 21 17  2  0
  9  4  1  0
  1 22  1  0
  1 23  1  0
  1 24  1  0
  5 25  1  0
  6 26  1  0
  7 27  1  0
  8 28  1  0
 11 29  1  0
 11 30  1  0
 12 31  1  0
 12 32  1  0
 13 33  1  0
 13 34  1  0
 14 35  1  0
 18 36  1  0
 20 37  1  0
 21 38  1  0
M  END
>  <Energy>  (171) 
15.699612150456986

>  <compound_id>  (171) 
11003

>  <target_id>  (171) 
1

>  <reference_id>  (171) 
55

>  <inspiration_ids>  (171) 
[55, 7]

>  <energy_score>  (171) 
-2.943545557930875

>  <distance_score>  (171) 
12.438569063164872

>  <path>  (171) 
/opt/xchem-fragalysis-2/maxwin/BulkDock/SCRATCH/511013/C11003-P55/C11003-P55.minimised.mol

>  <scratch_subdir>  (171) 
/opt/xchem-fragalysis-2/maxwin/BulkDock/SCRATCH/511013/C11003-P55

>  <fragmenstein_runtime>  (171) 
8.449865818023682

>  <fragmenstein_outcome>  (171) 
too moved

>  <fragmenstein_mode>  (171) 
expansion

>  <fragmenstein_error>  (171) 


$$$$
C11003-P7
     RDKit          3D

 38 40  0  0  0  0  0  0  0  0999 V2000
   10.1895    3.2647   24.1500 C   0  0  0  0  0  0  0  0  0  0  0  0
   11.0121    2.0498   23.9656 C   0  0  0  0  0  0  0  0  0  0  0  0
   11.7764    1.8975   22.9052 N   0  0  0  0  0  0  0  0  0  0  0  0
   12.5676    0.8226   23.1656 C   0  0  0  0  0  0  0  0  0  0  0  0
   13.6483    0.3290   22.4108 C   0  0  0  0  0  0  0  0  0  0  0  0
   14.2965   -0.8292   22.8448 C   0  0  0  0  0  0  0  0  0  0  0  0
   13.8784   -1.4689   24.0135 C   0  0  0  0  0  0  0  0  0  0  0  0
   12.8249   -0.9635   24.7988 C   0  0  0  0  0  0  0  0  0  0  0  0
   12.1813    0.2017   24.3564 C   0  0  0  0  0  0  0  0  0  0  0  0
   11.1708    1.0094   24.8810 N   0  0  0  0  0  0  0  0  0  0  0  0
   10.7180    1.0032   26.2865 C   0  0  0  0  0  0  0  0  0  0  0  0
    9.4113    0.2478   26.7528 C   0  0  0  0  0  0  0  0  0  0  0  0
    8.3439    1.1975   27.3773 C   0  0  0  0  0  0  0  0  0  0  0  0
    7.0530    0.6705   27.8713 N   0  0  0  0  0  0  0  0  0  0  0  0
    5.6957    1.1710   27.7108 C   0  0  0  0  0  0  0  0  0  0  0  0
    5.2760    2.0920   27.0706 O   0  0  0  0  0  0  0  0  0  0  0  0
    4.6417    0.4928   28.5632 C   0  0  0  0  0  0  0  0  0  0  0  0
    4.6541   -0.5115   29.5706 C   0  0  0  0  0  0  0  0  0  0  0  0
    3.4563   -0.7582   30.1278 N   0  0  0  0  0  0  0  0  0  0  0  0
    2.6305    0.0633   29.4653 N   0  0  0  0  0  0  0  0  0  0  0  0
    3.2830    0.8332   28.5474 C   0  0  0  0  0  0  0  0  0  0  0  0
   10.8395    4.1407   24.2438 H   0  0  0  0  0  0  0  0  0  0  0  0
    9.5651    3.2221   25.0433 H   0  0  0  0  0  0  0  0  0  0  0  0
    9.5430    3.4205   23.2819 H   0  0  0  0  0  0  0  0  0  0  0  0
   13.9430    0.8297   21.4966 H   0  0  0  0  0  0  0  0  0  0  0  0
   15.1102   -1.2448   22.2582 H   0  0  0  0  0  0  0  0  0  0  0  0
   14.3792   -2.3828   24.3252 H   0  0  0  0  0  0  0  0  0  0  0  0
   12.5265   -1.4705   25.7089 H   0  0  0  0  0  0  0  0  0  0  0  0
   10.6749    2.0521   26.6021 H   0  0  0  0  0  0  0  0  0  0  0  0
   11.5566    0.5761   26.8525 H   0  0  0  0  0  0  0  0  0  0  0  0
    9.0008   -0.3750   25.9595 H   0  0  0  0  0  0  0  0  0  0  0  0
    9.7024   -0.4582   27.5422 H   0  0  0  0  0  0  0  0  0  0  0  0
    8.7946    1.6927   28.2458 H   0  0  0  0  0  0  0  0  0  0  0  0
    8.1024    1.9902   26.6654 H   0  0  0  0  0  0  0  0  0  0  0  0
    7.0510   -0.0754   28.5535 H   0  0  0  0  0  0  0  0  0  0  0  0
    5.5022   -1.0734   29.9385 H   0  0  0  0  0  0  0  0  0  0  0  0
    1.6417    0.0523   29.6933 H   0  0  0  0  0  0  0  0  0  0  0  0
    2.7519    1.5600   27.9482 H   0  0  0  0  0  0  0  0  0  0  0  0
  1  2  1  0
  2  3  2  0
  3  4  1  0
  4  5  2  0
  5  6  1  0
  6  7  2  0
  7  8  1  0
  8  9  2  0
  9 10  1  0
 10 11  1  0
 11 12  1  0
 12 13  1  0
 13 14  1  0
 14 15  1  0
 15 16  2  0
 15 17  1  0
 17 18  1  0
 18 19  2  0
 19 20  1  0
 20 21  1  0
 10  2  1  0
 21 17  2  0
  9  4  1  0
  1 22  1  0
  1 23  1  0
  1 24  1  0
  5 25  1  0
  6 26  1  0
  7 27  1  0
  8 28  1  0
 11 29  1  0
 11 30  1  0
 12 31  1  0
 12 32  1  0
 13 33  1  0
 13 34  1  0
 14 35  1  0
 18 36  1  0
 20 37  1  0
 21 38  1  0
M  END
>  <Energy>  (172) 
24.734350540595681

>  <compound_id>  (172) 
11003

>  <target_id>  (172) 
1

>  <reference_id>  (172) 
7

>  <inspiration_ids>  (172) 
[55, 7]

>  <energy_score>  (172) 
6.091192832207639

>  <distance_score>  (172) 
12.682129005399966

>  <path>  (172) 
/opt/xchem-fragalysis-2/maxwin/BulkDock/SCRATCH/511013/C11003-P7/C11003-P7.minimised.mol

>  <scratch_subdir>  (172) 
/opt/xchem-fragalysis-2/maxwin/BulkDock/SCRATCH/511013/C11003-P7

>  <fragmenstein_runtime>  (172) 
7.287235736846924

>  <fragmenstein_outcome>  (172) 
too moved

>  <fragmenstein_mode>  (172) 
expansion

>  <fragmenstein_error>  (172) 


$$$$
C11004-P55
     RDKit          3D

 45 47  0  0  0  0  0  0  0  0999 V2000
    3.0029    2.0533   27.0279 C   0  0  0  0  0  0  0  0  0  0  0  0
    3.6133    0.8417   27.7156 C   0  0  0  0  0  0  0  0  0  0  0  0
    4.1169   -0.2493   26.7386 C   0  0  0  0  0  0  0  0  0  0  0  0
    3.0835   -1.2274   26.2099 N   0  0  0  0  0  0  0  0  0  0  0  0
    4.3730   -1.7139   25.2728 C   0  0  0  0  0  0  0  0  0  0  0  0
    4.4421   -1.9768   23.5928 C   0  0  0  0  0  0  0  0  0  0  0  0
    5.4354   -1.6954   22.0423 N   0  0  0  0  0  0  0  0  0  0  0  0
    5.9205   -0.2449   21.2372 C   0  0  0  0  0  0  0  0  0  0  0  0
    5.6924    0.7941   21.7181 O   0  0  0  0  0  0  0  0  0  0  0  0
    6.8398   -0.1375   19.4135 C   0  0  0  0  0  0  0  0  0  0  0  0
    6.0736   -0.4841   18.0264 C   0  0  0  0  0  0  0  0  0  0  0  0
    5.7007    0.2480   16.8310 C   0  0  0  0  0  0  0  0  0  0  0  0
    5.9504    1.6547   16.8378 C   0  0  0  0  0  0  0  0  0  0  0  0
    7.0451    1.8801   17.6133 C   0  0  0  0  0  0  0  0  0  0  0  0
    8.2224    2.4202   17.0793 N   0  0  0  0  0  0  0  0  0  0  0  0
    8.9723    1.3128   16.7657 C   0  0  0  0  0  0  0  0  0  0  0  0
    8.5627    0.2945   17.4952 N   0  0  0  0  0  0  0  0  0  0  0  0
    7.4421    0.7890   18.4120 C   0  0  0  0  0  0  0  0  0  0  0  0
    2.4063   -1.9025   27.3282 C   0  0  0  0  0  0  0  0  0  0  0  0
    2.6763   -2.9300   27.8961 O   0  0  0  0  0  0  0  0  0  0  0  0
    1.0883   -1.3389   27.8445 C   0  0  0  0  0  0  0  0  0  0  0  0
    0.1935   -2.0645   28.7208 C   0  0  0  0  0  0  0  0  0  0  0  0
   -0.9309   -1.4131   29.0484 N   0  0  0  0  0  0  0  0  0  0  0  0
   -0.7644   -0.2303   28.4416 N   0  0  0  0  0  0  0  0  0  0  0  0
    0.3947   -0.1485   27.7083 C   0  0  0  0  0  0  0  0  0  0  0  0
    2.4247    2.6430   27.7464 H   0  0  0  0  0  0  0  0  0  0  0  0
    2.3502    1.7767   26.1981 H   0  0  0  0  0  0  0  0  0  0  0  0
    3.7878    2.7075   26.6373 H   0  0  0  0  0  0  0  0  0  0  0  0
    4.4811    1.2069   28.2817 H   0  0  0  0  0  0  0  0  0  0  0  0
    2.9356    0.4389   28.4687 H   0  0  0  0  0  0  0  0  0  0  0  0
    4.8403   -0.8094   27.3558 H   0  0  0  0  0  0  0  0  0  0  0  0
    4.5917    0.3240   25.9376 H   0  0  0  0  0  0  0  0  0  0  0  0
    4.1827   -2.7519   25.5326 H   0  0  0  0  0  0  0  0  0  0  0  0
    5.3660   -1.4264   25.6261 H   0  0  0  0  0  0  0  0  0  0  0  0
    4.3146   -0.9699   23.7651 H   0  0  0  0  0  0  0  0  0  0  0  0
    3.5020   -2.4734   23.3474 H   0  0  0  0  0  0  0  0  0  0  0  0
    5.6435   -2.4841   21.4322 H   0  0  0  0  0  0  0  0  0  0  0  0
    5.4015   -1.3478   18.0001 H   0  0  0  0  0  0  0  0  0  0  0  0
    4.9661   -0.2032   16.1586 H   0  0  0  0  0  0  0  0  0  0  0  0
    5.5400    2.3602   16.1255 H   0  0  0  0  0  0  0  0  0  0  0  0
    8.2495    3.2561   16.5163 H   0  0  0  0  0  0  0  0  0  0  0  0
    9.7737    1.3201   16.0384 H   0  0  0  0  0  0  0  0  0  0  0  0
    0.3494   -3.0659   29.1049 H   0  0  0  0  0  0  0  0  0  0  0  0
   -1.4785    0.4821   28.5573 H   0  0  0  0  0  0  0  0  0  0  0  0
    0.6115    0.7547   27.1651 H   0  0  0  0  0  0  0  0  0  0  0  0
  1  2  1  0
  2  3  1  0
  3  4  1  0
  4  5  1  0
  5  6  1  0
  6  7  1  0
  7  8  1  0
  8  9  2  0
  8 10  1  0
 10 11  2  0
 11 12  1  0
 12 13  2  0
 13 14  1  0
 14 15  1  0
 15 16  1  0
 16 17  2  0
 17 18  1  0
  4 19  1  0
 19 20  2  0
 19 21  1  0
 21 22  1  0
 22 23  2  0
 23 24  1  0
 24 25  1  0
 18 10  1  0
 25 21  2  0
 18 14  2  0
  1 26  1  0
  1 27  1  0
  1 28  1  0
  2 29  1  0
  2 30  1  0
  3 31  1  0
  3 32  1  0
  5 33  1  0
  5 34  1  0
  6 35  1  0
  6 36  1  0
  7 37  1  0
 11 38  1  0
 12 39  1  0
 13 40  1  0
 15 41  1  0
 16 42  1  0
 22 43  1  0
 24 44  1  0
 25 45  1  0
M  END
>  <Energy>  (173) 
552.16108994355318

>  <compound_id>  (173) 
11004

>  <target_id>  (173) 
1

>  <reference_id>  (173) 
55

>  <inspiration_ids>  (173) 
[55, 7]

>  <energy_score>  (173) 
483.3897892550826

>  <distance_score>  (173) 
10.94052851518571

>  <path>  (173) 
/opt/xchem-fragalysis-2/maxwin/BulkDock/SCRATCH/511013/C11004-P55/C11004-P55.minimised.mol

>  <scratch_subdir>  (173) 
/opt/xchem-fragalysis-2/maxwin/BulkDock/SCRATCH/511013/C11004-P55

>  <fragmenstein_runtime>  (173) 
8.394199132919312

>  <fragmenstein_outcome>  (173) 
too moved

>  <fragmenstein_mode>  (173) 
expansion

>  <fragmenstein_error>  (173) 


$$$$
C11004-P7
     RDKit          3D

 45 47  0  0  0  0  0  0  0  0999 V2000
   -0.8521    8.0698   27.8866 C   0  0  0  0  0  0  0  0  0  0  0  0
   -1.1858    6.6298   28.2868 C   0  0  0  0  0  0  0  0  0  0  0  0
   -2.8615    6.4564   28.3253 C   0  0  0  0  0  0  0  0  0  0  0  0
   -4.2235    5.1467   28.4811 N   0  0  0  0  0  0  0  0  0  0  0  0
   -2.6837    4.3658   28.3091 C   0  0  0  0  0  0  0  0  0  0  0  0
   -2.4887    3.9695   26.6956 C   0  0  0  0  0  0  0  0  0  0  0  0
   -1.3222    4.2057   25.7951 N   0  0  0  0  0  0  0  0  0  0  0  0
   -0.0653    3.4808   25.6483 C   0  0  0  0  0  0  0  0  0  0  0  0
    0.3821    2.5604   26.2716 O   0  0  0  0  0  0  0  0  0  0  0  0
    0.7745    3.8962   24.4314 C   0  0  0  0  0  0  0  0  0  0  0  0
    0.1957    3.6498   23.1570 C   0  0  0  0  0  0  0  0  0  0  0  0
    0.9201    3.7413   21.9559 C   0  0  0  0  0  0  0  0  0  0  0  0
    2.2555    4.1215   21.9478 C   0  0  0  0  0  0  0  0  0  0  0  0
    2.8240    4.3939   23.1887 C   0  0  0  0  0  0  0  0  0  0  0  0
    4.0765    4.8618   23.4993 N   0  0  0  0  0  0  0  0  0  0  0  0
    4.1797    4.8922   24.8559 C   0  0  0  0  0  0  0  0  0  0  0  0
    3.0575    4.5235   25.4349 N   0  0  0  0  0  0  0  0  0  0  0  0
    2.1583    4.2459   24.4198 C   0  0  0  0  0  0  0  0  0  0  0  0
   -5.6656    4.9401   29.9496 C   0  0  0  0  0  0  0  0  0  0  0  0
   -5.5819    4.2780   31.0099 O   0  0  0  0  0  0  0  0  0  0  0  0
   -7.3188    5.5449   29.8228 C   0  0  0  0  0  0  0  0  0  0  0  0
   -8.4088    4.8395   29.2052 C   0  0  0  0  0  0  0  0  0  0  0  0
   -9.6110    5.2736   29.6026 N   0  0  0  0  0  0  0  0  0  0  0  0
   -9.3206    6.1469   30.5747 N   0  0  0  0  0  0  0  0  0  0  0  0
   -7.9987    6.1570   30.8905 C   0  0  0  0  0  0  0  0  0  0  0  0
   -1.2210    8.7765   28.6363 H   0  0  0  0  0  0  0  0  0  0  0  0
   -1.2997    8.3222   26.9203 H   0  0  0  0  0  0  0  0  0  0  0  0
    0.2318    8.1968   27.8027 H   0  0  0  0  0  0  0  0  0  0  0  0
   -0.7349    5.9777   27.5316 H   0  0  0  0  0  0  0  0  0  0  0  0
   -0.6466    6.4309   29.2196 H   0  0  0  0  0  0  0  0  0  0  0  0
   -3.2274    7.4238   28.6762 H   0  0  0  0  0  0  0  0  0  0  0  0
   -2.7111    6.3662   27.2367 H   0  0  0  0  0  0  0  0  0  0  0  0
   -2.9020    3.3231   28.5561 H   0  0  0  0  0  0  0  0  0  0  0  0
   -1.7197    4.5806   28.7609 H   0  0  0  0  0  0  0  0  0  0  0  0
   -3.3396    4.3736   26.1430 H   0  0  0  0  0  0  0  0  0  0  0  0
   -2.6075    2.8771   26.6501 H   0  0  0  0  0  0  0  0  0  0  0  0
   -1.3344    4.9844   25.1439 H   0  0  0  0  0  0  0  0  0  0  0  0
   -0.8420    3.3240   23.1034 H   0  0  0  0  0  0  0  0  0  0  0  0
    0.4309    3.5071   21.0119 H   0  0  0  0  0  0  0  0  0  0  0  0
    2.8122    4.2089   21.0211 H   0  0  0  0  0  0  0  0  0  0  0  0
    4.7964    5.0988   22.8314 H   0  0  0  0  0  0  0  0  0  0  0  0
    5.0846    5.1913   25.3681 H   0  0  0  0  0  0  0  0  0  0  0  0
   -8.3479    4.0395   28.4775 H   0  0  0  0  0  0  0  0  0  0  0  0
  -10.0886    6.6157   31.0457 H   0  0  0  0  0  0  0  0  0  0  0  0
   -7.6439    6.6294   31.7933 H   0  0  0  0  0  0  0  0  0  0  0  0
  1  2  1  0
  2  3  1  0
  3  4  1  0
  4  5  1  0
  5  6  1  0
  6  7  1  0
  7  8  1  0
  8  9  2  0
  8 10  1  0
 10 11  2  0
 11 12  1  0
 12 13  2  0
 13 14  1  0
 14 15  1  0
 15 16  1  0
 16 17  2  0
 17 18  1  0
  4 19  1  0
 19 20  2  0
 19 21  1  0
 21 22  1  0
 22 23  2  0
 23 24  1  0
 24 25  1  0
 18 10  1  0
 25 21  2  0
 18 14  2  0
  1 26  1  0
  1 27  1  0
  1 28  1  0
  2 29  1  0
  2 30  1  0
  3 31  1  0
  3 32  1  0
  5 33  1  0
  5 34  1  0
  6 35  1  0
  6 36  1  0
  7 37  1  0
 11 38  1  0
 12 39  1  0
 13 40  1  0
 15 41  1  0
 16 42  1  0
 22 43  1  0
 24 44  1  0
 25 45  1  0
M  END
>  <Energy>  (174) 
496.96790551204674

>  <compound_id>  (174) 
11004

>  <target_id>  (174) 
1

>  <reference_id>  (174) 
7

>  <inspiration_ids>  (174) 
[55, 7]

>  <energy_score>  (174) 
428.19660482357244

>  <distance_score>  (174) 
12.656741153361205

>  <path>  (174) 
/opt/xchem-fragalysis-2/maxwin/BulkDock/SCRATCH/511013/C11004-P7/C11004-P7.minimised.mol

>  <scratch_subdir>  (174) 
/opt/xchem-fragalysis-2/maxwin/BulkDock/SCRATCH/511013/C11004-P7

>  <fragmenstein_runtime>  (174) 
16.936474323272705

>  <fragmenstein_outcome>  (174) 
too moved

>  <fragmenstein_mode>  (174) 
expansion

>  <fragmenstein_error>  (174) 


$$$$
C6639-P55
     RDKit          3D

 43 46  0  0  0  0  0  0  0  0999 V2000
    2.2917   -2.5731   27.3829 C   0  0  0  0  0  0  0  0  0  0  0  0
    2.4140   -1.1775   26.9747 N   0  0  0  0  0  0  0  0  0  0  0  0
    3.8610   -1.0030   26.4700 C   0  0  0  0  0  0  0  0  0  0  0  0
    4.2794   -1.0200   24.9804 C   0  0  0  0  0  0  0  0  0  0  0  0
    4.6521   -1.9432   23.9832 C   0  0  0  0  0  0  0  0  0  0  0  0
    5.3124   -1.7063   22.3516 C   0  0  0  0  0  0  0  0  0  0  0  0
    5.6007   -0.3721   21.5306 C   0  0  0  0  0  0  0  0  0  0  0  0
    6.8326   -0.0834   20.1529 N   0  0  0  0  0  0  0  0  0  0  0  0
    7.5003    1.1962   20.1886 C   0  0  0  0  0  0  0  0  0  0  0  0
    7.4605    1.8570   18.9962 N   0  0  0  0  0  0  0  0  0  0  0  0
    7.4958    0.9725   18.0280 C   0  0  0  0  0  0  0  0  0  0  0  0
    8.2235    0.9427   16.8320 C   0  0  0  0  0  0  0  0  0  0  0  0
    7.9757   -0.1249   16.0106 C   0  0  0  0  0  0  0  0  0  0  0  0
    6.7332   -0.7200   16.2089 C   0  0  0  0  0  0  0  0  0  0  0  0
    5.9887   -0.5802   17.4287 C   0  0  0  0  0  0  0  0  0  0  0  0
    6.7358   -0.0650   18.5116 C   0  0  0  0  0  0  0  0  0  0  0  0
    4.6553    0.4831   22.3169 C   0  0  0  0  0  0  0  0  0  0  0  0
    4.2639    0.1201   24.2221 C   0  0  0  0  0  0  0  0  0  0  0  0
    1.9777   -0.2969   28.1305 C   0  0  0  0  0  0  0  0  0  0  0  0
    0.5767   -0.5353   28.7464 C   0  0  0  0  0  0  0  0  0  0  0  0
   -0.6058    0.2554   28.6080 C   0  0  0  0  0  0  0  0  0  0  0  0
   -1.6197   -0.1395   29.3916 N   0  0  0  0  0  0  0  0  0  0  0  0
   -1.1328   -1.2359   29.9878 N   0  0  0  0  0  0  0  0  0  0  0  0
    0.1810   -1.4716   29.6930 C   0  0  0  0  0  0  0  0  0  0  0  0
    1.2551   -2.8639   27.5697 H   0  0  0  0  0  0  0  0  0  0  0  0
    2.6460   -3.1993   26.5734 H   0  0  0  0  0  0  0  0  0  0  0  0
    2.8833   -2.8022   28.2769 H   0  0  0  0  0  0  0  0  0  0  0  0
    4.1798   -0.0157   26.8351 H   0  0  0  0  0  0  0  0  0  0  0  0
    4.5266   -1.6973   27.0009 H   0  0  0  0  0  0  0  0  0  0  0  0
    4.4006   -2.9162   24.3910 H   0  0  0  0  0  0  0  0  0  0  0  0
    5.5711   -2.5886   21.7462 H   0  0  0  0  0  0  0  0  0  0  0  0
    7.6859    1.6911   21.1362 H   0  0  0  0  0  0  0  0  0  0  0  0
    8.9608    1.7008   16.5983 H   0  0  0  0  0  0  0  0  0  0  0  0
    8.5261   -0.2820   15.0849 H   0  0  0  0  0  0  0  0  0  0  0  0
    6.3220   -1.3155   15.3894 H   0  0  0  0  0  0  0  0  0  0  0  0
    5.0309   -1.0735   17.5525 H   0  0  0  0  0  0  0  0  0  0  0  0
    3.8418    1.0509   21.8537 H   0  0  0  0  0  0  0  0  0  0  0  0
    3.4617    0.7925   24.6477 H   0  0  0  0  0  0  0  0  0  0  0  0
    2.7149   -0.3825   28.9399 H   0  0  0  0  0  0  0  0  0  0  0  0
    2.0087    0.7409   27.7762 H   0  0  0  0  0  0  0  0  0  0  0  0
   -0.7433    1.1272   27.9802 H   0  0  0  0  0  0  0  0  0  0  0  0
   -1.7423   -1.7634   30.6021 H   0  0  0  0  0  0  0  0  0  0  0  0
    0.7180   -2.2840   30.1600 H   0  0  0  0  0  0  0  0  0  0  0  0
  1  2  1  0
  2  3  1  0
  3  4  1  0
  4  5  2  0
  5  6  1  0
  6  7  2  0
  7  8  1  0
  8  9  1  0
  9 10  2  0
 10 11  1  0
 11 12  2  0
 12 13  1  0
 13 14  2  0
 14 15  1  0
 15 16  2  0
  7 17  1  0
 17 18  2  0
  2 19  1  0
 19 20  1  0
 20 21  1  0
 21 22  2  0
 22 23  1  0
 23 24  1  0
 18  4  1  0
 24 20  2  0
 16  8  1  0
 16 11  1  0
  1 25  1  0
  1 26  1  0
  1 27  1  0
  3 28  1  0
  3 29  1  0
  5 30  1  0
  6 31  1  0
  9 32  1  0
 12 33  1  0
 13 34  1  0
 14 35  1  0
 15 36  1  0
 17 37  1  0
 18 38  1  0
 19 39  1  0
 19 40  1  0
 21 41  1  0
 23 42  1  0
 24 43  1  0
M  END
>  <Energy>  (175) 
457.5656534311654

>  <compound_id>  (175) 
6639

>  <target_id>  (175) 
1

>  <reference_id>  (175) 
55

>  <inspiration_ids>  (175) 
[55, 7]

>  <energy_score>  (175) 
346.1364175627741

>  <distance_score>  (175) 
10.208634064873845

>  <path>  (175) 
/opt/xchem-fragalysis-2/maxwin/BulkDock/SCRATCH/511013/C6639-P55/C6639-P55.minimised.mol

>  <scratch_subdir>  (175) 
/opt/xchem-fragalysis-2/maxwin/BulkDock/SCRATCH/511013/C6639-P55

>  <fragmenstein_runtime>  (175) 
8.80856442451477

>  <fragmenstein_outcome>  (175) 
too moved

>  <fragmenstein_mode>  (175) 
expansion

>  <fragmenstein_error>  (175) 


$$$$
C6639-P7
     RDKit          3D

 43 46  0  0  0  0  0  0  0  0999 V2000
    2.1871    1.3137   29.3549 C   0  0  0  0  0  0  0  0  0  0  0  0
    1.2614    2.4439   29.2483 N   0  0  0  0  0  0  0  0  0  0  0  0
    2.0237    3.7247   28.9777 C   0  0  0  0  0  0  0  0  0  0  0  0
    3.1184    3.8536   27.8772 C   0  0  0  0  0  0  0  0  0  0  0  0
    2.8599    4.2917   26.5641 C   0  0  0  0  0  0  0  0  0  0  0  0
    3.9071    4.6368   25.6340 C   0  0  0  0  0  0  0  0  0  0  0  0
    5.2646    4.5582   25.9789 C   0  0  0  0  0  0  0  0  0  0  0  0
    6.3854    4.8935   25.0751 N   0  0  0  0  0  0  0  0  0  0  0  0
    7.7116    4.9930   25.4926 C   0  0  0  0  0  0  0  0  0  0  0  0
    8.5827    5.1216   24.5195 N   0  0  0  0  0  0  0  0  0  0  0  0
    7.8338    5.2024   23.3883 C   0  0  0  0  0  0  0  0  0  0  0  0
    8.2962    5.3512   22.0663 C   0  0  0  0  0  0  0  0  0  0  0  0
    7.3768    5.4047   21.0221 C   0  0  0  0  0  0  0  0  0  0  0  0
    6.0215    5.2998   21.2990 C   0  0  0  0  0  0  0  0  0  0  0  0
    5.5398    5.1602   22.6153 C   0  0  0  0  0  0  0  0  0  0  0  0
    6.4601    5.1116   23.6775 C   0  0  0  0  0  0  0  0  0  0  0  0
    5.5188    4.0778   27.2836 C   0  0  0  0  0  0  0  0  0  0  0  0
    4.4792    3.7348   28.2008 C   0  0  0  0  0  0  0  0  0  0  0  0
    0.4809    2.5985   30.5445 C   0  0  0  0  0  0  0  0  0  0  0  0
   -0.5506    1.5337   30.8934 C   0  0  0  0  0  0  0  0  0  0  0  0
   -1.0761    1.2590   32.1978 C   0  0  0  0  0  0  0  0  0  0  0  0
   -2.0844    0.3800   32.1960 N   0  0  0  0  0  0  0  0  0  0  0  0
   -2.1254   -0.0212   30.9139 N   0  0  0  0  0  0  0  0  0  0  0  0
   -1.2878    0.6819   30.0948 C   0  0  0  0  0  0  0  0  0  0  0  0
    1.6519    0.3822   29.5662 H   0  0  0  0  0  0  0  0  0  0  0  0
    2.7079    1.1488   28.4056 H   0  0  0  0  0  0  0  0  0  0  0  0
    2.9346    1.4642   30.1419 H   0  0  0  0  0  0  0  0  0  0  0  0
    2.5009    4.0468   29.9148 H   0  0  0  0  0  0  0  0  0  0  0  0
    1.2765    4.4981   28.7534 H   0  0  0  0  0  0  0  0  0  0  0  0
    1.8258    4.4228   26.2439 H   0  0  0  0  0  0  0  0  0  0  0  0
    3.5905    4.9985   24.6623 H   0  0  0  0  0  0  0  0  0  0  0  0
    7.9914    4.9527   26.5350 H   0  0  0  0  0  0  0  0  0  0  0  0
    9.3630    5.4321   21.8783 H   0  0  0  0  0  0  0  0  0  0  0  0
    7.7196    5.5394   20.0001 H   0  0  0  0  0  0  0  0  0  0  0  0
    5.3017    5.3259   20.4818 H   0  0  0  0  0  0  0  0  0  0  0  0
    4.4708    5.0625   22.7650 H   0  0  0  0  0  0  0  0  0  0  0  0
    6.5326    3.9304   27.6486 H   0  0  0  0  0  0  0  0  0  0  0  0
    4.7664    3.4048   29.1988 H   0  0  0  0  0  0  0  0  0  0  0  0
   -0.0525    3.5547   30.4954 H   0  0  0  0  0  0  0  0  0  0  0  0
    1.1895    2.6806   31.3801 H   0  0  0  0  0  0  0  0  0  0  0  0
   -0.7807    1.7114   33.1366 H   0  0  0  0  0  0  0  0  0  0  0  0
   -2.7496   -0.7777   30.6611 H   0  0  0  0  0  0  0  0  0  0  0  0
   -1.2710    0.5109   29.0266 H   0  0  0  0  0  0  0  0  0  0  0  0
  1  2  1  0
  2  3  1  0
  3  4  1  0
  4  5  2  0
  5  6  1  0
  6  7  2  0
  7  8  1  0
  8  9  1  0
  9 10  2  0
 10 11  1  0
 11 12  2  0
 12 13  1  0
 13 14  2  0
 14 15  1  0
 15 16  2  0
  7 17  1  0
 17 18  2  0
  2 19  1  0
 19 20  1  0
 20 21  1  0
 21 22  2  0
 22 23  1  0
 23 24  1  0
 18  4  1  0
 24 20  2  0
 16  8  1  0
 16 11  1  0
  1 25  1  0
  1 26  1  0
  1 27  1  0
  3 28  1  0
  3 29  1  0
  5 30  1  0
  6 31  1  0
  9 32  1  0
 12 33  1  0
 13 34  1  0
 14 35  1  0
 15 36  1  0
 17 37  1  0
 18 38  1  0
 19 39  1  0
 19 40  1  0
 21 41  1  0
 23 42  1  0
 24 43  1  0
M  END
>  <Energy>  (176) 
88.405486613306195

>  <compound_id>  (176) 
6639

>  <target_id>  (176) 
1

>  <reference_id>  (176) 
7

>  <inspiration_ids>  (176) 
[55, 7]

>  <energy_score>  (176) 
-23.023749255084

>  <distance_score>  (176) 
11.821101286450595

>  <path>  (176) 
/opt/xchem-fragalysis-2/maxwin/BulkDock/SCRATCH/511013/C6639-P7/C6639-P7.minimised.mol

>  <scratch_subdir>  (176) 
/opt/xchem-fragalysis-2/maxwin/BulkDock/SCRATCH/511013/C6639-P7

>  <fragmenstein_runtime>  (176) 
9.834953308105469

>  <fragmenstein_outcome>  (176) 
too moved

>  <fragmenstein_mode>  (176) 
expansion

>  <fragmenstein_error>  (176) 


$$$$
C6658-P55
     RDKit          3D

 37 40  0  0  0  0  0  0  0  0999 V2000
    3.3916   -0.6432   29.2357 O   0  0  0  0  0  0  0  0  0  0  0  0
    2.4344   -0.8112   28.1637 S   0  0  0  0  0  0  0  0  0  0  0  0
    1.9922    0.3001   27.3509 O   0  0  0  0  0  0  0  0  0  0  0  0
    2.9819   -2.0884   27.1303 N   0  0  0  0  0  0  0  0  0  0  0  0
    3.8734   -1.9022   25.9591 C   0  0  0  0  0  0  0  0  0  0  0  0
    5.1962   -1.7366   25.7163 C   0  0  0  0  0  0  0  0  0  0  0  0
    5.6989   -1.9805   24.0996 C   0  0  0  0  0  0  0  0  0  0  0  0
    5.5260   -2.2554   22.4382 C   0  0  0  0  0  0  0  0  0  0  0  0
    6.7559   -2.6799   20.9073 N   0  0  0  0  0  0  0  0  0  0  0  0
    7.1668   -1.2380   20.3988 C   0  0  0  0  0  0  0  0  0  0  0  0
    7.8859   -0.8523   19.3989 N   0  0  0  0  0  0  0  0  0  0  0  0
    8.5919   -1.9181   18.9556 C   0  0  0  0  0  0  0  0  0  0  0  0
    9.8147   -2.0926   17.1412 C   0  0  0  0  0  0  0  0  0  0  0  0
   11.6111   -2.6709   17.8660 C   0  0  0  0  0  0  0  0  0  0  0  0
   11.9787   -3.1708   19.7663 C   0  0  0  0  0  0  0  0  0  0  0  0
   10.3747   -3.6723   20.9272 C   0  0  0  0  0  0  0  0  0  0  0  0
    8.5020   -3.3168   20.3347 C   0  0  0  0  0  0  0  0  0  0  0  0
    4.0206   -2.4944   23.2405 C   0  0  0  0  0  0  0  0  0  0  0  0
    3.4515   -2.4570   24.7691 C   0  0  0  0  0  0  0  0  0  0  0  0
    0.9569   -1.2739   29.0134 C   0  0  0  0  0  0  0  0  0  0  0  0
   -0.3626   -0.8757   28.6949 C   0  0  0  0  0  0  0  0  0  0  0  0
   -1.2757   -1.3550   29.5538 N   0  0  0  0  0  0  0  0  0  0  0  0
   -0.5323   -1.9973   30.4730 N   0  0  0  0  0  0  0  0  0  0  0  0
    0.8056   -2.0010   30.1797 C   0  0  0  0  0  0  0  0  0  0  0  0
    2.1069   -2.4616   26.7500 H   0  0  0  0  0  0  0  0  0  0  0  0
    5.9607   -1.6420   26.4794 H   0  0  0  0  0  0  0  0  0  0  0  0
    4.8589   -1.1259   24.1652 H   0  0  0  0  0  0  0  0  0  0  0  0
    6.5052   -0.5331   20.8615 H   0  0  0  0  0  0  0  0  0  0  0  0
    9.7871   -1.2864   16.3684 H   0  0  0  0  0  0  0  0  0  0  0  0
   12.4746   -2.5531   17.2043 H   0  0  0  0  0  0  0  0  0  0  0  0
   12.9477   -3.6104   20.0122 H   0  0  0  0  0  0  0  0  0  0  0  0
   10.3328   -2.8521   20.3482 H   0  0  0  0  0  0  0  0  0  0  0  0
    3.1710   -3.0829   22.8077 H   0  0  0  0  0  0  0  0  0  0  0  0
    2.8546   -3.3345   24.9495 H   0  0  0  0  0  0  0  0  0  0  0  0
   -0.6901   -0.2541   27.8705 H   0  0  0  0  0  0  0  0  0  0  0  0
   -1.0023   -2.4132   31.2715 H   0  0  0  0  0  0  0  0  0  0  0  0
    1.5288   -2.4752   30.8287 H   0  0  0  0  0  0  0  0  0  0  0  0
  1  2  2  0
  2  3  2  0
  2  4  1  0
  4  5  1  0
  5  6  2  0
  6  7  1  0
  7  8  2  0
  8  9  1  0
  9 10  1  0
 10 11  2  0
 11 12  1  0
 12 13  2  0
 13 14  1  0
 14 15  2  0
 15 16  1  0
 16 17  2  0
  8 18  1  0
 18 19  2  0
  2 20  1  0
 20 21  1  0
 21 22  2  0
 22 23  1  0
 23 24  1  0
 19  5  1  0
 24 20  2  0
 17  9  1  0
 17 12  1  0
  4 25  1  0
  6 26  1  0
  7 27  1  0
 10 28  1  0
 13 29  1  0
 14 30  1  0
 15 31  1  0
 16 32  1  0
 18 33  1  0
 19 34  1  0
 21 35  1  0
 23 36  1  0
 24 37  1  0
M  END
>  <Energy>  (177) 
1592.7400769964406

>  <compound_id>  (177) 
6658

>  <target_id>  (177) 
1

>  <reference_id>  (177) 
55

>  <inspiration_ids>  (177) 
[55, 7]

>  <energy_score>  (177) 
1521.688235413493

>  <distance_score>  (177) 
10.118583589346787

>  <path>  (177) 
/opt/xchem-fragalysis-2/maxwin/BulkDock/SCRATCH/511013/C6658-P55/C6658-P55.minimised.mol

>  <scratch_subdir>  (177) 
/opt/xchem-fragalysis-2/maxwin/BulkDock/SCRATCH/511013/C6658-P55

>  <fragmenstein_runtime>  (177) 
5.6033618450164795

>  <fragmenstein_outcome>  (177) 
too moved

>  <fragmenstein_mode>  (177) 
expansion

>  <fragmenstein_error>  (177) 


$$$$
C6658-P7
     RDKit          3D

 37 40  0  0  0  0  0  0  0  0999 V2000
    0.0379   -5.2215   28.9601 O   0  0  0  0  0  0  0  0  0  0  0  0
   -0.9574   -6.1554   28.4870 S   0  0  0  0  0  0  0  0  0  0  0  0
   -1.6601   -5.9347   27.2359 O   0  0  0  0  0  0  0  0  0  0  0  0
   -0.2072   -7.7325   28.3846 N   0  0  0  0  0  0  0  0  0  0  0  0
    0.8293   -7.9916   27.3517 C   0  0  0  0  0  0  0  0  0  0  0  0
    2.1296   -8.4129   27.6997 C   0  0  0  0  0  0  0  0  0  0  0  0
    3.1395   -8.7769   26.7196 C   0  0  0  0  0  0  0  0  0  0  0  0
    2.8611   -8.7800   25.3483 C   0  0  0  0  0  0  0  0  0  0  0  0
    3.8397   -9.0750   24.2719 N   0  0  0  0  0  0  0  0  0  0  0  0
    3.4467   -9.5044   23.0081 C   0  0  0  0  0  0  0  0  0  0  0  0
    4.4029   -9.5195   22.1111 N   0  0  0  0  0  0  0  0  0  0  0  0
    5.5218   -9.1536   22.7917 C   0  0  0  0  0  0  0  0  0  0  0  0
    6.8164   -8.9725   22.2628 C   0  0  0  0  0  0  0  0  0  0  0  0
    7.8746   -8.7399   23.1311 C   0  0  0  0  0  0  0  0  0  0  0  0
    7.6368   -8.7249   24.5019 C   0  0  0  0  0  0  0  0  0  0  0  0
    6.3341   -8.8399   25.0449 C   0  0  0  0  0  0  0  0  0  0  0  0
    5.2519   -9.0146   24.1677 C   0  0  0  0  0  0  0  0  0  0  0  0
    1.5203   -8.4398   25.0212 C   0  0  0  0  0  0  0  0  0  0  0  0
    0.5373   -8.0426   25.9908 C   0  0  0  0  0  0  0  0  0  0  0  0
   -2.2171   -6.0448   29.6878 C   0  0  0  0  0  0  0  0  0  0  0  0
   -3.3114   -5.1479   29.6432 C   0  0  0  0  0  0  0  0  0  0  0  0
   -4.1051   -5.2423   30.7183 N   0  0  0  0  0  0  0  0  0  0  0  0
   -3.4999   -6.1763   31.4742 N   0  0  0  0  0  0  0  0  0  0  0  0
   -2.3664   -6.6925   30.8964 C   0  0  0  0  0  0  0  0  0  0  0  0
   -0.9508   -8.4295   28.3140 H   0  0  0  0  0  0  0  0  0  0  0  0
    2.4053   -8.4459   28.7536 H   0  0  0  0  0  0  0  0  0  0  0  0
    4.1199   -9.0631   27.0905 H   0  0  0  0  0  0  0  0  0  0  0  0
    2.4256   -9.7888   22.7957 H   0  0  0  0  0  0  0  0  0  0  0  0
    6.9752   -9.0600   21.1939 H   0  0  0  0  0  0  0  0  0  0  0  0
    8.8834   -8.6225   22.7454 H   0  0  0  0  0  0  0  0  0  0  0  0
    8.4825   -8.6080   25.1794 H   0  0  0  0  0  0  0  0  0  0  0  0
    6.1944   -8.8072   26.1189 H   0  0  0  0  0  0  0  0  0  0  0  0
    1.1827   -8.4284   23.9863 H   0  0  0  0  0  0  0  0  0  0  0  0
   -0.4607   -7.7920   25.6360 H   0  0  0  0  0  0  0  0  0  0  0  0
   -3.5574   -4.4305   28.8695 H   0  0  0  0  0  0  0  0  0  0  0  0
   -3.9129   -6.4135   32.3723 H   0  0  0  0  0  0  0  0  0  0  0  0
   -1.7702   -7.4389   31.4020 H   0  0  0  0  0  0  0  0  0  0  0  0
  1  2  2  0
  2  3  2  0
  2  4  1  0
  4  5  1  0
  5  6  2  0
  6  7  1  0
  7  8  2  0
  8  9  1  0
  9 10  1  0
 10 11  2  0
 11 12  1  0
 12 13  2  0
 13 14  1  0
 14 15  2  0
 15 16  1  0
 16 17  2  0
  8 18  1  0
 18 19  2  0
  2 20  1  0
 20 21  1  0
 21 22  2  0
 22 23  1  0
 23 24  1  0
 19  5  1  0
 24 20  2  0
 17  9  1  0
 17 12  1  0
  4 25  1  0
  6 26  1  0
  7 27  1  0
 10 28  1  0
 13 29  1  0
 14 30  1  0
 15 31  1  0
 16 32  1  0
 18 33  1  0
 19 34  1  0
 21 35  1  0
 23 36  1  0
 24 37  1  0
M  END
>  <Energy>  (178) 
45.97788062442558

>  <compound_id>  (178) 
6658

>  <target_id>  (178) 
1

>  <reference_id>  (178) 
7

>  <inspiration_ids>  (178) 
[55, 7]

>  <energy_score>  (178) 
-25.07396095853875

>  <distance_score>  (178) 
13.259270167510989

>  <path>  (178) 
/opt/xchem-fragalysis-2/maxwin/BulkDock/SCRATCH/511013/C6658-P7/C6658-P7.minimised.mol

>  <scratch_subdir>  (178) 
/opt/xchem-fragalysis-2/maxwin/BulkDock/SCRATCH/511013/C6658-P7

>  <fragmenstein_runtime>  (178) 
7.005432844161987

>  <fragmenstein_outcome>  (178) 
too moved

>  <fragmenstein_mode>  (178) 
expansion

>  <fragmenstein_error>  (178) 


$$$$
C11007-P55
     RDKit          3D

 39 42  0  0  0  0  0  0  0  0999 V2000
    7.3973   -1.8134   26.3071 O   0  0  0  0  0  0  0  0  0  0  0  0
    6.3602   -1.9354   25.6871 C   0  0  0  0  0  0  0  0  0  0  0  0
    6.0266   -2.8128   24.4210 N   0  0  0  0  0  0  0  0  0  0  0  0
    7.0788   -4.0970   23.4911 C   0  0  0  0  0  0  0  0  0  0  0  0
    7.9409   -5.7746   23.0572 C   0  0  0  0  0  0  0  0  0  0  0  0
    8.3458   -5.9856   21.6837 C   0  0  0  0  0  0  0  0  0  0  0  0
    9.7569   -6.1771   21.2725 C   0  0  0  0  0  0  0  0  0  0  0  0
   10.7913   -6.3909   22.1837 C   0  0  0  0  0  0  0  0  0  0  0  0
   12.1332   -5.7408   22.1842 N   0  0  0  0  0  0  0  0  0  0  0  0
   12.8213   -5.5137   23.3790 C   0  0  0  0  0  0  0  0  0  0  0  0
   13.8932   -4.7695   23.2746 N   0  0  0  0  0  0  0  0  0  0  0  0
   13.9715   -4.4602   21.9619 C   0  0  0  0  0  0  0  0  0  0  0  0
   14.9407   -3.6555   21.3252 C   0  0  0  0  0  0  0  0  0  0  0  0
   14.9089   -3.4727   19.9453 C   0  0  0  0  0  0  0  0  0  0  0  0
   13.9222   -4.0942   19.2130 C   0  0  0  0  0  0  0  0  0  0  0  0
   12.9618   -4.8826   19.8604 C   0  0  0  0  0  0  0  0  0  0  0  0
   12.9395   -5.0716   21.2405 C   0  0  0  0  0  0  0  0  0  0  0  0
   10.3138   -6.8815   23.3739 C   0  0  0  0  0  0  0  0  0  0  0  0
    9.0085   -6.4783   23.8164 C   0  0  0  0  0  0  0  0  0  0  0  0
    5.1088   -1.2352   26.2330 C   0  0  0  0  0  0  0  0  0  0  0  0
    4.9477   -0.5617   27.4903 C   0  0  0  0  0  0  0  0  0  0  0  0
    3.6696   -0.3485   27.8522 N   0  0  0  0  0  0  0  0  0  0  0  0
    2.9860   -0.9305   26.8566 N   0  0  0  0  0  0  0  0  0  0  0  0
    3.7862   -1.4154   25.8608 C   0  0  0  0  0  0  0  0  0  0  0  0
    5.0835   -2.6098   24.1150 H   0  0  0  0  0  0  0  0  0  0  0  0
    7.2606   -3.7459   22.5166 H   0  0  0  0  0  0  0  0  0  0  0  0
    7.7380   -3.7393   24.2019 H   0  0  0  0  0  0  0  0  0  0  0  0
    7.7696   -5.6714   20.8299 H   0  0  0  0  0  0  0  0  0  0  0  0
    9.9701   -5.7538   20.3023 H   0  0  0  0  0  0  0  0  0  0  0  0
   12.4712   -5.8744   24.3349 H   0  0  0  0  0  0  0  0  0  0  0  0
   15.7106   -3.1856   21.9288 H   0  0  0  0  0  0  0  0  0  0  0  0
   15.6523   -2.8464   19.4618 H   0  0  0  0  0  0  0  0  0  0  0  0
   13.8653   -3.9506   18.1369 H   0  0  0  0  0  0  0  0  0  0  0  0
   12.1842   -5.2838   19.2667 H   0  0  0  0  0  0  0  0  0  0  0  0
   10.9799   -7.2752   24.1411 H   0  0  0  0  0  0  0  0  0  0  0  0
    9.1209   -6.5215   24.9029 H   0  0  0  0  0  0  0  0  0  0  0  0
    5.7397   -0.2780   28.1721 H   0  0  0  0  0  0  0  0  0  0  0  0
    1.9758   -0.9832   26.9142 H   0  0  0  0  0  0  0  0  0  0  0  0
    3.3489   -1.9308   25.0227 H   0  0  0  0  0  0  0  0  0  0  0  0
  1  2  2  0
  2  3  1  0
  3  4  1  0
  4  5  1  0
  5  6  2  0
  6  7  1  0
  7  8  2  0
  8  9  1  0
  9 10  1  0
 10 11  2  0
 11 12  1  0
 12 13  2  0
 13 14  1  0
 14 15  2  0
 15 16  1  0
 16 17  2  0
  8 18  1  0
 18 19  2  0
  2 20  1  0
 20 21  1  0
 21 22  2  0
 22 23  1  0
 23 24  1  0
 19  5  1  0
 24 20  2  0
 17  9  1  0
 17 12  1  0
  3 25  1  0
  4 26  1  0
  4 27  1  0
  6 28  1  0
  7 29  1  0
 10 30  1  0
 13 31  1  0
 14 32  1  0
 15 33  1  0
 16 34  1  0
 18 35  1  0
 19 36  1  0
 21 37  1  0
 23 38  1  0
 24 39  1  0
M  END
>  <Energy>  (179) 
314.43295023055089

>  <compound_id>  (179) 
11007

>  <target_id>  (179) 
1

>  <reference_id>  (179) 
55

>  <inspiration_ids>  (179) 
[55, 7]

>  <energy_score>  (179) 
234.56708164390523

>  <distance_score>  (179) 
13.340634643630825

>  <path>  (179) 
/opt/xchem-fragalysis-2/maxwin/BulkDock/SCRATCH/511013/C11007-P55/C11007-P55.minimised.mol

>  <scratch_subdir>  (179) 
/opt/xchem-fragalysis-2/maxwin/BulkDock/SCRATCH/511013/C11007-P55

>  <fragmenstein_runtime>  (179) 
7.568889617919922

>  <fragmenstein_outcome>  (179) 
too moved

>  <fragmenstein_mode>  (179) 
expansion

>  <fragmenstein_error>  (179) 


$$$$
C11007-P7
     RDKit          3D

 39 42  0  0  0  0  0  0  0  0999 V2000
    2.2739   -2.8256   28.2113 O   0  0  0  0  0  0  0  0  0  0  0  0
    1.9836   -1.7196   27.8590 C   0  0  0  0  0  0  0  0  0  0  0  0
    2.7516   -0.7272   27.1440 N   0  0  0  0  0  0  0  0  0  0  0  0
    4.1539   -0.7245   26.7113 C   0  0  0  0  0  0  0  0  0  0  0  0
    4.4903   -0.6177   25.2493 C   0  0  0  0  0  0  0  0  0  0  0  0
    4.2805    0.4596   24.4025 C   0  0  0  0  0  0  0  0  0  0  0  0
    4.6137    0.7360   22.6201 C   0  0  0  0  0  0  0  0  0  0  0  0
    5.1289   -0.2418   21.6634 C   0  0  0  0  0  0  0  0  0  0  0  0
    6.6287   -0.0962   20.4772 N   0  0  0  0  0  0  0  0  0  0  0  0
    7.4849   -1.1003   20.2324 C   0  0  0  0  0  0  0  0  0  0  0  0
    8.2330   -0.8972   19.2096 N   0  0  0  0  0  0  0  0  0  0  0  0
    7.7505   -0.1357   18.1744 C   0  0  0  0  0  0  0  0  0  0  0  0
    8.2747    0.0323   16.8271 C   0  0  0  0  0  0  0  0  0  0  0  0
    8.3803    1.2795   16.2747 C   0  0  0  0  0  0  0  0  0  0  0  0
    7.8224    2.3027   16.9660 C   0  0  0  0  0  0  0  0  0  0  0  0
    7.2195    2.0238   18.2109 C   0  0  0  0  0  0  0  0  0  0  0  0
    6.9961    0.6710   18.8673 C   0  0  0  0  0  0  0  0  0  0  0  0
    4.9736   -1.6127   22.8611 C   0  0  0  0  0  0  0  0  0  0  0  0
    4.8954   -1.6647   24.4617 C   0  0  0  0  0  0  0  0  0  0  0  0
    0.6300   -1.2556   28.3144 C   0  0  0  0  0  0  0  0  0  0  0  0
   -0.4183   -2.0985   28.8166 C   0  0  0  0  0  0  0  0  0  0  0  0
   -1.5206   -1.4395   29.1981 N   0  0  0  0  0  0  0  0  0  0  0  0
   -1.1649   -0.1545   29.0359 N   0  0  0  0  0  0  0  0  0  0  0  0
    0.0797    0.0063   28.4754 C   0  0  0  0  0  0  0  0  0  0  0  0
    2.1622    0.0626   26.9444 H   0  0  0  0  0  0  0  0  0  0  0  0
    4.6185    0.1275   27.2216 H   0  0  0  0  0  0  0  0  0  0  0  0
    4.6203   -1.6230   27.1308 H   0  0  0  0  0  0  0  0  0  0  0  0
    3.5891    1.2372   24.7819 H   0  0  0  0  0  0  0  0  0  0  0  0
    3.8056    1.4533   22.3319 H   0  0  0  0  0  0  0  0  0  0  0  0
    7.4827   -2.0274   20.7400 H   0  0  0  0  0  0  0  0  0  0  0  0
    8.8031   -0.7714   16.3127 H   0  0  0  0  0  0  0  0  0  0  0  0
    8.9680    1.4316   15.3795 H   0  0  0  0  0  0  0  0  0  0  0  0
    7.9631    3.3309   16.6415 H   0  0  0  0  0  0  0  0  0  0  0  0
    7.2363    2.9472   18.7805 H   0  0  0  0  0  0  0  0  0  0  0  0
    3.9417   -2.0586   23.0790 H   0  0  0  0  0  0  0  0  0  0  0  0
    4.7149   -2.6368   24.9108 H   0  0  0  0  0  0  0  0  0  0  0  0
   -0.3896   -3.1790   28.8967 H   0  0  0  0  0  0  0  0  0  0  0  0
   -1.8181    0.5674   29.3240 H   0  0  0  0  0  0  0  0  0  0  0  0
    0.4735    0.9956   28.2947 H   0  0  0  0  0  0  0  0  0  0  0  0
  1  2  2  0
  2  3  1  0
  3  4  1  0
  4  5  1  0
  5  6  2  0
  6  7  1  0
  7  8  2  0
  8  9  1  0
  9 10  1  0
 10 11  2  0
 11 12  1  0
 12 13  2  0
 13 14  1  0
 14 15  2  0
 15 16  1  0
 16 17  2  0
  8 18  1  0
 18 19  2  0
  2 20  1  0
 20 21  1  0
 21 22  2  0
 22 23  1  0
 23 24  1  0
 19  5  1  0
 24 20  2  0
 17  9  1  0
 17 12  1  0
  3 25  1  0
  4 26  1  0
  4 27  1  0
  6 28  1  0
  7 29  1  0
 10 30  1  0
 13 31  1  0
 14 32  1  0
 15 33  1  0
 16 34  1  0
 18 35  1  0
 19 36  1  0
 21 37  1  0
 23 38  1  0
 24 39  1  0
M  END
>  <Energy>  (180) 
482.3595353581083

>  <compound_id>  (180) 
11007

>  <target_id>  (180) 
1

>  <reference_id>  (180) 
7

>  <inspiration_ids>  (180) 
[55, 7]

>  <energy_score>  (180) 
402.4936667714606

>  <distance_score>  (180) 
10.488627153731853

>  <path>  (180) 
/opt/xchem-fragalysis-2/maxwin/BulkDock/SCRATCH/511013/C11007-P7/C11007-P7.minimised.mol

>  <scratch_subdir>  (180) 
/opt/xchem-fragalysis-2/maxwin/BulkDock/SCRATCH/511013/C11007-P7

>  <fragmenstein_runtime>  (180) 
9.026042461395264

>  <fragmenstein_outcome>  (180) 
too moved

>  <fragmenstein_mode>  (180) 
expansion

>  <fragmenstein_error>  (180) 


$$$$
C11009-P55
     RDKit          3D

 36 39  0  0  0  0  0  0  0  0999 V2000
    1.4158   -4.2151   27.6652 O   0  0  0  0  0  0  0  0  0  0  0  0
    1.5506   -3.0704   28.0009 C   0  0  0  0  0  0  0  0  0  0  0  0
    2.4436   -2.0356   27.5052 N   0  0  0  0  0  0  0  0  0  0  0  0
    3.3566   -2.0348   26.4159 C   0  0  0  0  0  0  0  0  0  0  0  0
    4.0878   -0.9660   26.1268 C   0  0  0  0  0  0  0  0  0  0  0  0
    4.6487   -0.9121   24.7881 C   0  0  0  0  0  0  0  0  0  0  0  0
    4.8127   -1.7520   23.5003 C   0  0  0  0  0  0  0  0  0  0  0  0
    5.6859   -1.4624   21.8327 N   0  0  0  0  0  0  0  0  0  0  0  0
    5.7256   -0.2747   21.4764 C   0  0  0  0  0  0  0  0  0  0  0  0
    6.8633   -1.4021   20.7772 N   0  0  0  0  0  0  0  0  0  0  0  0
    7.2702   -0.9378   19.5867 C   0  0  0  0  0  0  0  0  0  0  0  0
    6.7851   -0.2794   18.2872 C   0  0  0  0  0  0  0  0  0  0  0  0
    7.1399    0.8984   17.7662 C   0  0  0  0  0  0  0  0  0  0  0  0
    7.3749    1.6661   18.8215 C   0  0  0  0  0  0  0  0  0  0  0  0
    7.4869    1.1163   20.3475 C   0  0  0  0  0  0  0  0  0  0  0  0
    6.7345   -0.3277   20.6045 C   0  0  0  0  0  0  0  0  0  0  0  0
    3.8114   -2.5974   23.9109 C   0  0  0  0  0  0  0  0  0  0  0  0
    3.3475   -2.8763   25.3251 C   0  0  0  0  0  0  0  0  0  0  0  0
    0.5755   -2.5835   29.0344 C   0  0  0  0  0  0  0  0  0  0  0  0
    0.0223   -1.2986   29.2985 C   0  0  0  0  0  0  0  0  0  0  0  0
   -0.9394   -1.3022   30.2329 N   0  0  0  0  0  0  0  0  0  0  0  0
   -0.9991   -2.5852   30.6182 N   0  0  0  0  0  0  0  0  0  0  0  0
   -0.1548   -3.3886   29.9071 C   0  0  0  0  0  0  0  0  0  0  0  0
    2.3434   -1.2116   28.0778 H   0  0  0  0  0  0  0  0  0  0  0  0
    4.1247   -0.0882   26.7602 H   0  0  0  0  0  0  0  0  0  0  0  0
    4.6880    0.1548   24.7080 H   0  0  0  0  0  0  0  0  0  0  0  0
    5.0431    0.5445   21.5506 H   0  0  0  0  0  0  0  0  0  0  0  0
    5.9793   -0.7899   17.7469 H   0  0  0  0  0  0  0  0  0  0  0  0
    6.8978    1.3067   16.8147 H   0  0  0  0  0  0  0  0  0  0  0  0
    7.4174    2.7249   18.5678 H   0  0  0  0  0  0  0  0  0  0  0  0
    7.5670    1.8397   21.1568 H   0  0  0  0  0  0  0  0  0  0  0  0
    3.1636   -3.0741   23.1831 H   0  0  0  0  0  0  0  0  0  0  0  0
    2.7504   -3.7545   25.4432 H   0  0  0  0  0  0  0  0  0  0  0  0
    0.2586   -0.3592   28.8144 H   0  0  0  0  0  0  0  0  0  0  0  0
   -1.6433   -2.8428   31.3603 H   0  0  0  0  0  0  0  0  0  0  0  0
   -0.1280   -4.4577   30.0688 H   0  0  0  0  0  0  0  0  0  0  0  0
  1  2  2  0
  2  3  1  0
  3  4  1  0
  4  5  2  0
  5  6  1  0
  6  7  2  0
  7  8  1  0
  8  9  1  0
  9 10  2  0
 10 11  1  0
 11 12  2  0
 12 13  1  0
 13 14  2  0
 14 15  1  0
 15 16  2  0
  7 17  1  0
 17 18  2  0
  2 19  1  0
 19 20  1  0
 20 21  2  0
 21 22  1  0
 22 23  1  0
 18  4  1  0
 23 19  2  0
 16  8  1  0
 16 11  1  0
  3 24  1  0
  5 25  1  0
  6 26  1  0
  9 27  1  0
 12 28  1  0
 13 29  1  0
 14 30  1  0
 15 31  1  0
 17 32  1  0
 18 33  1  0
 20 34  1  0
 22 35  1  0
 23 36  1  0
M  END
>  <Energy>  (181) 
979.72920700545319

>  <compound_id>  (181) 
11009

>  <target_id>  (181) 
1

>  <reference_id>  (181) 
55

>  <inspiration_ids>  (181) 
[55, 7]

>  <energy_score>  (181) 
879.2512183726045

>  <distance_score>  (181) 
10.876711609875983

>  <path>  (181) 
/opt/xchem-fragalysis-2/maxwin/BulkDock/SCRATCH/511013/C11009-P55/C11009-P55.minimised.mol

>  <scratch_subdir>  (181) 
/opt/xchem-fragalysis-2/maxwin/BulkDock/SCRATCH/511013/C11009-P55

>  <fragmenstein_runtime>  (181) 
7.5793609619140625

>  <fragmenstein_outcome>  (181) 
too moved

>  <fragmenstein_mode>  (181) 
expansion

>  <fragmenstein_error>  (181) 


$$$$
C11009-P7
     RDKit          3D

 36 39  0  0  0  0  0  0  0  0999 V2000
   -1.5933    1.7663   33.5015 O   0  0  0  0  0  0  0  0  0  0  0  0
   -2.0613    0.8814   32.8450 C   0  0  0  0  0  0  0  0  0  0  0  0
   -1.5004    0.1209   31.7516 N   0  0  0  0  0  0  0  0  0  0  0  0
   -0.2744    0.2503   31.0684 C   0  0  0  0  0  0  0  0  0  0  0  0
    0.6404    1.2803   31.2999 C   0  0  0  0  0  0  0  0  0  0  0  0
    1.8587    1.3618   30.5750 C   0  0  0  0  0  0  0  0  0  0  0  0
    2.1895    0.4094   29.5976 C   0  0  0  0  0  0  0  0  0  0  0  0
    3.4447    0.4594   28.8737 N   0  0  0  0  0  0  0  0  0  0  0  0
    4.5849    1.1521   29.2469 C   0  0  0  0  0  0  0  0  0  0  0  0
    5.6533    0.8014   28.5657 N   0  0  0  0  0  0  0  0  0  0  0  0
    5.1846   -0.0738   27.6326 C   0  0  0  0  0  0  0  0  0  0  0  0
    5.8868   -0.7921   26.6768 C   0  0  0  0  0  0  0  0  0  0  0  0
    5.1516   -1.4028   25.6622 C   0  0  0  0  0  0  0  0  0  0  0  0
    3.7832   -1.4817   25.6936 C   0  0  0  0  0  0  0  0  0  0  0  0
    3.0830   -0.9188   26.7425 C   0  0  0  0  0  0  0  0  0  0  0  0
    3.8010   -0.2102   27.7095 C   0  0  0  0  0  0  0  0  0  0  0  0
    1.2767   -0.6386   29.3984 C   0  0  0  0  0  0  0  0  0  0  0  0
    0.0593   -0.7073   30.1094 C   0  0  0  0  0  0  0  0  0  0  0  0
   -3.4477    0.4590   33.1906 C   0  0  0  0  0  0  0  0  0  0  0  0
   -4.1511    0.7910   34.3865 C   0  0  0  0  0  0  0  0  0  0  0  0
   -5.3976    0.3091   34.4300 N   0  0  0  0  0  0  0  0  0  0  0  0
   -5.5348   -0.3021   33.2458 N   0  0  0  0  0  0  0  0  0  0  0  0
   -4.3944   -0.2664   32.4824 C   0  0  0  0  0  0  0  0  0  0  0  0
   -2.1493   -0.6048   31.4885 H   0  0  0  0  0  0  0  0  0  0  0  0
    0.4293    2.0500   32.0401 H   0  0  0  0  0  0  0  0  0  0  0  0
    2.5126    2.2019   30.7966 H   0  0  0  0  0  0  0  0  0  0  0  0
    4.5966    1.8438   30.0769 H   0  0  0  0  0  0  0  0  0  0  0  0
    6.9687   -0.8140   26.6981 H   0  0  0  0  0  0  0  0  0  0  0  0
    5.6297   -1.8968   24.8396 H   0  0  0  0  0  0  0  0  0  0  0  0
    3.2771   -2.0111   24.8965 H   0  0  0  0  0  0  0  0  0  0  0  0
    2.0080   -1.0086   26.7697 H   0  0  0  0  0  0  0  0  0  0  0  0
    1.5019   -1.4707   28.7387 H   0  0  0  0  0  0  0  0  0  0  0  0
   -0.6004   -1.5491   29.9172 H   0  0  0  0  0  0  0  0  0  0  0  0
   -3.7808    1.3701   35.2246 H   0  0  0  0  0  0  0  0  0  0  0  0
   -6.4351   -0.7137   33.0169 H   0  0  0  0  0  0  0  0  0  0  0  0
   -4.3908   -0.7160   31.5011 H   0  0  0  0  0  0  0  0  0  0  0  0
  1  2  2  0
  2  3  1  0
  3  4  1  0
  4  5  2  0
  5  6  1  0
  6  7  2  0
  7  8  1  0
  8  9  1  0
  9 10  2  0
 10 11  1  0
 11 12  2  0
 12 13  1  0
 13 14  2  0
 14 15  1  0
 15 16  2  0
  7 17  1  0
 17 18  2  0
  2 19  1  0
 19 20  1  0
 20 21  2  0
 21 22  1  0
 22 23  1  0
 18  4  1  0
 23 19  2  0
 16  8  1  0
 16 11  1  0
  3 24  1  0
  5 25  1  0
  6 26  1  0
  9 27  1  0
 12 28  1  0
 13 29  1  0
 14 30  1  0
 15 31  1  0
 17 32  1  0
 18 33  1  0
 20 34  1  0
 22 35  1  0
 23 36  1  0
M  END
>  <Energy>  (182) 
62.275862517886779

>  <compound_id>  (182) 
11009

>  <target_id>  (182) 
1

>  <reference_id>  (182) 
7

>  <inspiration_ids>  (182) 
[55, 7]

>  <energy_score>  (182) 
-38.202126114958645

>  <distance_score>  (182) 
12.231082237872018

>  <path>  (182) 
/opt/xchem-fragalysis-2/maxwin/BulkDock/SCRATCH/511013/C11009-P7/C11009-P7.minimised.mol

>  <scratch_subdir>  (182) 
/opt/xchem-fragalysis-2/maxwin/BulkDock/SCRATCH/511013/C11009-P7

>  <fragmenstein_runtime>  (182) 
12.974337816238403

>  <fragmenstein_outcome>  (182) 
too moved

>  <fragmenstein_mode>  (182) 
expansion

>  <fragmenstein_error>  (182) 


$$$$
C11010-P55
     RDKit          3D

 43 46  0  0  0  0  0  0  0  0999 V2000
    3.9125   -0.1094   24.9443 C   0  0  0  0  0  0  0  0  0  0  0  0
    4.5559   -1.5194   23.9727 C   0  0  0  0  0  0  0  0  0  0  0  0
    5.3992   -1.6123   22.2149 N   0  0  0  0  0  0  0  0  0  0  0  0
    6.6905   -1.1004   20.8534 C   0  0  0  0  0  0  0  0  0  0  0  0
    6.8762   -0.0951   19.1844 C   0  0  0  0  0  0  0  0  0  0  0  0
    7.2379    1.2366   18.9510 C   0  0  0  0  0  0  0  0  0  0  0  0
    7.6646    1.8587   17.7247 C   0  0  0  0  0  0  0  0  0  0  0  0
    8.0132    0.9841   16.7516 C   0  0  0  0  0  0  0  0  0  0  0  0
    9.2170    1.1498   15.9975 N   0  0  0  0  0  0  0  0  0  0  0  0
    9.9272    2.3311   15.8794 C   0  0  0  0  0  0  0  0  0  0  0  0
   11.1548    2.1615   15.4496 N   0  0  0  0  0  0  0  0  0  0  0  0
   11.2796    0.8135   15.2730 C   0  0  0  0  0  0  0  0  0  0  0  0
   12.4215    0.0796   14.9089 C   0  0  0  0  0  0  0  0  0  0  0  0
   12.3401   -1.3112   14.8107 C   0  0  0  0  0  0  0  0  0  0  0  0
   11.1292   -1.9547   15.0306 C   0  0  0  0  0  0  0  0  0  0  0  0
    9.9746   -1.2298   15.3618 C   0  0  0  0  0  0  0  0  0  0  0  0
   10.0727    0.1565   15.5234 C   0  0  0  0  0  0  0  0  0  0  0  0
    7.1755   -0.0945   16.7325 C   0  0  0  0  0  0  0  0  0  0  0  0
    6.3985   -0.4076   17.8952 C   0  0  0  0  0  0  0  0  0  0  0  0
    4.7607   -2.0489   25.4954 C   0  0  0  0  0  0  0  0  0  0  0  0
    3.6446   -2.5604   26.3065 C   0  0  0  0  0  0  0  0  0  0  0  0
    3.7436   -2.4177   27.6339 N   0  0  0  0  0  0  0  0  0  0  0  0
    4.9559   -1.8754   27.7582 N   0  0  0  0  0  0  0  0  0  0  0  0
    5.5651   -1.5773   26.5606 C   0  0  0  0  0  0  0  0  0  0  0  0
    4.6883    0.3263   25.5834 H   0  0  0  0  0  0  0  0  0  0  0  0
    3.1417   -0.4708   25.6359 H   0  0  0  0  0  0  0  0  0  0  0  0
    3.3286    0.7253   24.5597 H   0  0  0  0  0  0  0  0  0  0  0  0
    3.6876   -2.1325   23.6930 H   0  0  0  0  0  0  0  0  0  0  0  0
    4.8038   -0.8019   21.9477 H   0  0  0  0  0  0  0  0  0  0  0  0
    7.7214   -1.1536   20.9492 H   0  0  0  0  0  0  0  0  0  0  0  0
    6.6770   -2.1529   20.5101 H   0  0  0  0  0  0  0  0  0  0  0  0
    7.4190    1.8109   19.8527 H   0  0  0  0  0  0  0  0  0  0  0  0
    8.0088    2.8847   17.7418 H   0  0  0  0  0  0  0  0  0  0  0  0
    9.5044    3.2916   16.1378 H   0  0  0  0  0  0  0  0  0  0  0  0
   13.3557    0.5975   14.7213 H   0  0  0  0  0  0  0  0  0  0  0  0
   13.2184   -1.8853   14.5290 H   0  0  0  0  0  0  0  0  0  0  0  0
   11.0583   -3.0318   14.8906 H   0  0  0  0  0  0  0  0  0  0  0  0
    9.0234   -1.7387   15.4211 H   0  0  0  0  0  0  0  0  0  0  0  0
    7.0946   -0.7510   15.8667 H   0  0  0  0  0  0  0  0  0  0  0  0
    5.5823   -1.1036   17.7548 H   0  0  0  0  0  0  0  0  0  0  0  0
    2.7272   -2.9496   25.9339 H   0  0  0  0  0  0  0  0  0  0  0  0
    5.3090   -1.6908   28.6888 H   0  0  0  0  0  0  0  0  0  0  0  0
    6.4919   -1.0276   26.5694 H   0  0  0  0  0  0  0  0  0  0  0  0
  1  2  1  0
  2  3  1  0
  3  4  1  0
  4  5  1  0
  5  6  2  0
  6  7  1  0
  7  8  2  0
  8  9  1  0
  9 10  1  0
 10 11  2  0
 11 12  1  0
 12 13  2  0
 13 14  1  0
 14 15  2  0
 15 16  1  0
 16 17  2  0
  8 18  1  0
 18 19  2  0
  2 20  1  0
 20 21  1  0
 21 22  2  0
 22 23  1  0
 23 24  1  0
 19  5  1  0
 24 20  2  0
 17  9  1  0
 17 12  1  0
  1 25  1  0
  1 26  1  0
  1 27  1  0
  2 28  1  0
  3 29  1  0
  4 30  1  0
  4 31  1  0
  6 32  1  0
  7 33  1  0
 10 34  1  0
 13 35  1  0
 14 36  1  0
 15 37  1  0
 16 38  1  0
 18 39  1  0
 19 40  1  0
 21 41  1  0
 23 42  1  0
 24 43  1  0
M  END
>  <Energy>  (183) 
536.39877396510019

>  <compound_id>  (183) 
11010

>  <target_id>  (183) 
1

>  <reference_id>  (183) 
55

>  <inspiration_ids>  (183) 
[55, 7]

>  <energy_score>  (183) 
445.642896327783

>  <distance_score>  (183) 
12.978329013184165

>  <path>  (183) 
/opt/xchem-fragalysis-2/maxwin/BulkDock/SCRATCH/511013/C11010-P55/C11010-P55.minimised.mol

>  <scratch_subdir>  (183) 
/opt/xchem-fragalysis-2/maxwin/BulkDock/SCRATCH/511013/C11010-P55

>  <fragmenstein_runtime>  (183) 
9.168895721435547

>  <fragmenstein_outcome>  (183) 
too moved

>  <fragmenstein_mode>  (183) 
expansion

>  <fragmenstein_error>  (183) 


$$$$
C11010-P7
     RDKit          3D

 43 46  0  0  0  0  0  0  0  0999 V2000
    1.1373    5.0210   23.6293 C   0  0  0  0  0  0  0  0  0  0  0  0
    1.3812    3.5522   24.0064 C   0  0  0  0  0  0  0  0  0  0  0  0
    1.7957    2.8079   22.7184 N   0  0  0  0  0  0  0  0  0  0  0  0
    3.1939    2.1646   22.8009 C   0  0  0  0  0  0  0  0  0  0  0  0
    3.9690    0.8523   21.7755 C   0  0  0  0  0  0  0  0  0  0  0  0
    5.0246    0.8104   22.3856 C   0  0  0  0  0  0  0  0  0  0  0  0
    6.5794    1.6466   21.6558 C   0  0  0  0  0  0  0  0  0  0  0  0
    7.7103    1.4232   21.0875 C   0  0  0  0  0  0  0  0  0  0  0  0
    9.0677    1.8070   22.2275 N   0  0  0  0  0  0  0  0  0  0  0  0
   10.1695    1.0783   22.6950 C   0  0  0  0  0  0  0  0  0  0  0  0
   11.2713    1.7630   22.8426 N   0  0  0  0  0  0  0  0  0  0  0  0
   10.8537    3.0397   22.8710 C   0  0  0  0  0  0  0  0  0  0  0  0
   11.6318    4.1892   23.0181 C   0  0  0  0  0  0  0  0  0  0  0  0
   10.9903    5.4227   23.0413 C   0  0  0  0  0  0  0  0  0  0  0  0
    9.6016    5.5034   22.9733 C   0  0  0  0  0  0  0  0  0  0  0  0
    8.8069    4.3641   22.8294 C   0  0  0  0  0  0  0  0  0  0  0  0
    9.4641    3.1259   22.7124 C   0  0  0  0  0  0  0  0  0  0  0  0
    7.0908    0.1920   20.5324 C   0  0  0  0  0  0  0  0  0  0  0  0
    5.3614    0.1364   21.2486 C   0  0  0  0  0  0  0  0  0  0  0  0
    0.1700    3.0108   24.8179 C   0  0  0  0  0  0  0  0  0  0  0  0
   -1.2152    2.9713   24.4830 C   0  0  0  0  0  0  0  0  0  0  0  0
   -2.0085    2.5159   25.4670 N   0  0  0  0  0  0  0  0  0  0  0  0
   -1.1517    2.3109   26.4828 N   0  0  0  0  0  0  0  0  0  0  0  0
    0.1458    2.5928   26.1470 C   0  0  0  0  0  0  0  0  0  0  0  0
    0.3039    5.1231   22.9247 H   0  0  0  0  0  0  0  0  0  0  0  0
    2.0285    5.4602   23.1670 H   0  0  0  0  0  0  0  0  0  0  0  0
    0.8971    5.6176   24.5168 H   0  0  0  0  0  0  0  0  0  0  0  0
    2.2412    3.5473   24.6897 H   0  0  0  0  0  0  0  0  0  0  0  0
    1.8081    3.4310   21.9125 H   0  0  0  0  0  0  0  0  0  0  0  0
    3.7587    3.0909   22.7046 H   0  0  0  0  0  0  0  0  0  0  0  0
    3.2270    1.7932   23.8332 H   0  0  0  0  0  0  0  0  0  0  0  0
    4.8490    0.4750   23.4652 H   0  0  0  0  0  0  0  0  0  0  0  0
    6.5491    1.1697   22.5189 H   0  0  0  0  0  0  0  0  0  0  0  0
   10.1500    0.0656   23.0047 H   0  0  0  0  0  0  0  0  0  0  0  0
   12.7098    4.1107   23.1010 H   0  0  0  0  0  0  0  0  0  0  0  0
   11.5817    6.3296   23.1425 H   0  0  0  0  0  0  0  0  0  0  0  0
    9.1268    6.4821   23.0220 H   0  0  0  0  0  0  0  0  0  0  0  0
    7.7308    4.4627   22.7199 H   0  0  0  0  0  0  0  0  0  0  0  0
    7.5574   -0.7348   20.2589 H   0  0  0  0  0  0  0  0  0  0  0  0
    5.1717    0.3414   20.2740 H   0  0  0  0  0  0  0  0  0  0  0  0
   -1.6629    3.2628   23.5407 H   0  0  0  0  0  0  0  0  0  0  0  0
   -1.5129    1.9807   27.3726 H   0  0  0  0  0  0  0  0  0  0  0  0
    0.9398    2.4816   26.8723 H   0  0  0  0  0  0  0  0  0  0  0  0
  1  2  1  0
  2  3  1  0
  3  4  1  0
  4  5  1  0
  5  6  2  0
  6  7  1  0
  7  8  2  0
  8  9  1  0
  9 10  1  0
 10 11  2  0
 11 12  1  0
 12 13  2  0
 13 14  1  0
 14 15  2  0
 15 16  1  0
 16 17  2  0
  8 18  1  0
 18 19  2  0
  2 20  1  0
 20 21  1  0
 21 22  2  0
 22 23  1  0
 23 24  1  0
 19  5  1  0
 24 20  2  0
 17  9  1  0
 17 12  1  0
  1 25  1  0
  1 26  1  0
  1 27  1  0
  2 28  1  0
  3 29  1  0
  4 30  1  0
  4 31  1  0
  6 32  1  0
  7 33  1  0
 10 34  1  0
 13 35  1  0
 14 36  1  0
 15 37  1  0
 16 38  1  0
 18 39  1  0
 19 40  1  0
 21 41  1  0
 23 42  1  0
 24 43  1  0
M  END
>  <Energy>  (184) 
785.69623165629662

>  <compound_id>  (184) 
11010

>  <target_id>  (184) 
1

>  <reference_id>  (184) 
7

>  <inspiration_ids>  (184) 
[55, 7]

>  <energy_score>  (184) 
694.9403540189828

>  <distance_score>  (184) 
12.772081819971257

>  <path>  (184) 
/opt/xchem-fragalysis-2/maxwin/BulkDock/SCRATCH/511013/C11010-P7/C11010-P7.minimised.mol

>  <scratch_subdir>  (184) 
/opt/xchem-fragalysis-2/maxwin/BulkDock/SCRATCH/511013/C11010-P7

>  <fragmenstein_runtime>  (184) 
7.764968395233154

>  <fragmenstein_outcome>  (184) 
too moved

>  <fragmenstein_mode>  (184) 
expansion

>  <fragmenstein_error>  (184) 


$$$$
C11011-P55
     RDKit          3D

 36 39  0  0  0  0  0  0  0  0999 V2000
    6.2497   -2.1688   24.8821 O   0  0  0  0  0  0  0  0  0  0  0  0
    5.1883   -1.9441   24.3928 C   0  0  0  0  0  0  0  0  0  0  0  0
    4.7497   -1.9942   22.9654 N   0  0  0  0  0  0  0  0  0  0  0  0
    5.6400   -2.5365   21.4379 C   0  0  0  0  0  0  0  0  0  0  0  0
    6.3793   -1.6929   20.8387 C   0  0  0  0  0  0  0  0  0  0  0  0
    7.4610   -2.3935   20.7476 C   0  0  0  0  0  0  0  0  0  0  0  0
    8.0571   -3.7993   20.7215 C   0  0  0  0  0  0  0  0  0  0  0  0
    7.1201   -4.4701   19.9144 C   0  0  0  0  0  0  0  0  0  0  0  0
    5.6572   -3.5161   20.1730 C   0  0  0  0  0  0  0  0  0  0  0  0
    7.5116   -5.8060   19.8744 N   0  0  0  0  0  0  0  0  0  0  0  0
    8.5339   -5.9319   20.7236 C   0  0  0  0  0  0  0  0  0  0  0  0
    8.9622   -4.7227   21.2380 N   0  0  0  0  0  0  0  0  0  0  0  0
    9.9960   -4.7100   22.2177 C   0  0  0  0  0  0  0  0  0  0  0  0
   11.2287   -5.3140   21.9355 C   0  0  0  0  0  0  0  0  0  0  0  0
   12.2362   -5.3697   22.9021 C   0  0  0  0  0  0  0  0  0  0  0  0
   12.0132   -4.8427   24.1699 C   0  0  0  0  0  0  0  0  0  0  0  0
   10.7817   -4.2700   24.4692 C   0  0  0  0  0  0  0  0  0  0  0  0
    9.7793   -4.2214   23.4968 C   0  0  0  0  0  0  0  0  0  0  0  0
    4.1605   -1.4596   25.4346 C   0  0  0  0  0  0  0  0  0  0  0  0
    3.1848   -2.1843   26.1681 C   0  0  0  0  0  0  0  0  0  0  0  0
    2.5898   -1.5445   27.1885 N   0  0  0  0  0  0  0  0  0  0  0  0
    3.2284   -0.3764   27.1818 N   0  0  0  0  0  0  0  0  0  0  0  0
    4.2034   -0.3089   26.2217 C   0  0  0  0  0  0  0  0  0  0  0  0
    3.7924   -1.6586   22.9007 H   0  0  0  0  0  0  0  0  0  0  0  0
    6.5113   -0.6359   20.7081 H   0  0  0  0  0  0  0  0  0  0  0  0
    7.7563   -1.6151   19.8703 H   0  0  0  0  0  0  0  0  0  0  0  0
    4.9201   -4.2491   19.8983 H   0  0  0  0  0  0  0  0  0  0  0  0
    8.9938   -6.8720   21.0037 H   0  0  0  0  0  0  0  0  0  0  0  0
   11.4539   -5.6868   20.9432 H   0  0  0  0  0  0  0  0  0  0  0  0
   13.2019   -5.8040   22.6570 H   0  0  0  0  0  0  0  0  0  0  0  0
   12.7994   -4.8703   24.9196 H   0  0  0  0  0  0  0  0  0  0  0  0
   10.5992   -3.8601   25.4601 H   0  0  0  0  0  0  0  0  0  0  0  0
    8.8154   -3.8223   23.7635 H   0  0  0  0  0  0  0  0  0  0  0  0
    2.8903   -3.1895   25.9814 H   0  0  0  0  0  0  0  0  0  0  0  0
    3.0071    0.3026   27.9009 H   0  0  0  0  0  0  0  0  0  0  0  0
    4.8939    0.5159   26.2186 H   0  0  0  0  0  0  0  0  0  0  0  0
  1  2  2  0
  2  3  1  0
  3  4  1  0
  4  5  2  0
  5  6  1  0
  6  7  2  0
  7  8  1  0
  8  9  2  0
  8 10  1  0
 10 11  2  0
 11 12  1  0
 12 13  1  0
 13 14  2  0
 14 15  1  0
 15 16  2  0
 16 17  1  0
 17 18  2  0
  2 19  1  0
 19 20  1  0
 20 21  2  0
 21 22  1  0
 22 23  1  0
  9  4  1  0
 18 13  1  0
 23 19  2  0
 12  7  1  0
  3 24  1  0
  5 25  1  0
  6 26  1  0
  9 27  1  0
 11 28  1  0
 14 29  1  0
 15 30  1  0
 16 31  1  0
 17 32  1  0
 18 33  1  0
 20 34  1  0
 22 35  1  0
 23 36  1  0
M  END
>  <Energy>  (185) 
427.68799606706386

>  <compound_id>  (185) 
11011

>  <target_id>  (185) 
1

>  <reference_id>  (185) 
55

>  <inspiration_ids>  (185) 
[55, 7]

>  <energy_score>  (185) 
335.8355656651006

>  <distance_score>  (185) 
13.894213570485858

>  <path>  (185) 
/opt/xchem-fragalysis-2/maxwin/BulkDock/SCRATCH/511013/C11011-P55/C11011-P55.minimised.mol

>  <scratch_subdir>  (185) 
/opt/xchem-fragalysis-2/maxwin/BulkDock/SCRATCH/511013/C11011-P55

>  <fragmenstein_runtime>  (185) 
7.464627504348755

>  <fragmenstein_outcome>  (185) 
too moved

>  <fragmenstein_mode>  (185) 
expansion

>  <fragmenstein_error>  (185) 


$$$$
C11011-P7
     RDKit          3D

 36 39  0  0  0  0  0  0  0  0999 V2000
    3.4515    4.3696   24.2214 O   0  0  0  0  0  0  0  0  0  0  0  0
    2.5920    3.8793   23.5458 C   0  0  0  0  0  0  0  0  0  0  0  0
    2.5413    3.6249   22.1113 N   0  0  0  0  0  0  0  0  0  0  0  0
    3.5315    3.7952   21.0927 C   0  0  0  0  0  0  0  0  0  0  0  0
    3.2229    3.3990   19.7829 C   0  0  0  0  0  0  0  0  0  0  0  0
    4.0852    3.6161   18.6793 C   0  0  0  0  0  0  0  0  0  0  0  0
    5.2741    4.3281   18.9006 C   0  0  0  0  0  0  0  0  0  0  0  0
    5.6641    4.6503   20.2048 C   0  0  0  0  0  0  0  0  0  0  0  0
    4.7960    4.3732   21.3009 C   0  0  0  0  0  0  0  0  0  0  0  0
    6.8967    5.2670   20.2038 N   0  0  0  0  0  0  0  0  0  0  0  0
    7.1990    5.4223   18.9331 C   0  0  0  0  0  0  0  0  0  0  0  0
    6.2540    4.8933   18.0787 N   0  0  0  0  0  0  0  0  0  0  0  0
    6.2782    5.0818   16.6634 C   0  0  0  0  0  0  0  0  0  0  0  0
    7.4942    5.3618   16.0126 C   0  0  0  0  0  0  0  0  0  0  0  0
    7.5202    5.6652   14.6478 C   0  0  0  0  0  0  0  0  0  0  0  0
    6.3370    5.6892   13.9174 C   0  0  0  0  0  0  0  0  0  0  0  0
    5.1310    5.3968   14.5489 C   0  0  0  0  0  0  0  0  0  0  0  0
    5.0976    5.0969   15.9155 C   0  0  0  0  0  0  0  0  0  0  0  0
    1.3136    3.5320   24.2748 C   0  0  0  0  0  0  0  0  0  0  0  0
    1.1847    3.1430   25.6524 C   0  0  0  0  0  0  0  0  0  0  0  0
   -0.0804    2.9418   26.0496 N   0  0  0  0  0  0  0  0  0  0  0  0
   -0.7940    3.2795   24.9706 N   0  0  0  0  0  0  0  0  0  0  0  0
   -0.0182    3.5843   23.8775 C   0  0  0  0  0  0  0  0  0  0  0  0
    1.6258    3.2723   21.8707 H   0  0  0  0  0  0  0  0  0  0  0  0
    2.2674    2.9144   19.5790 H   0  0  0  0  0  0  0  0  0  0  0  0
    3.7759    3.2869   17.6908 H   0  0  0  0  0  0  0  0  0  0  0  0
    5.1049    4.7085   22.2856 H   0  0  0  0  0  0  0  0  0  0  0  0
    8.0750    5.9545   18.5863 H   0  0  0  0  0  0  0  0  0  0  0  0
    8.4466    5.3486   16.5366 H   0  0  0  0  0  0  0  0  0  0  0  0
    8.4646    5.8957   14.1608 H   0  0  0  0  0  0  0  0  0  0  0  0
    6.3463    5.9354   12.8595 H   0  0  0  0  0  0  0  0  0  0  0  0
    4.2033    5.4054   13.9796 H   0  0  0  0  0  0  0  0  0  0  0  0
    4.1207    4.9391   16.3583 H   0  0  0  0  0  0  0  0  0  0  0  0
    1.9902    2.9953   26.3631 H   0  0  0  0  0  0  0  0  0  0  0  0
   -1.8053    3.2958   25.0490 H   0  0  0  0  0  0  0  0  0  0  0  0
   -0.4800    3.8735   22.9446 H   0  0  0  0  0  0  0  0  0  0  0  0
  1  2  2  0
  2  3  1  0
  3  4  1  0
  4  5  2  0
  5  6  1  0
  6  7  2  0
  7  8  1  0
  8  9  2  0
  8 10  1  0
 10 11  2  0
 11 12  1  0
 12 13  1  0
 13 14  2  0
 14 15  1  0
 15 16  2  0
 16 17  1  0
 17 18  2  0
  2 19  1  0
 19 20  1  0
 20 21  2  0
 21 22  1  0
 22 23  1  0
  9  4  1  0
 18 13  1  0
 23 19  2  0
 12  7  1  0
  3 24  1  0
  5 25  1  0
  6 26  1  0
  9 27  1  0
 11 28  1  0
 14 29  1  0
 15 30  1  0
 16 31  1  0
 17 32  1  0
 18 33  1  0
 20 34  1  0
 22 35  1  0
 23 36  1  0
M  END
>  <Energy>  (186) 
63.583400909274488

>  <compound_id>  (186) 
11011

>  <target_id>  (186) 
1

>  <reference_id>  (186) 
7

>  <inspiration_ids>  (186) 
[55, 7]

>  <energy_score>  (186) 
-28.26902949268805

>  <distance_score>  (186) 
13.87469914775431

>  <path>  (186) 
/opt/xchem-fragalysis-2/maxwin/BulkDock/SCRATCH/511013/C11011-P7/C11011-P7.minimised.mol

>  <scratch_subdir>  (186) 
/opt/xchem-fragalysis-2/maxwin/BulkDock/SCRATCH/511013/C11011-P7

>  <fragmenstein_runtime>  (186) 
10.172186374664307

>  <fragmenstein_outcome>  (186) 
too moved

>  <fragmenstein_mode>  (186) 
expansion

>  <fragmenstein_error>  (186) 


$$$$
C11015-P55
     RDKit          3D

 42 44  0  0  0  0  0  0  0  0999 V2000
    3.0580   -2.4390   26.3314 C   0  0  0  0  0  0  0  0  0  0  0  0
    4.0594   -1.9878   25.2442 C   0  0  0  0  0  0  0  0  0  0  0  0
    4.8243   -0.7024   25.1744 N   0  0  0  0  0  0  0  0  0  0  0  0
    4.7714   -0.8482   26.6904 C   0  0  0  0  0  0  0  0  0  0  0  0
    3.8911    0.1785   27.5575 C   0  0  0  0  0  0  0  0  0  0  0  0
    2.5931   -0.1547   28.1772 N   0  0  0  0  0  0  0  0  0  0  0  0
    1.6007    0.6859   28.8021 C   0  0  0  0  0  0  0  0  0  0  0  0
    1.5416    1.8753   28.9067 O   0  0  0  0  0  0  0  0  0  0  0  0
    0.4375   -0.0536   29.3839 C   0  0  0  0  0  0  0  0  0  0  0  0
   -0.5256    0.4841   30.3020 C   0  0  0  0  0  0  0  0  0  0  0  0
   -1.5016   -0.3711   30.6307 N   0  0  0  0  0  0  0  0  0  0  0  0
   -1.2145   -1.4536   29.8933 N   0  0  0  0  0  0  0  0  0  0  0  0
   -0.0604   -1.3265   29.1603 C   0  0  0  0  0  0  0  0  0  0  0  0
    4.1515    0.2408   24.2528 C   0  0  0  0  0  0  0  0  0  0  0  0
    3.2912    1.0784   24.5634 O   0  0  0  0  0  0  0  0  0  0  0  0
    4.7623    0.3595   22.2054 C   0  0  0  0  0  0  0  0  0  0  0  0
    5.6076   -0.9878   21.7338 C   0  0  0  0  0  0  0  0  0  0  0  0
    6.9111   -1.2650   20.7428 C   0  0  0  0  0  0  0  0  0  0  0  0
    7.5031   -0.2066   20.0491 C   0  0  0  0  0  0  0  0  0  0  0  0
    7.4970    1.1475   20.7483 C   0  0  0  0  0  0  0  0  0  0  0  0
    8.2938    2.0161   21.7742 N   0  0  0  0  0  0  0  0  0  0  0  0
    7.6997    3.2694   21.8730 C   0  0  0  0  0  0  0  0  0  0  0  0
    6.4602    2.9884   21.5388 N   0  0  0  0  0  0  0  0  0  0  0  0
    6.2125    1.1584   21.7026 C   0  0  0  0  0  0  0  0  0  0  0  0
    3.4609   -2.6892   27.3174 H   0  0  0  0  0  0  0  0  0  0  0  0
    2.6089   -3.3626   26.0274 H   0  0  0  0  0  0  0  0  0  0  0  0
    2.2564   -1.7131   26.4385 H   0  0  0  0  0  0  0  0  0  0  0  0
    4.7505   -2.7503   24.9619 H   0  0  0  0  0  0  0  0  0  0  0  0
    3.4522   -1.9996   24.3344 H   0  0  0  0  0  0  0  0  0  0  0  0
    5.1131   -1.7770   27.1786 H   0  0  0  0  0  0  0  0  0  0  0  0
    5.7401   -0.3334   26.8503 H   0  0  0  0  0  0  0  0  0  0  0  0
    4.5119    0.4602   28.4189 H   0  0  0  0  0  0  0  0  0  0  0  0
    3.7432    1.1096   27.0024 H   0  0  0  0  0  0  0  0  0  0  0  0
    2.3622   -1.1206   28.3515 H   0  0  0  0  0  0  0  0  0  0  0  0
   -0.5306    1.4800   30.7293 H   0  0  0  0  0  0  0  0  0  0  0  0
   -1.8526   -2.2426   29.9215 H   0  0  0  0  0  0  0  0  0  0  0  0
    0.2620   -2.1269   28.5099 H   0  0  0  0  0  0  0  0  0  0  0  0
    5.3376   -1.8718   22.3314 H   0  0  0  0  0  0  0  0  0  0  0  0
    6.9142   -2.3187   20.5596 H   0  0  0  0  0  0  0  0  0  0  0  0
    7.3271   -0.1946   18.9674 H   0  0  0  0  0  0  0  0  0  0  0  0
    9.1659    1.7952   22.2314 H   0  0  0  0  0  0  0  0  0  0  0  0
    8.1476    4.1834   22.2363 H   0  0  0  0  0  0  0  0  0  0  0  0
  1  2  1  0
  2  3  1  0
  3  4  1  0
  4  5  1  0
  5  6  1  0
  6  7  1  0
  7  8  2  0
  7  9  1  0
  9 10  1  0
 10 11  2  0
 11 12  1  0
 12 13  1  0
  3 14  1  0
 14 15  2  0
 14 16  1  0
 16 17  2  0
 17 18  1  0
 18 19  2  0
 19 20  1  0
 20 21  1  0
 21 22  1  0
 22 23  2  0
 23 24  1  0
 13  9  2  0
 24 16  1  0
 24 20  2  0
  1 25  1  0
  1 26  1  0
  1 27  1  0
  2 28  1  0
  2 29  1  0
  4 30  1  0
  4 31  1  0
  5 32  1  0
  5 33  1  0
  6 34  1  0
 10 35  1  0
 12 36  1  0
 13 37  1  0
 17 38  1  0
 18 39  1  0
 19 40  1  0
 21 41  1  0
 22 42  1  0
M  END
>  <Energy>  (187) 
552.12232029060749

>  <compound_id>  (187) 
11015

>  <target_id>  (187) 
1

>  <reference_id>  (187) 
55

>  <inspiration_ids>  (187) 
[55, 7]

>  <energy_score>  (187) 
500.9553195413065

>  <distance_score>  (187) 
10.856394769158813

>  <path>  (187) 
/opt/xchem-fragalysis-2/maxwin/BulkDock/SCRATCH/511013/C11015-P55/C11015-P55.minimised.mol

>  <scratch_subdir>  (187) 
/opt/xchem-fragalysis-2/maxwin/BulkDock/SCRATCH/511013/C11015-P55

>  <fragmenstein_runtime>  (187) 
13.309751749038696

>  <fragmenstein_outcome>  (187) 
too moved

>  <fragmenstein_mode>  (187) 
expansion

>  <fragmenstein_error>  (187) 


$$$$
C11015-P7
     RDKit          3D

 42 44  0  0  0  0  0  0  0  0999 V2000
    5.5813   -1.3603   25.9651 C   0  0  0  0  0  0  0  0  0  0  0  0
    4.8964   -1.1934   24.5813 C   0  0  0  0  0  0  0  0  0  0  0  0
    4.7182    0.3421   24.3931 N   0  0  0  0  0  0  0  0  0  0  0  0
    3.4170    0.0456   25.2687 C   0  0  0  0  0  0  0  0  0  0  0  0
    3.3740    0.5041   26.7900 C   0  0  0  0  0  0  0  0  0  0  0  0
    2.0459    0.4157   27.4520 N   0  0  0  0  0  0  0  0  0  0  0  0
    1.4445   -0.6425   28.2297 C   0  0  0  0  0  0  0  0  0  0  0  0
    1.8315   -1.7472   28.4721 O   0  0  0  0  0  0  0  0  0  0  0  0
    0.1425   -0.2697   28.8777 C   0  0  0  0  0  0  0  0  0  0  0  0
   -0.6401   -1.1303   29.7183 C   0  0  0  0  0  0  0  0  0  0  0  0
   -1.7406   -0.5568   30.2173 N   0  0  0  0  0  0  0  0  0  0  0  0
   -1.7024    0.6741   29.6952 N   0  0  0  0  0  0  0  0  0  0  0  0
   -0.6098    0.8953   28.8911 C   0  0  0  0  0  0  0  0  0  0  0  0
    4.8872    0.8299   22.5935 C   0  0  0  0  0  0  0  0  0  0  0  0
    3.9579    0.8831   21.8224 O   0  0  0  0  0  0  0  0  0  0  0  0
    6.5792    1.5415   21.6839 C   0  0  0  0  0  0  0  0  0  0  0  0
    7.5213    1.5344   20.6433 C   0  0  0  0  0  0  0  0  0  0  0  0
    7.5044    2.4152   19.1731 C   0  0  0  0  0  0  0  0  0  0  0  0
    7.3262    3.8290   19.1306 C   0  0  0  0  0  0  0  0  0  0  0  0
    6.9689    4.2323   20.4473 C   0  0  0  0  0  0  0  0  0  0  0  0
    6.8001    5.5070   20.9208 N   0  0  0  0  0  0  0  0  0  0  0  0
    6.3806    5.4405   22.2049 C   0  0  0  0  0  0  0  0  0  0  0  0
    6.2347    4.2071   22.6086 N   0  0  0  0  0  0  0  0  0  0  0  0
    6.6456    3.3473   21.5716 C   0  0  0  0  0  0  0  0  0  0  0  0
    6.5727   -1.8063   25.8952 H   0  0  0  0  0  0  0  0  0  0  0  0
    4.9393   -1.9318   26.6425 H   0  0  0  0  0  0  0  0  0  0  0  0
    5.7833   -0.4086   26.4697 H   0  0  0  0  0  0  0  0  0  0  0  0
    5.4253   -1.6916   23.7999 H   0  0  0  0  0  0  0  0  0  0  0  0
    4.0310   -1.8705   24.4998 H   0  0  0  0  0  0  0  0  0  0  0  0
    2.8321   -0.8714   25.1694 H   0  0  0  0  0  0  0  0  0  0  0  0
    2.8100    0.8656   24.8561 H   0  0  0  0  0  0  0  0  0  0  0  0
    3.6956    1.5485   26.8640 H   0  0  0  0  0  0  0  0  0  0  0  0
    4.0282   -0.0921   27.4228 H   0  0  0  0  0  0  0  0  0  0  0  0
    1.4767    1.2448   27.5289 H   0  0  0  0  0  0  0  0  0  0  0  0
   -0.4168   -2.1582   29.9797 H   0  0  0  0  0  0  0  0  0  0  0  0
   -2.4501    1.3190   29.9304 H   0  0  0  0  0  0  0  0  0  0  0  0
   -0.4711    1.8593   28.4254 H   0  0  0  0  0  0  0  0  0  0  0  0
    8.2823    1.9346   21.3793 H   0  0  0  0  0  0  0  0  0  0  0  0
    7.4600    1.8540   18.2288 H   0  0  0  0  0  0  0  0  0  0  0  0
    7.3703    4.4688   18.2638 H   0  0  0  0  0  0  0  0  0  0  0  0
    6.9362    6.3545   20.3895 H   0  0  0  0  0  0  0  0  0  0  0  0
    6.1680    6.3226   22.7942 H   0  0  0  0  0  0  0  0  0  0  0  0
  1  2  1  0
  2  3  1  0
  3  4  1  0
  4  5  1  0
  5  6  1  0
  6  7  1  0
  7  8  2  0
  7  9  1  0
  9 10  1  0
 10 11  2  0
 11 12  1  0
 12 13  1  0
  3 14  1  0
 14 15  2  0
 14 16  1  0
 16 17  2  0
 17 18  1  0
 18 19  2  0
 19 20  1  0
 20 21  1  0
 21 22  1  0
 22 23  2  0
 23 24  1  0
 13  9  2  0
 24 16  1  0
 24 20  2  0
  1 25  1  0
  1 26  1  0
  1 27  1  0
  2 28  1  0
  2 29  1  0
  4 30  1  0
  4 31  1  0
  5 32  1  0
  5 33  1  0
  6 34  1  0
 10 35  1  0
 12 36  1  0
 13 37  1  0
 17 38  1  0
 18 39  1  0
 19 40  1  0
 21 41  1  0
 22 42  1  0
M  END
>  <Energy>  (188) 
471.77058606121722

>  <compound_id>  (188) 
11015

>  <target_id>  (188) 
1

>  <reference_id>  (188) 
7

>  <inspiration_ids>  (188) 
[55, 7]

>  <energy_score>  (188) 
420.6035853119168

>  <distance_score>  (188) 
11.410355302589213

>  <path>  (188) 
/opt/xchem-fragalysis-2/maxwin/BulkDock/SCRATCH/511013/C11015-P7/C11015-P7.minimised.mol

>  <scratch_subdir>  (188) 
/opt/xchem-fragalysis-2/maxwin/BulkDock/SCRATCH/511013/C11015-P7

>  <fragmenstein_runtime>  (188) 
8.75816822052002

>  <fragmenstein_outcome>  (188) 
too moved

>  <fragmenstein_mode>  (188) 
expansion

>  <fragmenstein_error>  (188) 


$$$$
C11016-P55
     RDKit          3D

 45 47  0  0  0  0  0  0  0  0999 V2000
    2.7236   -1.6580   25.9282 C   0  0  0  0  0  0  0  0  0  0  0  0
    3.7559   -2.7530   25.6355 C   0  0  0  0  0  0  0  0  0  0  0  0
    4.9656   -2.0467   25.3632 N   0  0  0  0  0  0  0  0  0  0  0  0
    4.9131   -1.8581   27.0434 C   0  0  0  0  0  0  0  0  0  0  0  0
    4.3178   -0.7067   27.9758 C   0  0  0  0  0  0  0  0  0  0  0  0
    3.0233   -0.9689   28.6702 N   0  0  0  0  0  0  0  0  0  0  0  0
    1.9760   -0.0659   29.0953 C   0  0  0  0  0  0  0  0  0  0  0  0
    1.8469    1.1113   28.9274 O   0  0  0  0  0  0  0  0  0  0  0  0
    0.8427   -0.7199   29.8396 C   0  0  0  0  0  0  0  0  0  0  0  0
    0.5287   -2.0577   30.1979 C   0  0  0  0  0  0  0  0  0  0  0  0
   -0.6227   -2.1933   30.8748 N   0  0  0  0  0  0  0  0  0  0  0  0
   -1.0936   -0.9392   30.9389 N   0  0  0  0  0  0  0  0  0  0  0  0
   -0.2591   -0.0329   30.3553 C   0  0  0  0  0  0  0  0  0  0  0  0
    4.7773   -1.1375   24.2774 C   0  0  0  0  0  0  0  0  0  0  0  0
    4.4283   -0.0244   24.4734 O   0  0  0  0  0  0  0  0  0  0  0  0
    5.2394   -1.3915   22.2748 C   0  0  0  0  0  0  0  0  0  0  0  0
    5.6594   -2.5496   21.5551 C   0  0  0  0  0  0  0  0  0  0  0  0
    6.7644   -2.6098   20.7142 C   0  0  0  0  0  0  0  0  0  0  0  0
    7.4104   -1.5167   20.1310 C   0  0  0  0  0  0  0  0  0  0  0  0
    6.9685   -0.3463   20.0879 C   0  0  0  0  0  0  0  0  0  0  0  0
    6.9030    0.3258   18.9094 N   0  0  0  0  0  0  0  0  0  0  0  0
    7.3045    1.5334   19.3009 C   0  0  0  0  0  0  0  0  0  0  0  0
    7.4395    2.5191   18.1124 C   0  0  0  0  0  0  0  0  0  0  0  0
    7.2925    1.3260   20.8783 N   0  0  0  0  0  0  0  0  0  0  0  0
    6.0489   -0.0695   21.2229 C   0  0  0  0  0  0  0  0  0  0  0  0
    1.9029   -2.0177   26.5527 H   0  0  0  0  0  0  0  0  0  0  0  0
    2.9922   -0.6838   26.3108 H   0  0  0  0  0  0  0  0  0  0  0  0
    2.5064   -1.3051   24.9409 H   0  0  0  0  0  0  0  0  0  0  0  0
    3.6824   -3.3491   26.5159 H   0  0  0  0  0  0  0  0  0  0  0  0
    3.4556   -3.2697   24.7419 H   0  0  0  0  0  0  0  0  0  0  0  0
    5.9735   -1.5460   27.0933 H   0  0  0  0  0  0  0  0  0  0  0  0
    4.9788   -2.7927   27.6257 H   0  0  0  0  0  0  0  0  0  0  0  0
    4.2816    0.2660   27.4715 H   0  0  0  0  0  0  0  0  0  0  0  0
    5.0243   -0.5763   28.8061 H   0  0  0  0  0  0  0  0  0  0  0  0
    2.8485   -1.8822   29.0599 H   0  0  0  0  0  0  0  0  0  0  0  0
    1.0964   -2.9546   29.9899 H   0  0  0  0  0  0  0  0  0  0  0  0
   -1.9855   -0.7735   31.3941 H   0  0  0  0  0  0  0  0  0  0  0  0
   -0.5017    1.0208   30.3320 H   0  0  0  0  0  0  0  0  0  0  0  0
    5.0099   -3.2495   21.0550 H   0  0  0  0  0  0  0  0  0  0  0  0
    7.4569   -3.4707   20.7539 H   0  0  0  0  0  0  0  0  0  0  0  0
    8.2009   -1.5134   19.4228 H   0  0  0  0  0  0  0  0  0  0  0  0
    6.8252   -0.0439   17.9736 H   0  0  0  0  0  0  0  0  0  0  0  0
    7.2362    3.5695   18.3414 H   0  0  0  0  0  0  0  0  0  0  0  0
    6.6880    2.2593   17.3529 H   0  0  0  0  0  0  0  0  0  0  0  0
    8.4005    2.4125   17.5984 H   0  0  0  0  0  0  0  0  0  0  0  0
  1  2  1  0
  2  3  1  0
  3  4  1  0
  4  5  1  0
  5  6  1  0
  6  7  1  0
  7  8  2  0
  7  9  1  0
  9 10  1  0
 10 11  2  0
 11 12  1  0
 12 13  1  0
  3 14  1  0
 14 15  2  0
 14 16  1  0
 16 17  2  0
 17 18  1  0
 18 19  2  0
 19 20  1  0
 20 21  1  0
 21 22  1  0
 22 23  1  0
 22 24  2  0
 24 25  1  0
 13  9  2  0
 25 16  1  0
 25 20  2  0
  1 26  1  0
  1 27  1  0
  1 28  1  0
  2 29  1  0
  2 30  1  0
  4 31  1  0
  4 32  1  0
  5 33  1  0
  5 34  1  0
  6 35  1  0
 10 36  1  0
 12 37  1  0
 13 38  1  0
 17 39  1  0
 18 40  1  0
 19 41  1  0
 21 42  1  0
 23 43  1  0
 23 44  1  0
 23 45  1  0
M  END
>  <Energy>  (189) 
670.83414738708541

>  <compound_id>  (189) 
11016

>  <target_id>  (189) 
1

>  <reference_id>  (189) 
55

>  <inspiration_ids>  (189) 
[55, 7]

>  <energy_score>  (189) 
623.1145425067377

>  <distance_score>  (189) 
10.449635399246747

>  <path>  (189) 
/opt/xchem-fragalysis-2/maxwin/BulkDock/SCRATCH/511013/C11016-P55/C11016-P55.minimised.mol

>  <scratch_subdir>  (189) 
/opt/xchem-fragalysis-2/maxwin/BulkDock/SCRATCH/511013/C11016-P55

>  <fragmenstein_runtime>  (189) 
10.19368290901184

>  <fragmenstein_outcome>  (189) 
too moved

>  <fragmenstein_mode>  (189) 
expansion

>  <fragmenstein_error>  (189) 


$$$$
C11016-P7
     RDKit          3D

 45 47  0  0  0  0  0  0  0  0999 V2000
    3.3490    1.9123   22.7375 C   0  0  0  0  0  0  0  0  0  0  0  0
    4.7801    0.7219   22.4335 C   0  0  0  0  0  0  0  0  0  0  0  0
    5.1057   -0.6752   21.5920 N   0  0  0  0  0  0  0  0  0  0  0  0
    4.9123   -1.4629   23.3731 C   0  0  0  0  0  0  0  0  0  0  0  0
    4.7666   -0.9702   24.9842 C   0  0  0  0  0  0  0  0  0  0  0  0
    3.5332   -1.1767   25.8004 N   0  0  0  0  0  0  0  0  0  0  0  0
    2.9770   -0.4011   26.8952 C   0  0  0  0  0  0  0  0  0  0  0  0
    3.3256    0.6432   27.3666 O   0  0  0  0  0  0  0  0  0  0  0  0
    1.7872   -1.0011   27.5936 C   0  0  0  0  0  0  0  0  0  0  0  0
    1.4352   -2.3324   27.9315 C   0  0  0  0  0  0  0  0  0  0  0  0
    0.3170   -2.4412   28.6673 N   0  0  0  0  0  0  0  0  0  0  0  0
   -0.0848   -1.1698   28.8057 N   0  0  0  0  0  0  0  0  0  0  0  0
    0.7663   -0.2783   28.2174 C   0  0  0  0  0  0  0  0  0  0  0  0
    6.6806   -0.4533   20.4573 C   0  0  0  0  0  0  0  0  0  0  0  0
    7.8378   -0.6743   20.6903 O   0  0  0  0  0  0  0  0  0  0  0  0
    6.4979    0.0517   18.5963 C   0  0  0  0  0  0  0  0  0  0  0  0
    5.7074   -0.6385   17.5497 C   0  0  0  0  0  0  0  0  0  0  0  0
    5.8040   -0.5508   16.1306 C   0  0  0  0  0  0  0  0  0  0  0  0
    6.8543    0.0953   15.5506 C   0  0  0  0  0  0  0  0  0  0  0  0
    7.5002    0.9367   16.4239 C   0  0  0  0  0  0  0  0  0  0  0  0
    8.4367    1.8893   16.1044 N   0  0  0  0  0  0  0  0  0  0  0  0
    8.4645    2.7796   17.1269 C   0  0  0  0  0  0  0  0  0  0  0  0
    9.2845    4.0136   17.0699 C   0  0  0  0  0  0  0  0  0  0  0  0
    7.7179    2.3330   18.1194 N   0  0  0  0  0  0  0  0  0  0  0  0
    7.2528    1.0483   17.8108 C   0  0  0  0  0  0  0  0  0  0  0  0
    2.6031    1.8395   21.9348 H   0  0  0  0  0  0  0  0  0  0  0  0
    2.9189    1.7385   23.7342 H   0  0  0  0  0  0  0  0  0  0  0  0
    3.6256    2.9737   22.7562 H   0  0  0  0  0  0  0  0  0  0  0  0
    4.6852    0.4709   23.4575 H   0  0  0  0  0  0  0  0  0  0  0  0
    4.0878    0.7064   21.6253 H   0  0  0  0  0  0  0  0  0  0  0  0
    5.5947   -2.2549   23.3877 H   0  0  0  0  0  0  0  0  0  0  0  0
    3.9956   -2.0616   23.3249 H   0  0  0  0  0  0  0  0  0  0  0  0
    5.0425    0.0514   25.2023 H   0  0  0  0  0  0  0  0  0  0  0  0
    5.5126   -1.5619   25.5210 H   0  0  0  0  0  0  0  0  0  0  0  0
    2.9280   -1.9753   25.6175 H   0  0  0  0  0  0  0  0  0  0  0  0
    1.9764   -3.2338   27.6823 H   0  0  0  0  0  0  0  0  0  0  0  0
   -0.9339   -0.9838   29.3288 H   0  0  0  0  0  0  0  0  0  0  0  0
    0.6029    0.7874   28.2898 H   0  0  0  0  0  0  0  0  0  0  0  0
    4.8981   -1.3085   17.8463 H   0  0  0  0  0  0  0  0  0  0  0  0
    5.1023   -1.1055   15.5089 H   0  0  0  0  0  0  0  0  0  0  0  0
    7.0284    0.0904   14.4809 H   0  0  0  0  0  0  0  0  0  0  0  0
    8.8518    2.0224   15.1929 H   0  0  0  0  0  0  0  0  0  0  0  0
    8.9801    4.7162   17.8513 H   0  0  0  0  0  0  0  0  0  0  0  0
    9.1651    4.5154   16.1043 H   0  0  0  0  0  0  0  0  0  0  0  0
   10.3436    3.7762   17.2074 H   0  0  0  0  0  0  0  0  0  0  0  0
  1  2  1  0
  2  3  1  0
  3  4  1  0
  4  5  1  0
  5  6  1  0
  6  7  1  0
  7  8  2  0
  7  9  1  0
  9 10  1  0
 10 11  2  0
 11 12  1  0
 12 13  1  0
  3 14  1  0
 14 15  2  0
 14 16  1  0
 16 17  2  0
 17 18  1  0
 18 19  2  0
 19 20  1  0
 20 21  1  0
 21 22  1  0
 22 23  1  0
 22 24  2  0
 24 25  1  0
 13  9  2  0
 25 16  1  0
 25 20  2  0
  1 26  1  0
  1 27  1  0
  1 28  1  0
  2 29  1  0
  2 30  1  0
  4 31  1  0
  4 32  1  0
  5 33  1  0
  5 34  1  0
  6 35  1  0
 10 36  1  0
 12 37  1  0
 13 38  1  0
 17 39  1  0
 18 40  1  0
 19 41  1  0
 21 42  1  0
 23 43  1  0
 23 44  1  0
 23 45  1  0
M  END
>  <Energy>  (190) 
510.2941933275311

>  <compound_id>  (190) 
11016

>  <target_id>  (190) 
1

>  <reference_id>  (190) 
7

>  <inspiration_ids>  (190) 
[55, 7]

>  <energy_score>  (190) 
462.57458844718155

>  <distance_score>  (190) 
10.946464662733058

>  <path>  (190) 
/opt/xchem-fragalysis-2/maxwin/BulkDock/SCRATCH/511013/C11016-P7/C11016-P7.minimised.mol

>  <scratch_subdir>  (190) 
/opt/xchem-fragalysis-2/maxwin/BulkDock/SCRATCH/511013/C11016-P7

>  <fragmenstein_runtime>  (190) 
10.205294847488403

>  <fragmenstein_outcome>  (190) 
too moved

>  <fragmenstein_mode>  (190) 
expansion

>  <fragmenstein_error>  (190) 


$$$$
C11018-P55
     RDKit          3D

 40 42  0  0  0  0  0  0  0  0999 V2000
    3.7777   -2.8228   28.4023 O   0  0  0  0  0  0  0  0  0  0  0  0
    2.8965   -2.6037   27.6197 C   0  0  0  0  0  0  0  0  0  0  0  0
    2.9039   -2.5840   26.1665 N   0  0  0  0  0  0  0  0  0  0  0  0
    4.0239   -2.7316   25.1895 C   0  0  0  0  0  0  0  0  0  0  0  0
    4.4707   -1.7573   23.9700 C   0  0  0  0  0  0  0  0  0  0  0  0
    4.2548   -0.4086   25.0719 C   0  0  0  0  0  0  0  0  0  0  0  0
    3.1966   -0.2717   26.0447 O   0  0  0  0  0  0  0  0  0  0  0  0
    5.3277   -1.5631   22.2629 N   0  0  0  0  0  0  0  0  0  0  0  0
    5.8304   -0.0843   21.3186 C   0  0  0  0  0  0  0  0  0  0  0  0
    5.5055    0.9074   21.7948 O   0  0  0  0  0  0  0  0  0  0  0  0
    6.9858    0.2962   19.6874 C   0  0  0  0  0  0  0  0  0  0  0  0
    7.5868   -0.4607   18.8192 C   0  0  0  0  0  0  0  0  0  0  0  0
    8.1513   -0.2470   17.2545 C   0  0  0  0  0  0  0  0  0  0  0  0
    8.4076    0.8176   16.5230 C   0  0  0  0  0  0  0  0  0  0  0  0
    7.9483    1.7906   17.2946 C   0  0  0  0  0  0  0  0  0  0  0  0
    8.0486    3.0836   16.8050 N   0  0  0  0  0  0  0  0  0  0  0  0
    7.3605    3.8736   17.6043 C   0  0  0  0  0  0  0  0  0  0  0  0
    7.0295    3.1508   18.6296 N   0  0  0  0  0  0  0  0  0  0  0  0
    7.2844    1.6946   18.6046 C   0  0  0  0  0  0  0  0  0  0  0  0
    1.5349   -2.4148   28.2352 C   0  0  0  0  0  0  0  0  0  0  0  0
    0.4951   -1.4679   28.0241 C   0  0  0  0  0  0  0  0  0  0  0  0
   -0.5761   -1.6320   28.8219 N   0  0  0  0  0  0  0  0  0  0  0  0
   -0.1910   -2.6251   29.6385 N   0  0  0  0  0  0  0  0  0  0  0  0
    1.0357   -3.1313   29.3215 C   0  0  0  0  0  0  0  0  0  0  0  0
    2.0047   -2.2806   25.8377 H   0  0  0  0  0  0  0  0  0  0  0  0
    4.0748   -3.7521   24.9282 H   0  0  0  0  0  0  0  0  0  0  0  0
    4.7628   -2.4556   25.9403 H   0  0  0  0  0  0  0  0  0  0  0  0
    5.5107   -1.9963   24.2473 H   0  0  0  0  0  0  0  0  0  0  0  0
    4.0031    0.4363   24.5285 H   0  0  0  0  0  0  0  0  0  0  0  0
    5.1334   -0.3045   25.7057 H   0  0  0  0  0  0  0  0  0  0  0  0
    3.4506    0.4826   26.6017 H   0  0  0  0  0  0  0  0  0  0  0  0
    5.5841   -2.3806   21.7194 H   0  0  0  0  0  0  0  0  0  0  0  0
    7.8061   -1.3198   19.4148 H   0  0  0  0  0  0  0  0  0  0  0  0
    8.4794   -1.1052   16.6282 H   0  0  0  0  0  0  0  0  0  0  0  0
    8.8503    0.8688   15.5437 H   0  0  0  0  0  0  0  0  0  0  0  0
    8.4778    3.3440   15.9284 H   0  0  0  0  0  0  0  0  0  0  0  0
    7.1683    4.9269   17.4542 H   0  0  0  0  0  0  0  0  0  0  0  0
    0.4938   -0.6508   27.3166 H   0  0  0  0  0  0  0  0  0  0  0  0
   -0.8043   -2.9009   30.3980 H   0  0  0  0  0  0  0  0  0  0  0  0
    1.4796   -3.9337   29.8941 H   0  0  0  0  0  0  0  0  0  0  0  0
  1  2  2  0
  2  3  1  0
  3  4  1  0
  4  5  1  0
  5  6  1  0
  6  7  1  0
  5  8  1  0
  8  9  1  0
  9 10  2  0
  9 11  1  0
 11 12  2  0
 12 13  1  0
 13 14  2  0
 14 15  1  0
 15 16  1  0
 16 17  1  0
 17 18  2  0
 18 19  1  0
  2 20  1  0
 20 21  1  0
 21 22  2  0
 22 23  1  0
 23 24  1  0
 19 11  1  0
 24 20  2  0
 19 15  2  0
  3 25  1  0
  4 26  1  0
  4 27  1  0
  5 28  1  0
  6 29  1  0
  6 30  1  0
  7 31  1  0
  8 32  1  0
 12 33  1  0
 13 34  1  0
 14 35  1  0
 16 36  1  0
 17 37  1  0
 21 38  1  0
 23 39  1  0
 24 40  1  0
M  END
>  <Energy>  (191) 
553.34803419352397

>  <compound_id>  (191) 
11018

>  <target_id>  (191) 
1

>  <reference_id>  (191) 
55

>  <inspiration_ids>  (191) 
[55, 7]

>  <energy_score>  (191) 
485.7427354299455

>  <distance_score>  (191) 
10.976552080576331

>  <path>  (191) 
/opt/xchem-fragalysis-2/maxwin/BulkDock/SCRATCH/511013/C11018-P55/C11018-P55.minimised.mol

>  <scratch_subdir>  (191) 
/opt/xchem-fragalysis-2/maxwin/BulkDock/SCRATCH/511013/C11018-P55

>  <fragmenstein_runtime>  (191) 
9.37099313735962

>  <fragmenstein_outcome>  (191) 
too moved

>  <fragmenstein_mode>  (191) 
expansion

>  <fragmenstein_error>  (191) 


$$$$
C11018-P7
     RDKit          3D

 40 42  0  0  0  0  0  0  0  0999 V2000
    2.9730   -0.6963   29.1419 O   0  0  0  0  0  0  0  0  0  0  0  0
    2.1406   -1.1057   28.3880 C   0  0  0  0  0  0  0  0  0  0  0  0
    2.2200   -1.4270   26.9873 N   0  0  0  0  0  0  0  0  0  0  0  0
    3.3748   -1.4474   26.0565 C   0  0  0  0  0  0  0  0  0  0  0  0
    3.8398   -0.0965   25.4260 C   0  0  0  0  0  0  0  0  0  0  0  0
    3.0984    1.2300   25.7875 C   0  0  0  0  0  0  0  0  0  0  0  0
    2.5226    1.9289   24.6936 O   0  0  0  0  0  0  0  0  0  0  0  0
    4.8367   -0.0645   24.2848 N   0  0  0  0  0  0  0  0  0  0  0  0
    4.7848    0.7821   22.6930 C   0  0  0  0  0  0  0  0  0  0  0  0
    3.8292    1.4103   22.2686 O   0  0  0  0  0  0  0  0  0  0  0  0
    6.3559    0.9657   21.4848 C   0  0  0  0  0  0  0  0  0  0  0  0
    7.0655   -0.0574   20.2669 C   0  0  0  0  0  0  0  0  0  0  0  0
    7.3318    0.4040   18.8640 C   0  0  0  0  0  0  0  0  0  0  0  0
    7.3964    1.7942   18.3652 C   0  0  0  0  0  0  0  0  0  0  0  0
    7.3807    2.7891   19.3770 C   0  0  0  0  0  0  0  0  0  0  0  0
    7.2905    4.2178   19.3032 N   0  0  0  0  0  0  0  0  0  0  0  0
    7.0371    4.7168   20.5672 C   0  0  0  0  0  0  0  0  0  0  0  0
    6.9331    3.8028   21.5176 N   0  0  0  0  0  0  0  0  0  0  0  0
    7.0550    2.5012   20.9584 C   0  0  0  0  0  0  0  0  0  0  0  0
    0.7638   -1.3052   28.9605 C   0  0  0  0  0  0  0  0  0  0  0  0
   -0.5380   -1.1344   28.4121 C   0  0  0  0  0  0  0  0  0  0  0  0
   -1.5398   -1.4230   29.2581 N   0  0  0  0  0  0  0  0  0  0  0  0
   -0.8954   -1.6717   30.4109 N   0  0  0  0  0  0  0  0  0  0  0  0
    0.4638   -1.6214   30.2826 C   0  0  0  0  0  0  0  0  0  0  0  0
    1.3416   -1.8272   26.6907 H   0  0  0  0  0  0  0  0  0  0  0  0
    4.2036   -1.8732   26.6367 H   0  0  0  0  0  0  0  0  0  0  0  0
    3.1867   -2.1676   25.2615 H   0  0  0  0  0  0  0  0  0  0  0  0
    4.6291    0.0523   26.1889 H   0  0  0  0  0  0  0  0  0  0  0  0
    3.7931    1.9322   26.2639 H   0  0  0  0  0  0  0  0  0  0  0  0
    2.3177    1.0765   26.5366 H   0  0  0  0  0  0  0  0  0  0  0  0
    3.0814    1.7142   23.9060 H   0  0  0  0  0  0  0  0  0  0  0  0
    5.6797   -0.5655   24.3607 H   0  0  0  0  0  0  0  0  0  0  0  0
    7.1029   -1.1309   20.4631 H   0  0  0  0  0  0  0  0  0  0  0  0
    7.5613   -0.2271   18.0452 H   0  0  0  0  0  0  0  0  0  0  0  0
    7.5652    2.0266   17.3167 H   0  0  0  0  0  0  0  0  0  0  0  0
    7.3491    4.7611   18.4531 H   0  0  0  0  0  0  0  0  0  0  0  0
    6.9311    5.7821   20.7284 H   0  0  0  0  0  0  0  0  0  0  0  0
   -0.7902   -0.7924   27.4196 H   0  0  0  0  0  0  0  0  0  0  0  0
   -1.4396   -1.8679   31.2450 H   0  0  0  0  0  0  0  0  0  0  0  0
    1.1147   -1.8017   31.1273 H   0  0  0  0  0  0  0  0  0  0  0  0
  1  2  2  0
  2  3  1  0
  3  4  1  0
  4  5  1  0
  5  6  1  0
  6  7  1  0
  5  8  1  0
  8  9  1  0
  9 10  2  0
  9 11  1  0
 11 12  2  0
 12 13  1  0
 13 14  2  0
 14 15  1  0
 15 16  1  0
 16 17  1  0
 17 18  2  0
 18 19  1  0
  2 20  1  0
 20 21  1  0
 21 22  2  0
 22 23  1  0
 23 24  1  0
 19 11  1  0
 24 20  2  0
 19 15  2  0
  3 25  1  0
  4 26  1  0
  4 27  1  0
  5 28  1  0
  6 29  1  0
  6 30  1  0
  7 31  1  0
  8 32  1  0
 12 33  1  0
 13 34  1  0
 14 35  1  0
 16 36  1  0
 17 37  1  0
 21 38  1  0
 23 39  1  0
 24 40  1  0
M  END
>  <Energy>  (192) 
337.93950265853931

>  <compound_id>  (192) 
11018

>  <target_id>  (192) 
1

>  <reference_id>  (192) 
7

>  <inspiration_ids>  (192) 
[55, 7]

>  <energy_score>  (192) 
270.3342038949556

>  <distance_score>  (192) 
10.983682981951148

>  <path>  (192) 
/opt/xchem-fragalysis-2/maxwin/BulkDock/SCRATCH/511013/C11018-P7/C11018-P7.minimised.mol

>  <scratch_subdir>  (192) 
/opt/xchem-fragalysis-2/maxwin/BulkDock/SCRATCH/511013/C11018-P7

>  <fragmenstein_runtime>  (192) 
9.97843623161316

>  <fragmenstein_outcome>  (192) 
too moved

>  <fragmenstein_mode>  (192) 
expansion

>  <fragmenstein_error>  (192) 


$$$$
C11019-P55
     RDKit          3D

 43 45  0  0  0  0  0  0  0  0999 V2000
   10.6409   -1.0809   15.3330 C   0  0  0  0  0  0  0  0  0  0  0  0
    9.4811   -0.3625   15.9109 C   0  0  0  0  0  0  0  0  0  0  0  0
    8.7623   -0.6913   16.9597 N   0  0  0  0  0  0  0  0  0  0  0  0
    7.8997    0.3343   17.3826 C   0  0  0  0  0  0  0  0  0  0  0  0
    7.0651    0.5429   18.6768 C   0  0  0  0  0  0  0  0  0  0  0  0
    6.9691   -0.4753   20.2602 C   0  0  0  0  0  0  0  0  0  0  0  0
    7.8819   -1.2116   20.3018 O   0  0  0  0  0  0  0  0  0  0  0  0
    5.6063   -0.5668   21.5762 N   0  0  0  0  0  0  0  0  0  0  0  0
    5.2954   -1.8424   23.0583 C   0  0  0  0  0  0  0  0  0  0  0  0
    3.7311   -2.0687   23.6197 C   0  0  0  0  0  0  0  0  0  0  0  0
    2.9756   -1.4932   24.7956 O   0  0  0  0  0  0  0  0  0  0  0  0
    5.5893   -1.7857   24.9991 C   0  0  0  0  0  0  0  0  0  0  0  0
    4.5849   -2.0480   26.1845 N   0  0  0  0  0  0  0  0  0  0  0  0
    4.7034   -1.7966   27.6018 C   0  0  0  0  0  0  0  0  0  0  0  0
    5.6294   -1.3981   28.2494 O   0  0  0  0  0  0  0  0  0  0  0  0
    3.4011   -1.9780   28.3619 C   0  0  0  0  0  0  0  0  0  0  0  0
    3.1616   -1.7270   29.7552 C   0  0  0  0  0  0  0  0  0  0  0  0
    1.8900   -1.9098   30.1483 N   0  0  0  0  0  0  0  0  0  0  0  0
    1.2747   -2.2619   29.0109 N   0  0  0  0  0  0  0  0  0  0  0  0
    2.1272   -2.3296   27.9432 C   0  0  0  0  0  0  0  0  0  0  0  0
    7.1433    1.9151   18.6246 C   0  0  0  0  0  0  0  0  0  0  0  0
    7.2379    2.9294   17.6251 C   0  0  0  0  0  0  0  0  0  0  0  0
    7.6997    2.6149   16.4015 C   0  0  0  0  0  0  0  0  0  0  0  0
    8.1778    1.3329   16.3991 C   0  0  0  0  0  0  0  0  0  0  0  0
    9.0729    0.8394   15.4757 N   0  0  0  0  0  0  0  0  0  0  0  0
   10.9963   -0.6057   14.4137 H   0  0  0  0  0  0  0  0  0  0  0  0
   10.3742   -2.1172   15.1074 H   0  0  0  0  0  0  0  0  0  0  0  0
   11.4699   -1.0909   16.0473 H   0  0  0  0  0  0  0  0  0  0  0  0
    4.9510    0.1942   21.4297 H   0  0  0  0  0  0  0  0  0  0  0  0
    5.4596   -2.6140   22.3349 H   0  0  0  0  0  0  0  0  0  0  0  0
    3.7947   -3.0232   24.0997 H   0  0  0  0  0  0  0  0  0  0  0  0
    4.1978   -1.1701   23.8854 H   0  0  0  0  0  0  0  0  0  0  0  0
    3.0277   -0.5187   24.7088 H   0  0  0  0  0  0  0  0  0  0  0  0
    6.6076   -1.9394   25.3518 H   0  0  0  0  0  0  0  0  0  0  0  0
    5.2886   -0.7560   25.2520 H   0  0  0  0  0  0  0  0  0  0  0  0
    3.6239   -2.3017   25.9720 H   0  0  0  0  0  0  0  0  0  0  0  0
    3.8945   -1.4051   30.4852 H   0  0  0  0  0  0  0  0  0  0  0  0
    0.2751   -2.4366   29.0256 H   0  0  0  0  0  0  0  0  0  0  0  0
    1.7509   -2.5891   26.9726 H   0  0  0  0  0  0  0  0  0  0  0  0
    7.2232    2.2542   19.6439 H   0  0  0  0  0  0  0  0  0  0  0  0
    7.0906    3.9731   17.8946 H   0  0  0  0  0  0  0  0  0  0  0  0
    7.9111    3.3502   15.6365 H   0  0  0  0  0  0  0  0  0  0  0  0
    9.4637    1.3545   14.6994 H   0  0  0  0  0  0  0  0  0  0  0  0
  1  2  1  0
  2  3  2  0
  3  4  1  0
  4  5  2  0
  5  6  1  0
  6  7  2  0
  6  8  1  0
  8  9  1  0
  9 10  1  0
 10 11  1  0
  9 12  1  0
 12 13  1  0
 13 14  1  0
 14 15  2  0
 14 16  1  0
 16 17  1  0
 17 18  2  0
 18 19  1  0
 19 20  1  0
  5 21  1  0
 21 22  2  0
 22 23  1  0
 23 24  2  0
 24 25  1  0
 25  2  1  0
 24  4  1  0
 20 16  2  0
  1 26  1  0
  1 27  1  0
  1 28  1  0
  8 29  1  0
  9 30  1  0
 10 31  1  0
 10 32  1  0
 11 33  1  0
 12 34  1  0
 12 35  1  0
 13 36  1  0
 17 37  1  0
 19 38  1  0
 20 39  1  0
 21 40  1  0
 22 41  1  0
 23 42  1  0
 25 43  1  0
M  END
>  <Energy>  (193) 
556.42989417336241

>  <compound_id>  (193) 
11019

>  <target_id>  (193) 
1

>  <reference_id>  (193) 
55

>  <inspiration_ids>  (193) 
[55, 7]

>  <energy_score>  (193) 
458.0569518461908

>  <distance_score>  (193) 
11.281729766000442

>  <path>  (193) 
/opt/xchem-fragalysis-2/maxwin/BulkDock/SCRATCH/511013/C11019-P55/C11019-P55.minimised.mol

>  <scratch_subdir>  (193) 
/opt/xchem-fragalysis-2/maxwin/BulkDock/SCRATCH/511013/C11019-P55

>  <fragmenstein_runtime>  (193) 
12.54140019416809

>  <fragmenstein_outcome>  (193) 
too moved

>  <fragmenstein_mode>  (193) 
expansion

>  <fragmenstein_error>  (193) 


$$$$
C11019-P7
     RDKit          3D

 43 45  0  0  0  0  0  0  0  0999 V2000
    8.8700    0.2245   16.6152 C   0  0  0  0  0  0  0  0  0  0  0  0
    8.0270    0.0798   17.8791 C   0  0  0  0  0  0  0  0  0  0  0  0
    8.1458   -0.5829   19.2011 N   0  0  0  0  0  0  0  0  0  0  0  0
    6.9031   -0.5571   20.0889 C   0  0  0  0  0  0  0  0  0  0  0  0
    5.9414   -1.7015   21.2811 C   0  0  0  0  0  0  0  0  0  0  0  0
    4.8760   -1.6199   23.0522 C   0  0  0  0  0  0  0  0  0  0  0  0
    4.1777   -2.5310   23.1852 O   0  0  0  0  0  0  0  0  0  0  0  0
    4.9338   -0.4816   24.3894 N   0  0  0  0  0  0  0  0  0  0  0  0
    4.1562   -0.3973   25.6856 C   0  0  0  0  0  0  0  0  0  0  0  0
    5.0090    0.2687   26.7967 C   0  0  0  0  0  0  0  0  0  0  0  0
    4.9656    1.6978   26.6979 O   0  0  0  0  0  0  0  0  0  0  0  0
    3.5898   -1.7143   26.2693 C   0  0  0  0  0  0  0  0  0  0  0  0
    2.3408   -1.6399   27.0783 N   0  0  0  0  0  0  0  0  0  0  0  0
    1.8285   -0.6020   27.9346 C   0  0  0  0  0  0  0  0  0  0  0  0
    2.3140    0.4368   28.2778 O   0  0  0  0  0  0  0  0  0  0  0  0
    0.4876   -0.9252   28.5293 C   0  0  0  0  0  0  0  0  0  0  0  0
   -0.3311   -0.0551   29.3219 C   0  0  0  0  0  0  0  0  0  0  0  0
   -1.4911   -0.5996   29.7135 N   0  0  0  0  0  0  0  0  0  0  0  0
   -1.4453   -1.8263   29.1738 N   0  0  0  0  0  0  0  0  0  0  0  0
   -0.2688   -2.0867   28.5224 C   0  0  0  0  0  0  0  0  0  0  0  0
    5.3756   -2.8763   20.0735 C   0  0  0  0  0  0  0  0  0  0  0  0
    4.8242   -2.2475   18.4139 C   0  0  0  0  0  0  0  0  0  0  0  0
    5.2687   -1.0223   17.7432 C   0  0  0  0  0  0  0  0  0  0  0  0
    6.2859   -0.2441   18.5035 C   0  0  0  0  0  0  0  0  0  0  0  0
    6.9393    0.8240   17.9816 N   0  0  0  0  0  0  0  0  0  0  0  0
    9.0117   -0.7465   16.1303 H   0  0  0  0  0  0  0  0  0  0  0  0
    9.8423    0.6760   16.8174 H   0  0  0  0  0  0  0  0  0  0  0  0
    8.3642    0.8684   15.8863 H   0  0  0  0  0  0  0  0  0  0  0  0
    5.4922    0.2884   24.1127 H   0  0  0  0  0  0  0  0  0  0  0  0
    3.3250    0.2743   25.4541 H   0  0  0  0  0  0  0  0  0  0  0  0
    6.0526   -0.0509   26.7562 H   0  0  0  0  0  0  0  0  0  0  0  0
    4.6636    0.0134   27.8025 H   0  0  0  0  0  0  0  0  0  0  0  0
    4.0877    1.9410   27.0534 H   0  0  0  0  0  0  0  0  0  0  0  0
    3.3855   -2.4317   25.4759 H   0  0  0  0  0  0  0  0  0  0  0  0
    4.3263   -2.1827   26.9286 H   0  0  0  0  0  0  0  0  0  0  0  0
    1.6233   -2.3388   26.9416 H   0  0  0  0  0  0  0  0  0  0  0  0
   -0.1041    0.9635   29.6132 H   0  0  0  0  0  0  0  0  0  0  0  0
   -2.2483   -2.4393   29.2710 H   0  0  0  0  0  0  0  0  0  0  0  0
   -0.0997   -3.0611   28.0912 H   0  0  0  0  0  0  0  0  0  0  0  0
    4.9518   -3.7909   20.3517 H   0  0  0  0  0  0  0  0  0  0  0  0
    4.0688   -2.7882   17.7968 H   0  0  0  0  0  0  0  0  0  0  0  0
    4.9276   -0.7306   16.7564 H   0  0  0  0  0  0  0  0  0  0  0  0
    6.5937    1.3864   17.2188 H   0  0  0  0  0  0  0  0  0  0  0  0
  1  2  1  0
  2  3  2  0
  3  4  1  0
  4  5  2  0
  5  6  1  0
  6  7  2  0
  6  8  1  0
  8  9  1  0
  9 10  1  0
 10 11  1  0
  9 12  1  0
 12 13  1  0
 13 14  1  0
 14 15  2  0
 14 16  1  0
 16 17  1  0
 17 18  2  0
 18 19  1  0
 19 20  1  0
  5 21  1  0
 21 22  2  0
 22 23  1  0
 23 24  2  0
 24 25  1  0
 25  2  1  0
 24  4  1  0
 20 16  2  0
  1 26  1  0
  1 27  1  0
  1 28  1  0
  8 29  1  0
  9 30  1  0
 10 31  1  0
 10 32  1  0
 11 33  1  0
 12 34  1  0
 12 35  1  0
 13 36  1  0
 17 37  1  0
 19 38  1  0
 20 39  1  0
 21 40  1  0
 22 41  1  0
 23 42  1  0
 25 43  1  0
M  END
>  <Energy>  (194) 
572.16918151664993

>  <compound_id>  (194) 
11019

>  <target_id>  (194) 
1

>  <reference_id>  (194) 
7

>  <inspiration_ids>  (194) 
[55, 7]

>  <energy_score>  (194) 
473.7962391894786

>  <distance_score>  (194) 
10.255084269769634

>  <path>  (194) 
/opt/xchem-fragalysis-2/maxwin/BulkDock/SCRATCH/511013/C11019-P7/C11019-P7.minimised.mol

>  <scratch_subdir>  (194) 
/opt/xchem-fragalysis-2/maxwin/BulkDock/SCRATCH/511013/C11019-P7

>  <fragmenstein_runtime>  (194) 
10.053533792495728

>  <fragmenstein_outcome>  (194) 
too moved

>  <fragmenstein_mode>  (194) 
expansion

>  <fragmenstein_error>  (194) 


$$$$
C11020-P55
     RDKit          3D

 36 39  0  0  0  0  0  0  0  0999 V2000
    3.7840   -6.6666    9.8991 O   0  0  0  0  0  0  0  0  0  0  0  0
    4.0490   -7.4547   10.7627 C   0  0  0  0  0  0  0  0  0  0  0  0
    5.2886   -8.1576   11.0570 N   0  0  0  0  0  0  0  0  0  0  0  0
    6.6546   -8.0437   10.4488 C   0  0  0  0  0  0  0  0  0  0  0  0
    7.1585   -7.3052    9.2444 C   0  0  0  0  0  0  0  0  0  0  0  0
    8.2972   -6.1689    9.1503 C   0  0  0  0  0  0  0  0  0  0  0  0
    8.6867   -5.2799   10.5383 C   0  0  0  0  0  0  0  0  0  0  0  0
   10.5528   -4.7354   11.2426 N   0  0  0  0  0  0  0  0  0  0  0  0
   10.5682   -4.8381   13.1808 C   0  0  0  0  0  0  0  0  0  0  0  0
   11.3885   -3.6255   14.2111 C   0  0  0  0  0  0  0  0  0  0  0  0
   10.6308   -2.5694   15.0175 C   0  0  0  0  0  0  0  0  0  0  0  0
   11.7217   -1.5418   14.6704 C   0  0  0  0  0  0  0  0  0  0  0  0
   12.1666   -2.4793   13.5459 C   0  0  0  0  0  0  0  0  0  0  0  0
    8.8958   -5.5871   13.7058 N   0  0  0  0  0  0  0  0  0  0  0  0
    8.0759   -6.5431   12.0529 C   0  0  0  0  0  0  0  0  0  0  0  0
    7.4040   -7.8762   11.6812 C   0  0  0  0  0  0  0  0  0  0  0  0
    2.9493   -7.7231   11.8426 C   0  0  0  0  0  0  0  0  0  0  0  0
    2.9124   -8.4996   13.0625 C   0  0  0  0  0  0  0  0  0  0  0  0
    1.9009   -8.2094   13.9016 N   0  0  0  0  0  0  0  0  0  0  0  0
    1.2576   -7.2193   13.2686 N   0  0  0  0  0  0  0  0  0  0  0  0
    1.8265   -6.9081   12.0580 C   0  0  0  0  0  0  0  0  0  0  0  0
    5.1747   -8.6834   11.9122 H   0  0  0  0  0  0  0  0  0  0  0  0
    6.6237   -7.4779    8.3053 H   0  0  0  0  0  0  0  0  0  0  0  0
    8.6042   -5.7282    8.2066 H   0  0  0  0  0  0  0  0  0  0  0  0
   11.1793   -5.4267   10.8593 H   0  0  0  0  0  0  0  0  0  0  0  0
   12.0077   -4.1197   14.9628 H   0  0  0  0  0  0  0  0  0  0  0  0
    9.6093   -2.3299   14.7329 H   0  0  0  0  0  0  0  0  0  0  0  0
   10.6713   -2.7627   16.0858 H   0  0  0  0  0  0  0  0  0  0  0  0
   12.4728   -1.4130   15.4578 H   0  0  0  0  0  0  0  0  0  0  0  0
   11.3630   -0.5589   14.3545 H   0  0  0  0  0  0  0  0  0  0  0  0
   11.7677   -2.1573   12.6059 H   0  0  0  0  0  0  0  0  0  0  0  0
   13.2470   -2.5864   13.4458 H   0  0  0  0  0  0  0  0  0  0  0  0
    6.9821   -8.3400   12.5749 H   0  0  0  0  0  0  0  0  0  0  0  0
    3.6276   -9.2435   13.3899 H   0  0  0  0  0  0  0  0  0  0  0  0
    0.4509   -6.7932   13.7143 H   0  0  0  0  0  0  0  0  0  0  0  0
    1.4427   -6.0864   11.4685 H   0  0  0  0  0  0  0  0  0  0  0  0
  1  2  2  0
  2  3  1  0
  3  4  1  0
  4  5  2  0
  5  6  1  0
  6  7  2  0
  7  8  1  0
  8  9  1  0
  9 10  1  0
 10 11  1  0
 11 12  1  0
 12 13  1  0
  9 14  2  0
 14 15  1  0
 15 16  2  0
  2 17  1  0
 17 18  1  0
 18 19  2  0
 19 20  1  0
 20 21  1  0
 16  4  1  0
 21 17  2  0
 15  7  1  0
 13 10  1  0
  3 22  1  0
  5 23  1  0
  6 24  1  0
  8 25  1  0
 10 26  1  0
 11 27  1  0
 11 28  1  0
 12 29  1  0
 12 30  1  0
 13 31  1  0
 13 32  1  0
 16 33  1  0
 18 34  1  0
 20 35  1  0
 21 36  1  0
M  END
>  <Energy>  (195) 
836.11316895874199

>  <compound_id>  (195) 
11020

>  <target_id>  (195) 
1

>  <reference_id>  (195) 
55

>  <inspiration_ids>  (195) 
[55, 7]

>  <energy_score>  (195) 
782.7854738005061

>  <distance_score>  (195) 
17.42138261161277

>  <path>  (195) 
/opt/xchem-fragalysis-2/maxwin/BulkDock/SCRATCH/511013/C11020-P55/C11020-P55.minimised.mol

>  <scratch_subdir>  (195) 
/opt/xchem-fragalysis-2/maxwin/BulkDock/SCRATCH/511013/C11020-P55

>  <fragmenstein_runtime>  (195) 
10.148447036743164

>  <fragmenstein_outcome>  (195) 
too moved

>  <fragmenstein_mode>  (195) 
expansion

>  <fragmenstein_error>  (195) 


$$$$
C11020-P7
     RDKit          3D

 36 39  0  0  0  0  0  0  0  0999 V2000
    3.1916    3.3703   23.4487 O   0  0  0  0  0  0  0  0  0  0  0  0
    2.4509    3.6862   22.5644 C   0  0  0  0  0  0  0  0  0  0  0  0
    2.7028    3.8801   21.1342 N   0  0  0  0  0  0  0  0  0  0  0  0
    3.8848    3.6583   20.3498 C   0  0  0  0  0  0  0  0  0  0  0  0
    4.8142    2.7001   20.7723 C   0  0  0  0  0  0  0  0  0  0  0  0
    5.9101    2.2753   19.9929 C   0  0  0  0  0  0  0  0  0  0  0  0
    6.1323    2.9389   18.7935 C   0  0  0  0  0  0  0  0  0  0  0  0
    7.1073    2.8297   17.8344 N   0  0  0  0  0  0  0  0  0  0  0  0
    7.0331    3.9264   17.0258 C   0  0  0  0  0  0  0  0  0  0  0  0
    8.1493    4.3894   16.0106 C   0  0  0  0  0  0  0  0  0  0  0  0
    9.2837    5.2306   16.6475 C   0  0  0  0  0  0  0  0  0  0  0  0
   10.2138    4.0097   16.5756 C   0  0  0  0  0  0  0  0  0  0  0  0
    9.2300    3.3590   15.5981 C   0  0  0  0  0  0  0  0  0  0  0  0
    5.9009    4.5719   17.2481 N   0  0  0  0  0  0  0  0  0  0  0  0
    5.3263    3.9812   18.3665 C   0  0  0  0  0  0  0  0  0  0  0  0
    4.1442    4.2907   19.1132 C   0  0  0  0  0  0  0  0  0  0  0  0
    1.0156    3.7933   23.0236 C   0  0  0  0  0  0  0  0  0  0  0  0
    0.5476    3.4490   24.3534 C   0  0  0  0  0  0  0  0  0  0  0  0
   -0.7820    3.5091   24.5042 N   0  0  0  0  0  0  0  0  0  0  0  0
   -1.1896    3.9712   23.3143 N   0  0  0  0  0  0  0  0  0  0  0  0
   -0.1725    4.1212   22.3971 C   0  0  0  0  0  0  0  0  0  0  0  0
    1.8625    4.2285   20.6945 H   0  0  0  0  0  0  0  0  0  0  0  0
    4.6218    2.1391   21.6849 H   0  0  0  0  0  0  0  0  0  0  0  0
    6.5479    1.4739   20.3454 H   0  0  0  0  0  0  0  0  0  0  0  0
    7.8637    2.1715   17.8299 H   0  0  0  0  0  0  0  0  0  0  0  0
    7.6826    4.8809   15.1481 H   0  0  0  0  0  0  0  0  0  0  0  0
    9.1024    5.6139   17.6562 H   0  0  0  0  0  0  0  0  0  0  0  0
    9.6093    6.0641   16.0142 H   0  0  0  0  0  0  0  0  0  0  0  0
   11.2134    4.2036   16.1778 H   0  0  0  0  0  0  0  0  0  0  0  0
   10.3088    3.4631   17.5149 H   0  0  0  0  0  0  0  0  0  0  0  0
    9.0171    2.3048   15.7942 H   0  0  0  0  0  0  0  0  0  0  0  0
    9.5409    3.4598   14.5513 H   0  0  0  0  0  0  0  0  0  0  0  0
    3.4924    5.0731   18.7403 H   0  0  0  0  0  0  0  0  0  0  0  0
    1.1610    3.1185   25.1851 H   0  0  0  0  0  0  0  0  0  0  0  0
   -2.1779    4.1614   23.1818 H   0  0  0  0  0  0  0  0  0  0  0  0
   -0.3990    4.4430   21.3912 H   0  0  0  0  0  0  0  0  0  0  0  0
  1  2  2  0
  2  3  1  0
  3  4  1  0
  4  5  2  0
  5  6  1  0
  6  7  2  0
  7  8  1  0
  8  9  1  0
  9 10  1  0
 10 11  1  0
 11 12  1  0
 12 13  1  0
  9 14  2  0
 14 15  1  0
 15 16  2  0
  2 17  1  0
 17 18  1  0
 18 19  2  0
 19 20  1  0
 20 21  1  0
 16  4  1  0
 21 17  2  0
 15  7  1  0
 13 10  1  0
  3 22  1  0
  5 23  1  0
  6 24  1  0
  8 25  1  0
 10 26  1  0
 11 27  1  0
 11 28  1  0
 12 29  1  0
 12 30  1  0
 13 31  1  0
 13 32  1  0
 16 33  1  0
 18 34  1  0
 20 35  1  0
 21 36  1  0
M  END
>  <Energy>  (196) 
32.797272176361176

>  <compound_id>  (196) 
11020

>  <target_id>  (196) 
1

>  <reference_id>  (196) 
7

>  <inspiration_ids>  (196) 
[55, 7]

>  <energy_score>  (196) 
-20.530422981872732

>  <distance_score>  (196) 
12.538442157452113

>  <path>  (196) 
/opt/xchem-fragalysis-2/maxwin/BulkDock/SCRATCH/511013/C11020-P7/C11020-P7.minimised.mol

>  <scratch_subdir>  (196) 
/opt/xchem-fragalysis-2/maxwin/BulkDock/SCRATCH/511013/C11020-P7

>  <fragmenstein_runtime>  (196) 
9.322974681854248

>  <fragmenstein_outcome>  (196) 
too moved

>  <fragmenstein_mode>  (196) 
expansion

>  <fragmenstein_error>  (196) 


$$$$
C11021-P55
     RDKit          3D

 42 44  0  0  0  0  0  0  0  0999 V2000
    2.2281   -2.7072   27.7566 C   0  0  0  0  0  0  0  0  0  0  0  0
    3.1233   -1.9725   28.7510 C   0  0  0  0  0  0  0  0  0  0  0  0
    2.8384   -0.4818   28.7484 N   0  0  0  0  0  0  0  0  0  0  0  0
    4.1112   -0.4670   27.8322 C   0  0  0  0  0  0  0  0  0  0  0  0
    5.5601   -0.3783   28.4396 C   0  0  0  0  0  0  0  0  0  0  0  0
    6.6597   -0.6704   27.4869 N   0  0  0  0  0  0  0  0  0  0  0  0
    7.9711   -0.0589   27.3283 C   0  0  0  0  0  0  0  0  0  0  0  0
    8.4623    0.8869   27.8751 O   0  0  0  0  0  0  0  0  0  0  0  0
    8.9211   -0.7899   26.3916 C   0  0  0  0  0  0  0  0  0  0  0  0
    9.0714   -2.1948   26.4697 C   0  0  0  0  0  0  0  0  0  0  0  0
   10.0236   -2.8907   25.7052 C   0  0  0  0  0  0  0  0  0  0  0  0
   10.8699   -2.2266   24.8214 C   0  0  0  0  0  0  0  0  0  0  0  0
   10.7271   -0.8412   24.7509 C   0  0  0  0  0  0  0  0  0  0  0  0
   11.3946    0.0821   23.9812 N   0  0  0  0  0  0  0  0  0  0  0  0
   10.8737    1.3094   24.2490 C   0  0  0  0  0  0  0  0  0  0  0  0
    9.9121    1.2361   25.1429 N   0  0  0  0  0  0  0  0  0  0  0  0
    9.7992   -0.1025   25.4979 C   0  0  0  0  0  0  0  0  0  0  0  0
    2.6446   -0.0150   30.0918 C   0  0  0  0  0  0  0  0  0  0  0  0
    3.4323    0.4233   30.8863 O   0  0  0  0  0  0  0  0  0  0  0  0
    1.2104   -0.1315   30.5284 C   0  0  0  0  0  0  0  0  0  0  0  0
    0.6824    0.0698   31.8425 C   0  0  0  0  0  0  0  0  0  0  0  0
   -0.6397   -0.1325   31.9389 N   0  0  0  0  0  0  0  0  0  0  0  0
   -0.9921   -0.4362   30.6813 N   0  0  0  0  0  0  0  0  0  0  0  0
    0.0647   -0.4474   29.8110 C   0  0  0  0  0  0  0  0  0  0  0  0
    2.6429   -2.6674   26.7481 H   0  0  0  0  0  0  0  0  0  0  0  0
    2.1317   -3.7555   28.0456 H   0  0  0  0  0  0  0  0  0  0  0  0
    1.2216   -2.2829   27.7287 H   0  0  0  0  0  0  0  0  0  0  0  0
    4.1515   -2.3634   28.7617 H   0  0  0  0  0  0  0  0  0  0  0  0
    2.7683   -2.3264   29.7327 H   0  0  0  0  0  0  0  0  0  0  0  0
    4.0584   -1.1247   26.9502 H   0  0  0  0  0  0  0  0  0  0  0  0
    3.9875    0.5192   27.3556 H   0  0  0  0  0  0  0  0  0  0  0  0
    5.6943   -1.0762   29.2714 H   0  0  0  0  0  0  0  0  0  0  0  0
    5.7308    0.6258   28.8438 H   0  0  0  0  0  0  0  0  0  0  0  0
    6.6141   -1.5124   26.9170 H   0  0  0  0  0  0  0  0  0  0  0  0
    8.4645   -2.7569   27.1778 H   0  0  0  0  0  0  0  0  0  0  0  0
   10.1273   -3.9661   25.8301 H   0  0  0  0  0  0  0  0  0  0  0  0
   11.6106   -2.7557   24.2297 H   0  0  0  0  0  0  0  0  0  0  0  0
   12.0885   -0.1488   23.2794 H   0  0  0  0  0  0  0  0  0  0  0  0
   11.2205    2.2118   23.7640 H   0  0  0  0  0  0  0  0  0  0  0  0
    1.2378    0.3481   32.7303 H   0  0  0  0  0  0  0  0  0  0  0  0
   -1.9698   -0.6198   30.4817 H   0  0  0  0  0  0  0  0  0  0  0  0
   -0.0845   -0.6687   28.7641 H   0  0  0  0  0  0  0  0  0  0  0  0
  1  2  1  0
  2  3  1  0
  3  4  1  0
  4  5  1  0
  5  6  1  0
  6  7  1  0
  7  8  2  0
  7  9  1  0
  9 10  2  0
 10 11  1  0
 11 12  2  0
 12 13  1  0
 13 14  1  0
 14 15  1  0
 15 16  2  0
 16 17  1  0
  3 18  1  0
 18 19  2  0
 18 20  1  0
 20 21  1  0
 21 22  2  0
 22 23  1  0
 23 24  1  0
 17  9  1  0
 24 20  2  0
 17 13  2  0
  1 25  1  0
  1 26  1  0
  1 27  1  0
  2 28  1  0
  2 29  1  0
  4 30  1  0
  4 31  1  0
  5 32  1  0
  5 33  1  0
  6 34  1  0
 10 35  1  0
 11 36  1  0
 12 37  1  0
 14 38  1  0
 15 39  1  0
 21 40  1  0
 23 41  1  0
 24 42  1  0
M  END
>  <Energy>  (197) 
123.18035475131448

>  <compound_id>  (197) 
11021

>  <target_id>  (197) 
1

>  <reference_id>  (197) 
55

>  <inspiration_ids>  (197) 
[55, 7]

>  <energy_score>  (197) 
54.081524944712726

>  <distance_score>  (197) 
11.380374680168707

>  <path>  (197) 
/opt/xchem-fragalysis-2/maxwin/BulkDock/SCRATCH/511013/C11021-P55/C11021-P55.minimised.mol

>  <scratch_subdir>  (197) 
/opt/xchem-fragalysis-2/maxwin/BulkDock/SCRATCH/511013/C11021-P55

>  <fragmenstein_runtime>  (197) 
14.192150831222534

>  <fragmenstein_outcome>  (197) 
too moved

>  <fragmenstein_mode>  (197) 
expansion

>  <fragmenstein_error>  (197) 


$$$$
C11021-P7
     RDKit          3D

 42 44  0  0  0  0  0  0  0  0999 V2000
   -1.2707    6.2075   25.9595 C   0  0  0  0  0  0  0  0  0  0  0  0
   -0.1742    5.8000   24.9598 C   0  0  0  0  0  0  0  0  0  0  0  0
    0.4390    4.4172   25.2567 N   0  0  0  0  0  0  0  0  0  0  0  0
    1.4524    4.8810   24.1346 C   0  0  0  0  0  0  0  0  0  0  0  0
    2.6060    3.8602   23.8729 C   0  0  0  0  0  0  0  0  0  0  0  0
    3.5829    4.2686   22.8359 N   0  0  0  0  0  0  0  0  0  0  0  0
    4.5725    5.3218   22.8286 C   0  0  0  0  0  0  0  0  0  0  0  0
    4.8011    6.1832   23.6275 O   0  0  0  0  0  0  0  0  0  0  0  0
    5.4660    5.3265   21.6036 C   0  0  0  0  0  0  0  0  0  0  0  0
    4.9220    5.3995   20.3040 C   0  0  0  0  0  0  0  0  0  0  0  0
    5.7395    5.4970   19.1646 C   0  0  0  0  0  0  0  0  0  0  0  0
    7.1309    5.5693   19.2654 C   0  0  0  0  0  0  0  0  0  0  0  0
    7.6593    5.5188   20.5548 C   0  0  0  0  0  0  0  0  0  0  0  0
    8.9568    5.6153   21.0079 N   0  0  0  0  0  0  0  0  0  0  0  0
    8.9469    5.3596   22.3465 C   0  0  0  0  0  0  0  0  0  0  0  0
    7.7246    5.1897   22.7941 N   0  0  0  0  0  0  0  0  0  0  0  0
    6.8832    5.3455   21.7089 C   0  0  0  0  0  0  0  0  0  0  0  0
   -0.5903    3.3999   25.2373 C   0  0  0  0  0  0  0  0  0  0  0  0
   -0.9936    2.7120   24.3327 O   0  0  0  0  0  0  0  0  0  0  0  0
   -1.2293    3.1712   26.5691 C   0  0  0  0  0  0  0  0  0  0  0  0
   -2.5391    2.6554   26.8208 C   0  0  0  0  0  0  0  0  0  0  0  0
   -2.8514    2.5875   28.1196 N   0  0  0  0  0  0  0  0  0  0  0  0
   -1.7349    3.0053   28.7283 N   0  0  0  0  0  0  0  0  0  0  0  0
   -0.7528    3.3843   27.8524 C   0  0  0  0  0  0  0  0  0  0  0  0
   -1.5766    7.2421   25.7674 H   0  0  0  0  0  0  0  0  0  0  0  0
   -2.1677    5.5913   25.8580 H   0  0  0  0  0  0  0  0  0  0  0  0
   -0.9072    6.1532   26.9897 H   0  0  0  0  0  0  0  0  0  0  0  0
   -0.6690    5.8084   23.9762 H   0  0  0  0  0  0  0  0  0  0  0  0
    0.5353    6.6329   25.0722 H   0  0  0  0  0  0  0  0  0  0  0  0
    0.9440    4.9769   23.1632 H   0  0  0  0  0  0  0  0  0  0  0  0
    2.0021    5.7898   24.4197 H   0  0  0  0  0  0  0  0  0  0  0  0
    3.1668    3.7141   24.8021 H   0  0  0  0  0  0  0  0  0  0  0  0
    2.1959    2.8963   23.5665 H   0  0  0  0  0  0  0  0  0  0  0  0
    3.7345    3.6610   22.0228 H   0  0  0  0  0  0  0  0  0  0  0  0
    3.8407    5.3917   20.1804 H   0  0  0  0  0  0  0  0  0  0  0  0
    5.2715    5.5527   18.1828 H   0  0  0  0  0  0  0  0  0  0  0  0
    7.7568    5.6910   18.3876 H   0  0  0  0  0  0  0  0  0  0  0  0
    9.7859    5.7257   20.4383 H   0  0  0  0  0  0  0  0  0  0  0  0
    9.8529    5.3111   22.9366 H   0  0  0  0  0  0  0  0  0  0  0  0
   -3.2794    2.3528   26.0901 H   0  0  0  0  0  0  0  0  0  0  0  0
   -1.7105    3.0180   29.7429 H   0  0  0  0  0  0  0  0  0  0  0  0
    0.1968    3.7591   28.2077 H   0  0  0  0  0  0  0  0  0  0  0  0
  1  2  1  0
  2  3  1  0
  3  4  1  0
  4  5  1  0
  5  6  1  0
  6  7  1  0
  7  8  2  0
  7  9  1  0
  9 10  2  0
 10 11  1  0
 11 12  2  0
 12 13  1  0
 13 14  1  0
 14 15  1  0
 15 16  2  0
 16 17  1  0
  3 18  1  0
 18 19  2  0
 18 20  1  0
 20 21  1  0
 21 22  2  0
 22 23  1  0
 23 24  1  0
 17  9  1  0
 24 20  2  0
 17 13  2  0
  1 25  1  0
  1 26  1  0
  1 27  1  0
  2 28  1  0
  2 29  1  0
  4 30  1  0
  4 31  1  0
  5 32  1  0
  5 33  1  0
  6 34  1  0
 10 35  1  0
 11 36  1  0
 12 37  1  0
 14 38  1  0
 15 39  1  0
 21 40  1  0
 23 41  1  0
 24 42  1  0
M  END
>  <Energy>  (198) 
112.52540726150387

>  <compound_id>  (198) 
11021

>  <target_id>  (198) 
1

>  <reference_id>  (198) 
7

>  <inspiration_ids>  (198) 
[55, 7]

>  <energy_score>  (198) 
43.42657745490578

>  <distance_score>  (198) 
12.234533093651255

>  <path>  (198) 
/opt/xchem-fragalysis-2/maxwin/BulkDock/SCRATCH/511013/C11021-P7/C11021-P7.minimised.mol

>  <scratch_subdir>  (198) 
/opt/xchem-fragalysis-2/maxwin/BulkDock/SCRATCH/511013/C11021-P7

>  <fragmenstein_runtime>  (198) 
16.164745807647705

>  <fragmenstein_outcome>  (198) 
too moved

>  <fragmenstein_mode>  (198) 
expansion

>  <fragmenstein_error>  (198) 


$$$$
C11022-P55
     RDKit          3D

 45 47  0  0  0  0  0  0  0  0999 V2000
    2.8868   -1.4305   30.1109 C   0  0  0  0  0  0  0  0  0  0  0  0
    3.3047   -0.6497   28.8542 C   0  0  0  0  0  0  0  0  0  0  0  0
    2.1234   -0.3506   27.9289 N   0  0  0  0  0  0  0  0  0  0  0  0
    3.2866   -0.0371   26.9195 C   0  0  0  0  0  0  0  0  0  0  0  0
    3.7732   -1.1852   25.9840 C   0  0  0  0  0  0  0  0  0  0  0  0
    4.4842   -0.8124   24.7593 N   0  0  0  0  0  0  0  0  0  0  0  0
    4.7047   -1.6486   23.2311 C   0  0  0  0  0  0  0  0  0  0  0  0
    4.1435   -2.6328   23.1067 O   0  0  0  0  0  0  0  0  0  0  0  0
    5.8295   -0.9610   21.6613 C   0  0  0  0  0  0  0  0  0  0  0  0
    5.8601    0.4325   21.6256 C   0  0  0  0  0  0  0  0  0  0  0  0
    7.2385    1.5726   21.1189 C   0  0  0  0  0  0  0  0  0  0  0  0
    7.4198    1.5411   19.7394 C   0  0  0  0  0  0  0  0  0  0  0  0
    6.9277    0.3231   19.3644 C   0  0  0  0  0  0  0  0  0  0  0  0
    6.6751    0.0199   18.0682 N   0  0  0  0  0  0  0  0  0  0  0  0
    7.9861   -0.1986   17.9878 C   0  0  0  0  0  0  0  0  0  0  0  0
    8.7230    0.1119   16.6985 C   0  0  0  0  0  0  0  0  0  0  0  0
    8.1324   -1.0371   19.3389 N   0  0  0  0  0  0  0  0  0  0  0  0
    7.0432   -0.7869   20.2867 C   0  0  0  0  0  0  0  0  0  0  0  0
    1.1866    0.5286   28.5858 C   0  0  0  0  0  0  0  0  0  0  0  0
    1.1190    1.7285   28.5949 O   0  0  0  0  0  0  0  0  0  0  0  0
    0.0612   -0.1610   29.2925 C   0  0  0  0  0  0  0  0  0  0  0  0
   -0.8992    0.4704   30.1487 C   0  0  0  0  0  0  0  0  0  0  0  0
   -1.7900   -0.3713   30.6872 N   0  0  0  0  0  0  0  0  0  0  0  0
   -1.4180   -1.5576   30.1836 N   0  0  0  0  0  0  0  0  0  0  0  0
   -0.3587   -1.4795   29.3184 C   0  0  0  0  0  0  0  0  0  0  0  0
    2.2458   -0.8384   30.7691 H   0  0  0  0  0  0  0  0  0  0  0  0
    3.7767   -1.6981   30.6914 H   0  0  0  0  0  0  0  0  0  0  0  0
    2.3708   -2.3574   29.8436 H   0  0  0  0  0  0  0  0  0  0  0  0
    4.0765   -1.3063   28.4337 H   0  0  0  0  0  0  0  0  0  0  0  0
    3.7391    0.2917   29.2279 H   0  0  0  0  0  0  0  0  0  0  0  0
    2.7953    0.6911   26.2608 H   0  0  0  0  0  0  0  0  0  0  0  0
    4.1097    0.6011   27.2883 H   0  0  0  0  0  0  0  0  0  0  0  0
    2.9463   -1.8237   25.6991 H   0  0  0  0  0  0  0  0  0  0  0  0
    4.4691   -1.8351   26.5196 H   0  0  0  0  0  0  0  0  0  0  0  0
    4.9473    0.0563   24.7037 H   0  0  0  0  0  0  0  0  0  0  0  0
    4.8783    0.7313   21.9909 H   0  0  0  0  0  0  0  0  0  0  0  0
    7.2036    2.6571   21.3787 H   0  0  0  0  0  0  0  0  0  0  0  0
    7.4111    2.3113   18.9704 H   0  0  0  0  0  0  0  0  0  0  0  0
    6.2371    0.5784   17.3574 H   0  0  0  0  0  0  0  0  0  0  0  0
    8.4798   -0.6458   15.9456 H   0  0  0  0  0  0  0  0  0  0  0  0
    9.8053    0.1717   16.7703 H   0  0  0  0  0  0  0  0  0  0  0  0
    8.3890    1.0836   16.3178 H   0  0  0  0  0  0  0  0  0  0  0  0
   -0.9482    1.5231   30.3945 H   0  0  0  0  0  0  0  0  0  0  0  0
   -1.9293   -2.3836   30.4744 H   0  0  0  0  0  0  0  0  0  0  0  0
    0.0265   -2.3581   28.8197 H   0  0  0  0  0  0  0  0  0  0  0  0
  1  2  1  0
  2  3  1  0
  3  4  1  0
  4  5  1  0
  5  6  1  0
  6  7  1  0
  7  8  2  0
  7  9  1  0
  9 10  2  0
 10 11  1  0
 11 12  2  0
 12 13  1  0
 13 14  1  0
 14 15  1  0
 15 16  1  0
 15 17  2  0
 17 18  1  0
  3 19  1  0
 19 20  2  0
 19 21  1  0
 21 22  1  0
 22 23  2  0
 23 24  1  0
 24 25  1  0
 18  9  1  0
 25 21  2  0
 18 13  2  0
  1 26  1  0
  1 27  1  0
  1 28  1  0
  2 29  1  0
  2 30  1  0
  4 31  1  0
  4 32  1  0
  5 33  1  0
  5 34  1  0
  6 35  1  0
 10 36  1  0
 11 37  1  0
 12 38  1  0
 14 39  1  0
 16 40  1  0
 16 41  1  0
 16 42  1  0
 22 43  1  0
 24 44  1  0
 25 45  1  0
M  END
>  <Energy>  (199) 
679.59878762581513

>  <compound_id>  (199) 
11022

>  <target_id>  (199) 
1

>  <reference_id>  (199) 
55

>  <inspiration_ids>  (199) 
[55, 7]

>  <energy_score>  (199) 
604.9453573368725

>  <distance_score>  (199) 
10.134640487510119

>  <path>  (199) 
/opt/xchem-fragalysis-2/maxwin/BulkDock/SCRATCH/511013/C11022-P55/C11022-P55.minimised.mol

>  <scratch_subdir>  (199) 
/opt/xchem-fragalysis-2/maxwin/BulkDock/SCRATCH/511013/C11022-P55

>  <fragmenstein_runtime>  (199) 
10.883939504623413

>  <fragmenstein_outcome>  (199) 
too moved

>  <fragmenstein_mode>  (199) 
expansion

>  <fragmenstein_error>  (199) 


$$$$
C11022-P7
     RDKit          3D

 45 47  0  0  0  0  0  0  0  0999 V2000
    0.6432    3.2565   30.2701 C   0  0  0  0  0  0  0  0  0  0  0  0
    0.3484    3.6762   28.8156 C   0  0  0  0  0  0  0  0  0  0  0  0
   -0.6500    2.7846   28.0795 N   0  0  0  0  0  0  0  0  0  0  0  0
   -0.4492    3.8558   26.9725 C   0  0  0  0  0  0  0  0  0  0  0  0
    0.7978    4.5773   26.3326 C   0  0  0  0  0  0  0  0  0  0  0  0
    1.7669    3.7453   25.6695 N   0  0  0  0  0  0  0  0  0  0  0  0
    1.8613    3.3128   24.2933 C   0  0  0  0  0  0  0  0  0  0  0  0
    1.2015    3.6006   23.3387 O   0  0  0  0  0  0  0  0  0  0  0  0
    2.9136    2.2520   24.0916 C   0  0  0  0  0  0  0  0  0  0  0  0
    3.0839    1.3406   25.2233 C   0  0  0  0  0  0  0  0  0  0  0  0
    3.9586    0.2620   25.3005 C   0  0  0  0  0  0  0  0  0  0  0  0
    4.7435   -0.0054   24.1695 C   0  0  0  0  0  0  0  0  0  0  0  0
    4.7870    0.8533   22.6021 C   0  0  0  0  0  0  0  0  0  0  0  0
    6.3990    1.5239   21.8971 N   0  0  0  0  0  0  0  0  0  0  0  0
    6.1952    3.3774   22.0700 C   0  0  0  0  0  0  0  0  0  0  0  0
    7.2078    4.4689   22.2688 C   0  0  0  0  0  0  0  0  0  0  0  0
    4.8174    3.6248   22.5809 N   0  0  0  0  0  0  0  0  0  0  0  0
    3.7583    2.2183   22.8546 C   0  0  0  0  0  0  0  0  0  0  0  0
   -0.2334    1.4205   28.1447 C   0  0  0  0  0  0  0  0  0  0  0  0
    0.4561    0.7800   27.4017 O   0  0  0  0  0  0  0  0  0  0  0  0
   -0.8826    0.7403   29.2933 C   0  0  0  0  0  0  0  0  0  0  0  0
   -2.2582    0.7872   29.6363 C   0  0  0  0  0  0  0  0  0  0  0  0
   -2.5885    0.0540   30.7063 N   0  0  0  0  0  0  0  0  0  0  0  0
   -1.4249   -0.5348   31.0267 N   0  0  0  0  0  0  0  0  0  0  0  0
   -0.3918   -0.1810   30.1986 C   0  0  0  0  0  0  0  0  0  0  0  0
   -0.2573    3.1237   30.8664 H   0  0  0  0  0  0  0  0  0  0  0  0
    1.2549    4.0258   30.7545 H   0  0  0  0  0  0  0  0  0  0  0  0
    1.2213    2.3279   30.3063 H   0  0  0  0  0  0  0  0  0  0  0  0
    1.3471    3.5835   28.3677 H   0  0  0  0  0  0  0  0  0  0  0  0
   -0.0061    4.7145   28.9130 H   0  0  0  0  0  0  0  0  0  0  0  0
   -0.8933    3.3230   26.1167 H   0  0  0  0  0  0  0  0  0  0  0  0
   -1.1948    4.6371   27.2001 H   0  0  0  0  0  0  0  0  0  0  0  0
    1.3332    5.2126   27.0453 H   0  0  0  0  0  0  0  0  0  0  0  0
    0.4042    5.2527   25.5625 H   0  0  0  0  0  0  0  0  0  0  0  0
    2.5438    3.3617   26.1903 H   0  0  0  0  0  0  0  0  0  0  0  0
    2.4248    1.4333   26.0859 H   0  0  0  0  0  0  0  0  0  0  0  0
    3.9505   -0.4223   26.1416 H   0  0  0  0  0  0  0  0  0  0  0  0
    5.1512   -1.0292   24.1863 H   0  0  0  0  0  0  0  0  0  0  0  0
    7.0350    1.2388   21.1710 H   0  0  0  0  0  0  0  0  0  0  0  0
    8.2236    4.1299   22.4803 H   0  0  0  0  0  0  0  0  0  0  0  0
    6.9149    5.0308   23.1660 H   0  0  0  0  0  0  0  0  0  0  0  0
    7.1531    5.1951   21.4534 H   0  0  0  0  0  0  0  0  0  0  0  0
   -3.0178    1.3435   29.1070 H   0  0  0  0  0  0  0  0  0  0  0  0
   -1.4043   -1.1802   31.8100 H   0  0  0  0  0  0  0  0  0  0  0  0
    0.5947   -0.6060   30.3199 H   0  0  0  0  0  0  0  0  0  0  0  0
  1  2  1  0
  2  3  1  0
  3  4  1  0
  4  5  1  0
  5  6  1  0
  6  7  1  0
  7  8  2  0
  7  9  1  0
  9 10  2  0
 10 11  1  0
 11 12  2  0
 12 13  1  0
 13 14  1  0
 14 15  1  0
 15 16  1  0
 15 17  2  0
 17 18  1  0
  3 19  1  0
 19 20  2  0
 19 21  1  0
 21 22  1  0
 22 23  2  0
 23 24  1  0
 24 25  1  0
 18  9  1  0
 25 21  2  0
 18 13  2  0
  1 26  1  0
  1 27  1  0
  1 28  1  0
  2 29  1  0
  2 30  1  0
  4 31  1  0
  4 32  1  0
  5 33  1  0
  5 34  1  0
  6 35  1  0
 10 36  1  0
 11 37  1  0
 12 38  1  0
 14 39  1  0
 16 40  1  0
 16 41  1  0
 16 42  1  0
 22 43  1  0
 24 44  1  0
 25 45  1  0
M  END
>  <Energy>  (200) 
435.38691376289773

>  <compound_id>  (200) 
11022

>  <target_id>  (200) 
1

>  <reference_id>  (200) 
7

>  <inspiration_ids>  (200) 
[55, 7]

>  <energy_score>  (200) 
360.7334834739531

>  <distance_score>  (200) 
11.85140579659868

>  <path>  (200) 
/opt/xchem-fragalysis-2/maxwin/BulkDock/SCRATCH/511013/C11022-P7/C11022-P7.minimised.mol

>  <scratch_subdir>  (200) 
/opt/xchem-fragalysis-2/maxwin/BulkDock/SCRATCH/511013/C11022-P7

>  <fragmenstein_runtime>  (200) 
13.762738943099976

>  <fragmenstein_outcome>  (200) 
too moved

>  <fragmenstein_mode>  (200) 
expansion

>  <fragmenstein_error>  (200) 


$$$$
C11027-P55
     RDKit          3D

 38 40  0  0  0  0  0  0  0  0999 V2000
    4.0453   -2.1375   12.2026 C   0  0  0  0  0  0  0  0  0  0  0  0
    3.2983   -2.5681   13.4321 C   0  0  0  0  0  0  0  0  0  0  0  0
    2.5544   -3.7604   13.4499 C   0  0  0  0  0  0  0  0  0  0  0  0
    1.8401   -4.1895   14.5834 C   0  0  0  0  0  0  0  0  0  0  0  0
    1.7716   -3.3035   15.6599 C   0  0  0  0  0  0  0  0  0  0  0  0
    2.4833   -2.0980   15.6444 C   0  0  0  0  0  0  0  0  0  0  0  0
    3.3098   -1.7550   14.5660 C   0  0  0  0  0  0  0  0  0  0  0  0
    2.1750   -1.3389   16.7254 N   0  0  0  0  0  0  0  0  0  0  0  0
    1.2116   -1.9994   17.3229 C   0  0  0  0  0  0  0  0  0  0  0  0
    1.0490   -3.2814   16.8515 N   0  0  0  0  0  0  0  0  0  0  0  0
    0.4737   -4.4463   17.5981 C   0  0  0  0  0  0  0  0  0  0  0  0
   -1.0552   -4.5050   17.9939 C   0  0  0  0  0  0  0  0  0  0  0  0
   -1.8478   -3.9774   17.2582 O   0  0  0  0  0  0  0  0  0  0  0  0
   -1.2721   -5.3309   19.2308 N   0  0  0  0  0  0  0  0  0  0  0  0
   -2.5486   -5.8368   19.8741 C   0  0  0  0  0  0  0  0  0  0  0  0
   -3.7165   -5.7824   18.8857 C   0  0  0  0  0  0  0  0  0  0  0  0
   -2.9577   -5.3056   21.3055 C   0  0  0  0  0  0  0  0  0  0  0  0
   -2.2463   -5.3792   22.5437 C   0  0  0  0  0  0  0  0  0  0  0  0
   -2.9377   -4.9374   23.6064 N   0  0  0  0  0  0  0  0  0  0  0  0
   -4.1219   -4.5868   23.0837 N   0  0  0  0  0  0  0  0  0  0  0  0
   -4.1745   -4.7648   21.7263 C   0  0  0  0  0  0  0  0  0  0  0  0
    5.0382   -1.7602   12.4690 H   0  0  0  0  0  0  0  0  0  0  0  0
    3.4899   -1.3497   11.6843 H   0  0  0  0  0  0  0  0  0  0  0  0
    4.1876   -2.9739   11.5105 H   0  0  0  0  0  0  0  0  0  0  0  0
    2.5464   -4.3975   12.5659 H   0  0  0  0  0  0  0  0  0  0  0  0
    1.2781   -5.1163   14.5635 H   0  0  0  0  0  0  0  0  0  0  0  0
    3.8504   -0.8174   14.5888 H   0  0  0  0  0  0  0  0  0  0  0  0
    0.6480   -1.5864   18.1381 H   0  0  0  0  0  0  0  0  0  0  0  0
    1.0883   -4.5620   18.4921 H   0  0  0  0  0  0  0  0  0  0  0  0
    0.6590   -5.3235   16.9672 H   0  0  0  0  0  0  0  0  0  0  0  0
   -0.3798   -5.6865   19.5554 H   0  0  0  0  0  0  0  0  0  0  0  0
   -2.3290   -6.9008   20.0414 H   0  0  0  0  0  0  0  0  0  0  0  0
   -3.4477   -6.2531   17.9338 H   0  0  0  0  0  0  0  0  0  0  0  0
   -4.5926   -6.3102   19.2783 H   0  0  0  0  0  0  0  0  0  0  0  0
   -4.0142   -4.7485   18.6791 H   0  0  0  0  0  0  0  0  0  0  0  0
   -1.2438   -5.7593   22.7009 H   0  0  0  0  0  0  0  0  0  0  0  0
   -4.8495   -4.2435   23.7035 H   0  0  0  0  0  0  0  0  0  0  0  0
   -5.0809   -4.5365   21.1822 H   0  0  0  0  0  0  0  0  0  0  0  0
  1  2  1  0
  2  3  2  0
  3  4  1  0
  4  5  2  0
  5  6  1  0
  6  7  2  0
  6  8  1  0
  8  9  2  0
  9 10  1  0
 10 11  1  0
 11 12  1  0
 12 13  2  0
 12 14  1  0
 14 15  1  0
 15 16  1  0
 15 17  1  0
 17 18  1  0
 18 19  2  0
 19 20  1  0
 20 21  1  0
  7  2  1  0
 21 17  2  0
 10  5  1  0
  1 22  1  0
  1 23  1  0
  1 24  1  0
  3 25  1  0
  4 26  1  0
  7 27  1  0
  9 28  1  0
 11 29  1  0
 11 30  1  0
 14 31  1  0
 15 32  1  0
 16 33  1  0
 16 34  1  0
 16 35  1  0
 18 36  1  0
 20 37  1  0
 21 38  1  0
M  END
>  <Energy>  (201) 
44.489606211704768

>  <compound_id>  (201) 
11027

>  <target_id>  (201) 
1

>  <reference_id>  (201) 
55

>  <inspiration_ids>  (201) 
[55, 7]

>  <energy_score>  (201) 
9.29865300978318

>  <distance_score>  (201) 
14.24841599642154

>  <path>  (201) 
/opt/xchem-fragalysis-2/maxwin/BulkDock/SCRATCH/511013/C11027-P55/C11027-P55.minimised.mol

>  <scratch_subdir>  (201) 
/opt/xchem-fragalysis-2/maxwin/BulkDock/SCRATCH/511013/C11027-P55

>  <fragmenstein_runtime>  (201) 
8.042239427566528

>  <fragmenstein_outcome>  (201) 
too moved

>  <fragmenstein_mode>  (201) 
expansion

>  <fragmenstein_error>  (201) 


$$$$
C11027-P7
     RDKit          3D

 38 40  0  0  0  0  0  0  0  0999 V2000
    9.6141    1.2674   15.4105 C   0  0  0  0  0  0  0  0  0  0  0  0
    8.5537    1.1829   16.4664 C   0  0  0  0  0  0  0  0  0  0  0  0
    8.0328    2.2755   17.0848 C   0  0  0  0  0  0  0  0  0  0  0  0
    7.3693    2.1060   18.3224 C   0  0  0  0  0  0  0  0  0  0  0  0
    7.2173    0.7741   19.1198 C   0  0  0  0  0  0  0  0  0  0  0  0
    7.7613   -0.2164   18.4665 C   0  0  0  0  0  0  0  0  0  0  0  0
    8.2561   -0.0390   17.0443 C   0  0  0  0  0  0  0  0  0  0  0  0
    8.1030   -1.0815   19.5120 N   0  0  0  0  0  0  0  0  0  0  0  0
    7.2730   -1.1214   20.5069 C   0  0  0  0  0  0  0  0  0  0  0  0
    6.5815    0.0771   20.6610 N   0  0  0  0  0  0  0  0  0  0  0  0
    4.8238    0.4123   21.5833 C   0  0  0  0  0  0  0  0  0  0  0  0
    3.4355    1.6769   22.3581 C   0  0  0  0  0  0  0  0  0  0  0  0
    3.5494    1.7296   23.5507 O   0  0  0  0  0  0  0  0  0  0  0  0
    2.5204    2.3943   21.4943 N   0  0  0  0  0  0  0  0  0  0  0  0
    1.5196    3.4815   21.7949 C   0  0  0  0  0  0  0  0  0  0  0  0
    0.7859    3.9808   20.5655 C   0  0  0  0  0  0  0  0  0  0  0  0
    0.6159    3.3277   23.1021 C   0  0  0  0  0  0  0  0  0  0  0  0
   -0.8040    3.2034   23.2614 C   0  0  0  0  0  0  0  0  0  0  0  0
   -1.2217    3.0757   24.5307 N   0  0  0  0  0  0  0  0  0  0  0  0
   -0.0824    3.1608   25.2307 N   0  0  0  0  0  0  0  0  0  0  0  0
    1.0188    3.3297   24.4362 C   0  0  0  0  0  0  0  0  0  0  0  0
   10.5950    1.0985   15.8692 H   0  0  0  0  0  0  0  0  0  0  0  0
    9.6432    2.2578   14.9456 H   0  0  0  0  0  0  0  0  0  0  0  0
    9.4671    0.5075   14.6368 H   0  0  0  0  0  0  0  0  0  0  0  0
    8.2306    3.2795   16.7162 H   0  0  0  0  0  0  0  0  0  0  0  0
    7.2333    3.0817   18.7778 H   0  0  0  0  0  0  0  0  0  0  0  0
    8.6594   -0.8944   16.4892 H   0  0  0  0  0  0  0  0  0  0  0  0
    7.0840   -1.9920   21.1280 H   0  0  0  0  0  0  0  0  0  0  0  0
    5.0855    0.6063   22.6260 H   0  0  0  0  0  0  0  0  0  0  0  0
    4.7887   -0.6391   21.9299 H   0  0  0  0  0  0  0  0  0  0  0  0
    2.7433    2.1820   20.5459 H   0  0  0  0  0  0  0  0  0  0  0  0
    2.1841    4.3108   22.0837 H   0  0  0  0  0  0  0  0  0  0  0  0
    0.1008    3.2358   20.1788 H   0  0  0  0  0  0  0  0  0  0  0  0
    0.2038    4.8808   20.7906 H   0  0  0  0  0  0  0  0  0  0  0  0
    1.4909    4.2247   19.7634 H   0  0  0  0  0  0  0  0  0  0  0  0
   -1.5547    3.1936   22.4916 H   0  0  0  0  0  0  0  0  0  0  0  0
   -0.1195    3.1018   26.2431 H   0  0  0  0  0  0  0  0  0  0  0  0
    2.0068    3.4029   24.8712 H   0  0  0  0  0  0  0  0  0  0  0  0
  1  2  1  0
  2  3  2  0
  3  4  1  0
  4  5  2  0
  5  6  1  0
  6  7  2  0
  6  8  1  0
  8  9  2  0
  9 10  1  0
 10 11  1  0
 11 12  1  0
 12 13  2  0
 12 14  1  0
 14 15  1  0
 15 16  1  0
 15 17  1  0
 17 18  1  0
 18 19  2  0
 19 20  1  0
 20 21  1  0
  7  2  1  0
 21 17  2  0
 10  5  1  0
  1 22  1  0
  1 23  1  0
  1 24  1  0
  3 25  1  0
  4 26  1  0
  7 27  1  0
  9 28  1  0
 11 29  1  0
 11 30  1  0
 14 31  1  0
 15 32  1  0
 16 33  1  0
 16 34  1  0
 16 35  1  0
 18 36  1  0
 20 37  1  0
 21 38  1  0
M  END
>  <Energy>  (202) 
384.92002136647653

>  <compound_id>  (202) 
11027

>  <target_id>  (202) 
1

>  <reference_id>  (202) 
7

>  <inspiration_ids>  (202) 
[55, 7]

>  <energy_score>  (202) 
349.72906816455196

>  <distance_score>  (202) 
12.8973964280772

>  <path>  (202) 
/opt/xchem-fragalysis-2/maxwin/BulkDock/SCRATCH/511013/C11027-P7/C11027-P7.minimised.mol

>  <scratch_subdir>  (202) 
/opt/xchem-fragalysis-2/maxwin/BulkDock/SCRATCH/511013/C11027-P7

>  <fragmenstein_runtime>  (202) 
7.354596853256226

>  <fragmenstein_outcome>  (202) 
too moved

>  <fragmenstein_mode>  (202) 
expansion

>  <fragmenstein_error>  (202) 


$$$$
C11032-P55
     RDKit          3D

 45 47  0  0  0  0  0  0  0  0999 V2000
   13.9025    1.8526   21.3363 C   0  0  0  0  0  0  0  0  0  0  0  0
   12.8140    1.7120   22.3366 C   0  0  0  0  0  0  0  0  0  0  0  0
   12.6162    0.7056   23.1626 N   0  0  0  0  0  0  0  0  0  0  0  0
   11.4843    1.0016   23.8883 C   0  0  0  0  0  0  0  0  0  0  0  0
   10.7985    0.2746   24.8962 C   0  0  0  0  0  0  0  0  0  0  0  0
    9.6985    0.8535   25.5892 C   0  0  0  0  0  0  0  0  0  0  0  0
    8.9620    0.0416   26.6830 C   0  0  0  0  0  0  0  0  0  0  0  0
    9.6261   -0.8362   27.1575 O   0  0  0  0  0  0  0  0  0  0  0  0
    7.5861    0.4407   26.9500 N   0  0  0  0  0  0  0  0  0  0  0  0
    6.5374   -0.1757   27.8246 C   0  0  0  0  0  0  0  0  0  0  0  0
    6.8354    0.1587   29.2841 C   0  0  0  0  0  0  0  0  0  0  0  0
    5.0570    0.2640   27.4401 C   0  0  0  0  0  0  0  0  0  0  0  0
    3.8055   -0.1035   28.3062 N   0  0  0  0  0  0  0  0  0  0  0  0
    3.8674   -1.3549   27.4763 C   0  0  0  0  0  0  0  0  0  0  0  0
    2.4618    0.4336   28.2965 C   0  0  0  0  0  0  0  0  0  0  0  0
    1.9472    1.2336   27.5601 O   0  0  0  0  0  0  0  0  0  0  0  0
    1.5680   -0.0845   29.3814 C   0  0  0  0  0  0  0  0  0  0  0  0
    0.1665    0.1973   29.5287 C   0  0  0  0  0  0  0  0  0  0  0  0
   -0.4014   -0.3881   30.5916 N   0  0  0  0  0  0  0  0  0  0  0  0
    0.6271   -1.0371   31.1568 N   0  0  0  0  0  0  0  0  0  0  0  0
    1.8082   -0.8980   30.4741 C   0  0  0  0  0  0  0  0  0  0  0  0
    9.3484    2.1670   25.2486 C   0  0  0  0  0  0  0  0  0  0  0  0
    9.9579    2.8744   24.1876 C   0  0  0  0  0  0  0  0  0  0  0  0
   11.0212    2.2594   23.5324 C   0  0  0  0  0  0  0  0  0  0  0  0
   11.8522    2.6712   22.5181 N   0  0  0  0  0  0  0  0  0  0  0  0
   13.6080    2.5088   20.5115 H   0  0  0  0  0  0  0  0  0  0  0  0
   14.1654    0.8751   20.9204 H   0  0  0  0  0  0  0  0  0  0  0  0
   14.7938    2.2743   21.8106 H   0  0  0  0  0  0  0  0  0  0  0  0
   11.1513   -0.7215   25.1485 H   0  0  0  0  0  0  0  0  0  0  0  0
    7.3244    1.1701   26.3074 H   0  0  0  0  0  0  0  0  0  0  0  0
    6.6642   -1.2545   27.6933 H   0  0  0  0  0  0  0  0  0  0  0  0
    6.1273   -0.3384   29.9545 H   0  0  0  0  0  0  0  0  0  0  0  0
    6.7784    1.2383   29.4605 H   0  0  0  0  0  0  0  0  0  0  0  0
    7.8440   -0.1663   29.5613 H   0  0  0  0  0  0  0  0  0  0  0  0
    4.8812    0.2311   26.3523 H   0  0  0  0  0  0  0  0  0  0  0  0
    5.0683    1.3575   27.5875 H   0  0  0  0  0  0  0  0  0  0  0  0
    3.5827   -1.2153   26.4223 H   0  0  0  0  0  0  0  0  0  0  0  0
    3.0586   -1.9960   27.8587 H   0  0  0  0  0  0  0  0  0  0  0  0
    4.7569   -1.9722   27.6327 H   0  0  0  0  0  0  0  0  0  0  0  0
   -0.4429    0.8135   28.8785 H   0  0  0  0  0  0  0  0  0  0  0  0
    0.4598   -1.5548   32.0126 H   0  0  0  0  0  0  0  0  0  0  0  0
    2.7136   -1.3716   30.8251 H   0  0  0  0  0  0  0  0  0  0  0  0
    8.5913    2.6973   25.8219 H   0  0  0  0  0  0  0  0  0  0  0  0
    9.6428    3.8833   23.9407 H   0  0  0  0  0  0  0  0  0  0  0  0
   11.7963    3.5446   22.0137 H   0  0  0  0  0  0  0  0  0  0  0  0
  1  2  1  0
  2  3  2  0
  3  4  1  0
  4  5  2  0
  5  6  1  0
  6  7  1  0
  7  8  2  0
  7  9  1  0
  9 10  1  0
 10 11  1  0
 10 12  1  0
 12 13  1  0
 13 14  1  0
 13 15  1  0
 15 16  2  0
 15 17  1  0
 17 18  1  0
 18 19  2  0
 19 20  1  0
 20 21  1  0
  6 22  2  0
 22 23  1  0
 23 24  2  0
 24 25  1  0
 25  2  1  0
 24  4  1  0
 21 17  2  0
  1 26  1  0
  1 27  1  0
  1 28  1  0
  5 29  1  0
  9 30  1  0
 10 31  1  0
 11 32  1  0
 11 33  1  0
 11 34  1  0
 12 35  1  0
 12 36  1  0
 14 37  1  0
 14 38  1  0
 14 39  1  0
 18 40  1  0
 20 41  1  0
 21 42  1  0
 22 43  1  0
 23 44  1  0
 25 45  1  0
M  END
>  <Energy>  (203) 
99.262799970907523

>  <compound_id>  (203) 
11032

>  <target_id>  (203) 
1

>  <reference_id>  (203) 
55

>  <inspiration_ids>  (203) 
[55, 7]

>  <energy_score>  (203) 
50.67015190559479

>  <distance_score>  (203) 
11.27456731516361

>  <path>  (203) 
/opt/xchem-fragalysis-2/maxwin/BulkDock/SCRATCH/511013/C11032-P55/C11032-P55.minimised.mol

>  <scratch_subdir>  (203) 
/opt/xchem-fragalysis-2/maxwin/BulkDock/SCRATCH/511013/C11032-P55

>  <fragmenstein_runtime>  (203) 
16.30772113800049

>  <fragmenstein_outcome>  (203) 
too moved

>  <fragmenstein_mode>  (203) 
expansion

>  <fragmenstein_error>  (203) 


$$$$
C11032-P7
     RDKit          3D

 45 47  0  0  0  0  0  0  0  0999 V2000
   12.4175   -0.9884   16.6549 C   0  0  0  0  0  0  0  0  0  0  0  0
   11.4033   -1.1468   17.7211 C   0  0  0  0  0  0  0  0  0  0  0  0
    9.8984   -0.1132   18.0663 N   0  0  0  0  0  0  0  0  0  0  0  0
    8.8064   -0.9455   19.6412 C   0  0  0  0  0  0  0  0  0  0  0  0
    7.2983   -0.9333   20.4004 C   0  0  0  0  0  0  0  0  0  0  0  0
    6.2852   -2.1304   21.2740 C   0  0  0  0  0  0  0  0  0  0  0  0
    5.5184   -2.1925   23.2854 C   0  0  0  0  0  0  0  0  0  0  0  0
    6.1854   -2.9668   23.9576 O   0  0  0  0  0  0  0  0  0  0  0  0
    4.5118   -1.3935   23.6643 N   0  0  0  0  0  0  0  0  0  0  0  0
    3.7508   -1.2265   25.0541 C   0  0  0  0  0  0  0  0  0  0  0  0
    3.8218   -2.4068   25.9737 C   0  0  0  0  0  0  0  0  0  0  0  0
    3.8438    0.0701   25.9463 C   0  0  0  0  0  0  0  0  0  0  0  0
    2.7039    0.0126   27.1275 N   0  0  0  0  0  0  0  0  0  0  0  0
    3.8467    0.4718   27.9573 C   0  0  0  0  0  0  0  0  0  0  0  0
    1.5520    0.8472   27.3653 C   0  0  0  0  0  0  0  0  0  0  0  0
    1.1870    1.8510   26.8096 O   0  0  0  0  0  0  0  0  0  0  0  0
    0.6217    0.3054   28.4110 C   0  0  0  0  0  0  0  0  0  0  0  0
    0.5910   -0.9158   29.1356 C   0  0  0  0  0  0  0  0  0  0  0  0
   -0.4576   -1.0337   29.9682 N   0  0  0  0  0  0  0  0  0  0  0  0
   -1.1397    0.1040   29.7683 N   0  0  0  0  0  0  0  0  0  0  0  0
   -0.5396    0.9318   28.8644 C   0  0  0  0  0  0  0  0  0  0  0  0
    7.6867   -3.3687   21.4848 C   0  0  0  0  0  0  0  0  0  0  0  0
    9.1049   -3.6213   21.1145 C   0  0  0  0  0  0  0  0  0  0  0  0
    9.7457   -2.5286   20.2346 C   0  0  0  0  0  0  0  0  0  0  0  0
   11.5579   -2.5081   19.1598 N   0  0  0  0  0  0  0  0  0  0  0  0
   13.3788   -0.7000   17.0878 H   0  0  0  0  0  0  0  0  0  0  0  0
   12.5430   -1.9291   16.1121 H   0  0  0  0  0  0  0  0  0  0  0  0
   12.1041   -0.2151   15.9488 H   0  0  0  0  0  0  0  0  0  0  0  0
    6.8411   -0.1129   19.9131 H   0  0  0  0  0  0  0  0  0  0  0  0
    4.2493   -0.8336   22.8795 H   0  0  0  0  0  0  0  0  0  0  0  0
    2.7188   -1.2744   24.7692 H   0  0  0  0  0  0  0  0  0  0  0  0
    3.8821   -3.3020   25.3679 H   0  0  0  0  0  0  0  0  0  0  0  0
    4.6424   -2.2860   26.6799 H   0  0  0  0  0  0  0  0  0  0  0  0
    2.9218   -2.4999   26.5927 H   0  0  0  0  0  0  0  0  0  0  0  0
    4.9080    0.1785   26.2086 H   0  0  0  0  0  0  0  0  0  0  0  0
    3.5418    0.9351   25.3461 H   0  0  0  0  0  0  0  0  0  0  0  0
    4.2139    1.4754   27.6913 H   0  0  0  0  0  0  0  0  0  0  0  0
    3.4516    0.6069   28.9751 H   0  0  0  0  0  0  0  0  0  0  0  0
    4.6241   -0.2941   28.0884 H   0  0  0  0  0  0  0  0  0  0  0  0
    1.3008   -1.7315   29.0721 H   0  0  0  0  0  0  0  0  0  0  0  0
   -2.0029    0.2518   30.2808 H   0  0  0  0  0  0  0  0  0  0  0  0
   -0.9755    1.8848   28.5991 H   0  0  0  0  0  0  0  0  0  0  0  0
    7.6066   -4.0142   22.4251 H   0  0  0  0  0  0  0  0  0  0  0  0
    9.6936   -4.4546   21.4835 H   0  0  0  0  0  0  0  0  0  0  0  0
   11.9500   -3.4178   18.9389 H   0  0  0  0  0  0  0  0  0  0  0  0
  1  2  1  0
  2  3  2  0
  3  4  1  0
  4  5  2  0
  5  6  1  0
  6  7  1  0
  7  8  2  0
  7  9  1  0
  9 10  1  0
 10 11  1  0
 10 12  1  0
 12 13  1  0
 13 14  1  0
 13 15  1  0
 15 16  2  0
 15 17  1  0
 17 18  1  0
 18 19  2  0
 19 20  1  0
 20 21  1  0
  6 22  2  0
 22 23  1  0
 23 24  2  0
 24 25  1  0
 25  2  1  0
 24  4  1  0
 21 17  2  0
  1 26  1  0
  1 27  1  0
  1 28  1  0
  5 29  1  0
  9 30  1  0
 10 31  1  0
 11 32  1  0
 11 33  1  0
 11 34  1  0
 12 35  1  0
 12 36  1  0
 14 37  1  0
 14 38  1  0
 14 39  1  0
 18 40  1  0
 20 41  1  0
 21 42  1  0
 22 43  1  0
 23 44  1  0
 25 45  1  0
M  END
>  <Energy>  (204) 
1061.6670201048119

>  <compound_id>  (204) 
11032

>  <target_id>  (204) 
1

>  <reference_id>  (204) 
7

>  <inspiration_ids>  (204) 
[55, 7]

>  <energy_score>  (204) 
1013.0743720395004

>  <distance_score>  (204) 
9.925707621274706

>  <path>  (204) 
/opt/xchem-fragalysis-2/maxwin/BulkDock/SCRATCH/511013/C11032-P7/C11032-P7.minimised.mol

>  <scratch_subdir>  (204) 
/opt/xchem-fragalysis-2/maxwin/BulkDock/SCRATCH/511013/C11032-P7

>  <fragmenstein_runtime>  (204) 
13.99711012840271

>  <fragmenstein_outcome>  (204) 
too moved

>  <fragmenstein_mode>  (204) 
expansion

>  <fragmenstein_error>  (204) 


$$$$
C11033-P55
     RDKit          3D

 45 47  0  0  0  0  0  0  0  0999 V2000
    1.2171  -11.5377   23.0356 C   0  0  0  0  0  0  0  0  0  0  0  0
    1.3395  -10.2530   22.2177 C   0  0  0  0  0  0  0  0  0  0  0  0
    0.3900   -9.0596   22.7504 C   0  0  0  0  0  0  0  0  0  0  0  0
   -0.5737   -9.1206   23.9904 N   0  0  0  0  0  0  0  0  0  0  0  0
   -1.5529   -9.5282   22.9379 C   0  0  0  0  0  0  0  0  0  0  0  0
   -1.1348   -8.0480   24.8131 C   0  0  0  0  0  0  0  0  0  0  0  0
   -1.0677   -6.8526   24.6873 O   0  0  0  0  0  0  0  0  0  0  0  0
   -2.0240   -8.4534   25.9426 C   0  0  0  0  0  0  0  0  0  0  0  0
   -2.3176   -9.6708   26.5915 C   0  0  0  0  0  0  0  0  0  0  0  0
   -3.2168   -9.5584   27.5834 N   0  0  0  0  0  0  0  0  0  0  0  0
   -3.4883   -8.2474   27.6177 N   0  0  0  0  0  0  0  0  0  0  0  0
   -2.8244   -7.5527   26.6550 C   0  0  0  0  0  0  0  0  0  0  0  0
    2.8000   -9.8585   22.0591 N   0  0  0  0  0  0  0  0  0  0  0  0
    3.8852  -10.4902   21.3205 C   0  0  0  0  0  0  0  0  0  0  0  0
    3.8827  -11.4363   20.5874 O   0  0  0  0  0  0  0  0  0  0  0  0
    5.2678   -9.8891   21.6117 C   0  0  0  0  0  0  0  0  0  0  0  0
    5.8790  -10.1609   22.8391 C   0  0  0  0  0  0  0  0  0  0  0  0
    7.1026   -9.5759   23.2303 C   0  0  0  0  0  0  0  0  0  0  0  0
    7.6921   -8.6639   22.3561 C   0  0  0  0  0  0  0  0  0  0  0  0
    7.1575   -8.4165   21.0988 C   0  0  0  0  0  0  0  0  0  0  0  0
    5.9801   -9.1038   20.6813 C   0  0  0  0  0  0  0  0  0  0  0  0
    7.8758   -7.4093   20.4888 N   0  0  0  0  0  0  0  0  0  0  0  0
    8.8473   -7.0923   21.3119 C   0  0  0  0  0  0  0  0  0  0  0  0
    8.8024   -7.8558   22.4359 N   0  0  0  0  0  0  0  0  0  0  0  0
    9.7582   -7.8096   23.5134 C   0  0  0  0  0  0  0  0  0  0  0  0
    1.4373  -11.3787   24.0931 H   0  0  0  0  0  0  0  0  0  0  0  0
    1.9084  -12.3030   22.6668 H   0  0  0  0  0  0  0  0  0  0  0  0
    0.2074  -11.9534   22.9708 H   0  0  0  0  0  0  0  0  0  0  0  0
    1.0133  -10.4901   21.1973 H   0  0  0  0  0  0  0  0  0  0  0  0
    0.0267   -8.4572   21.8993 H   0  0  0  0  0  0  0  0  0  0  0  0
    1.0920   -8.3288   23.1551 H   0  0  0  0  0  0  0  0  0  0  0  0
   -1.2919  -10.4182   22.3515 H   0  0  0  0  0  0  0  0  0  0  0  0
   -2.4561   -9.8375   23.4835 H   0  0  0  0  0  0  0  0  0  0  0  0
   -1.9049   -8.6878   22.3228 H   0  0  0  0  0  0  0  0  0  0  0  0
   -1.9081  -10.6492   26.3753 H   0  0  0  0  0  0  0  0  0  0  0  0
   -4.1372   -7.9025   28.3170 H   0  0  0  0  0  0  0  0  0  0  0  0
   -2.9507   -6.4855   26.5447 H   0  0  0  0  0  0  0  0  0  0  0  0
    3.1515   -9.0255   22.5159 H   0  0  0  0  0  0  0  0  0  0  0  0
    5.3958  -10.8568   23.5239 H   0  0  0  0  0  0  0  0  0  0  0  0
    7.5360   -9.8069   24.1980 H   0  0  0  0  0  0  0  0  0  0  0  0
    5.5699   -8.9205   19.6935 H   0  0  0  0  0  0  0  0  0  0  0  0
    9.6075   -6.3441   21.1342 H   0  0  0  0  0  0  0  0  0  0  0  0
    9.2296   -7.8711   24.4670 H   0  0  0  0  0  0  0  0  0  0  0  0
   10.4388   -8.6571   23.4003 H   0  0  0  0  0  0  0  0  0  0  0  0
   10.3164   -6.8713   23.4656 H   0  0  0  0  0  0  0  0  0  0  0  0
  1  2  1  0
  2  3  1  0
  3  4  1  0
  4  5  1  0
  4  6  1  0
  6  7  2  0
  6  8  1  0
  8  9  1  0
  9 10  2  0
 10 11  1  0
 11 12  1  0
  2 13  1  0
 13 14  1  0
 14 15  2  0
 14 16  1  0
 16 17  2  0
 17 18  1  0
 18 19  2  0
 19 20  1  0
 20 21  2  0
 20 22  1  0
 22 23  2  0
 23 24  1  0
 24 25  1  0
 12  8  2  0
 21 16  1  0
 24 19  1  0
  1 26  1  0
  1 27  1  0
  1 28  1  0
  2 29  1  0
  3 30  1  0
  3 31  1  0
  5 32  1  0
  5 33  1  0
  5 34  1  0
  9 35  1  0
 11 36  1  0
 12 37  1  0
 13 38  1  0
 17 39  1  0
 18 40  1  0
 21 41  1  0
 23 42  1  0
 25 43  1  0
 25 44  1  0
 25 45  1  0
M  END
>  <Energy>  (205) 
115.92070496572943

>  <compound_id>  (205) 
11033

>  <target_id>  (205) 
1

>  <reference_id>  (205) 
55

>  <inspiration_ids>  (205) 
[55, 7]

>  <energy_score>  (205) 
69.53279152490501

>  <distance_score>  (205) 
13.190802291050337

>  <path>  (205) 
/opt/xchem-fragalysis-2/maxwin/BulkDock/SCRATCH/511013/C11033-P55/C11033-P55.minimised.mol

>  <scratch_subdir>  (205) 
/opt/xchem-fragalysis-2/maxwin/BulkDock/SCRATCH/511013/C11033-P55

>  <fragmenstein_runtime>  (205) 
11.471479415893555

>  <fragmenstein_outcome>  (205) 
too moved

>  <fragmenstein_mode>  (205) 
expansion

>  <fragmenstein_error>  (205) 


$$$$
C11033-P7
     RDKit          3D

 45 47  0  0  0  0  0  0  0  0999 V2000
    4.8929  -12.7229   28.9463 C   0  0  0  0  0  0  0  0  0  0  0  0
    4.0794  -11.6303   28.2477 C   0  0  0  0  0  0  0  0  0  0  0  0
    2.5865  -12.1896   27.8989 C   0  0  0  0  0  0  0  0  0  0  0  0
    1.2991  -11.6796   28.7297 N   0  0  0  0  0  0  0  0  0  0  0  0
    1.3980  -10.5623   27.7878 C   0  0  0  0  0  0  0  0  0  0  0  0
    1.1865  -11.1822   30.0821 C   0  0  0  0  0  0  0  0  0  0  0  0
    2.0374  -10.9406   30.8968 O   0  0  0  0  0  0  0  0  0  0  0  0
   -0.2163  -10.8183   30.4858 C   0  0  0  0  0  0  0  0  0  0  0  0
   -0.5833   -9.9876   31.6001 C   0  0  0  0  0  0  0  0  0  0  0  0
   -1.8963   -9.7380   31.6913 N   0  0  0  0  0  0  0  0  0  0  0  0
   -2.3975  -10.3932   30.6344 N   0  0  0  0  0  0  0  0  0  0  0  0
   -1.4465  -11.0452   29.8903 C   0  0  0  0  0  0  0  0  0  0  0  0
    4.9433  -11.0221   27.1532 N   0  0  0  0  0  0  0  0  0  0  0  0
    5.4978  -11.6050   25.9402 C   0  0  0  0  0  0  0  0  0  0  0  0
    5.3472  -12.6914   25.4574 O   0  0  0  0  0  0  0  0  0  0  0  0
    6.3532  -10.6343   25.0494 C   0  0  0  0  0  0  0  0  0  0  0  0
    6.2424  -10.7627   23.6401 C   0  0  0  0  0  0  0  0  0  0  0  0
    6.9204   -9.9342   22.7113 C   0  0  0  0  0  0  0  0  0  0  0  0
    7.7745   -8.9650   23.2370 C   0  0  0  0  0  0  0  0  0  0  0  0
    7.9582   -8.8216   24.6091 C   0  0  0  0  0  0  0  0  0  0  0  0
    7.2375   -9.6457   25.5250 C   0  0  0  0  0  0  0  0  0  0  0  0
    8.8638   -7.8135   24.8611 N   0  0  0  0  0  0  0  0  0  0  0  0
    9.2483   -7.3674   23.6825 C   0  0  0  0  0  0  0  0  0  0  0  0
    8.5932   -8.0124   22.6755 N   0  0  0  0  0  0  0  0  0  0  0  0
    8.7625   -7.7578   21.2726 C   0  0  0  0  0  0  0  0  0  0  0  0
    5.8696  -12.3397   29.2614 H   0  0  0  0  0  0  0  0  0  0  0  0
    4.3724  -13.0885   29.8375 H   0  0  0  0  0  0  0  0  0  0  0  0
    5.0698  -13.5718   28.2773 H   0  0  0  0  0  0  0  0  0  0  0  0
    3.9647  -10.8144   28.9624 H   0  0  0  0  0  0  0  0  0  0  0  0
    2.5967  -13.2335   28.2481 H   0  0  0  0  0  0  0  0  0  0  0  0
    2.4187  -12.3177   26.8179 H   0  0  0  0  0  0  0  0  0  0  0  0
    2.2229   -9.9217   28.0530 H   0  0  0  0  0  0  0  0  0  0  0  0
    0.5198   -9.9259   27.9718 H   0  0  0  0  0  0  0  0  0  0  0  0
    1.2769  -10.8058   26.7246 H   0  0  0  0  0  0  0  0  0  0  0  0
    0.0885   -9.5482   32.3275 H   0  0  0  0  0  0  0  0  0  0  0  0
   -3.3982  -10.3531   30.4733 H   0  0  0  0  0  0  0  0  0  0  0  0
   -1.7178  -11.5935   29.0001 H   0  0  0  0  0  0  0  0  0  0  0  0
    5.3525  -10.1084   27.2973 H   0  0  0  0  0  0  0  0  0  0  0  0
    5.5844  -11.5371   23.2399 H   0  0  0  0  0  0  0  0  0  0  0  0
    6.7839  -10.0713   21.6437 H   0  0  0  0  0  0  0  0  0  0  0  0
    7.4210   -9.5154   26.5853 H   0  0  0  0  0  0  0  0  0  0  0  0
    9.9802   -6.5865   23.5180 H   0  0  0  0  0  0  0  0  0  0  0  0
    9.4580   -8.4981   20.8699 H   0  0  0  0  0  0  0  0  0  0  0  0
    9.1582   -6.7485   21.1331 H   0  0  0  0  0  0  0  0  0  0  0  0
    7.7922   -7.8358   20.7771 H   0  0  0  0  0  0  0  0  0  0  0  0
  1  2  1  0
  2  3  1  0
  3  4  1  0
  4  5  1  0
  4  6  1  0
  6  7  2  0
  6  8  1  0
  8  9  1  0
  9 10  2  0
 10 11  1  0
 11 12  1  0
  2 13  1  0
 13 14  1  0
 14 15  2  0
 14 16  1  0
 16 17  2  0
 17 18  1  0
 18 19  2  0
 19 20  1  0
 20 21  2  0
 20 22  1  0
 22 23  2  0
 23 24  1  0
 24 25  1  0
 12  8  2  0
 21 16  1  0
 24 19  1  0
  1 26  1  0
  1 27  1  0
  1 28  1  0
  2 29  1  0
  3 30  1  0
  3 31  1  0
  5 32  1  0
  5 33  1  0
  5 34  1  0
  9 35  1  0
 11 36  1  0
 12 37  1  0
 13 38  1  0
 17 39  1  0
 18 40  1  0
 21 41  1  0
 23 42  1  0
 25 43  1  0
 25 44  1  0
 25 45  1  0
M  END
>  <Energy>  (206) 
108.22025001920417

>  <compound_id>  (206) 
11033

>  <target_id>  (206) 
1

>  <reference_id>  (206) 
7

>  <inspiration_ids>  (206) 
[55, 7]

>  <energy_score>  (206) 
61.8323365783815

>  <distance_score>  (206) 
13.767431926297915

>  <path>  (206) 
/opt/xchem-fragalysis-2/maxwin/BulkDock/SCRATCH/511013/C11033-P7/C11033-P7.minimised.mol

>  <scratch_subdir>  (206) 
/opt/xchem-fragalysis-2/maxwin/BulkDock/SCRATCH/511013/C11033-P7

>  <fragmenstein_runtime>  (206) 
11.890249252319336

>  <fragmenstein_outcome>  (206) 
too moved

>  <fragmenstein_mode>  (206) 
expansion

>  <fragmenstein_error>  (206) 


$$$$
C11034-P55
     RDKit          3D

 35 37  0  0  0  0  0  0  0  0999 V2000
    9.9126    0.6714   15.5508 C   0  0  0  0  0  0  0  0  0  0  0  0
    8.8774    0.4271   16.5642 C   0  0  0  0  0  0  0  0  0  0  0  0
    8.6902   -0.5391   17.4277 N   0  0  0  0  0  0  0  0  0  0  0  0
    7.6098   -0.2525   18.5309 C   0  0  0  0  0  0  0  0  0  0  0  0
    7.5039   -0.7283   20.0986 C   0  0  0  0  0  0  0  0  0  0  0  0
    6.9636   -2.1103   21.2080 C   0  0  0  0  0  0  0  0  0  0  0  0
    6.1651   -2.8112   20.7573 O   0  0  0  0  0  0  0  0  0  0  0  0
    7.6553   -2.0430   22.7377 N   0  0  0  0  0  0  0  0  0  0  0  0
    7.4449   -2.6410   23.8649 C   0  0  0  0  0  0  0  0  0  0  0  0
    7.3263   -3.4216   24.1637 C   0  0  0  0  0  0  0  0  0  0  0  0
    5.9555   -3.3729   25.4228 C   0  0  0  0  0  0  0  0  0  0  0  0
    4.7971   -2.5144   25.5701 C   0  0  0  0  0  0  0  0  0  0  0  0
    4.0528   -2.8053   26.6473 N   0  0  0  0  0  0  0  0  0  0  0  0
    4.6613   -3.8710   27.1754 N   0  0  0  0  0  0  0  0  0  0  0  0
    5.7985   -4.2401   26.4986 C   0  0  0  0  0  0  0  0  0  0  0  0
    7.4740    0.3463   20.8922 C   0  0  0  0  0  0  0  0  0  0  0  0
    7.5293    1.6338   20.3823 C   0  0  0  0  0  0  0  0  0  0  0  0
    7.3547    2.0221   18.8668 C   0  0  0  0  0  0  0  0  0  0  0  0
    7.4549    1.0192   18.0180 C   0  0  0  0  0  0  0  0  0  0  0  0
    7.6486    0.9850   16.6525 N   0  0  0  0  0  0  0  0  0  0  0  0
   10.7346   -0.0421   15.6622 H   0  0  0  0  0  0  0  0  0  0  0  0
   10.3206    1.6810   15.6559 H   0  0  0  0  0  0  0  0  0  0  0  0
    9.5051    0.5652   14.5413 H   0  0  0  0  0  0  0  0  0  0  0  0
    8.6193   -2.2320   24.0388 H   0  0  0  0  0  0  0  0  0  0  0  0
    6.3724   -2.0666   23.6821 H   0  0  0  0  0  0  0  0  0  0  0  0
    7.4845   -1.7737   24.7978 H   0  0  0  0  0  0  0  0  0  0  0  0
    7.1092   -4.4344   23.5977 H   0  0  0  0  0  0  0  0  0  0  0  0
    8.2912   -3.8802   24.8072 H   0  0  0  0  0  0  0  0  0  0  0  0
    4.4732   -1.6996   24.9304 H   0  0  0  0  0  0  0  0  0  0  0  0
    4.2592   -4.2929   28.0055 H   0  0  0  0  0  0  0  0  0  0  0  0
    6.3876   -5.0813   26.8345 H   0  0  0  0  0  0  0  0  0  0  0  0
    6.8078    0.2319   21.6890 H   0  0  0  0  0  0  0  0  0  0  0  0
    7.3580    2.4434   21.1078 H   0  0  0  0  0  0  0  0  0  0  0  0
    7.2596    3.0440   18.4930 H   0  0  0  0  0  0  0  0  0  0  0  0
    7.0354    0.2947   16.2835 H   0  0  0  0  0  0  0  0  0  0  0  0
  1  2  1  0
  2  3  2  0
  3  4  1  0
  4  5  2  0
  5  6  1  0
  6  7  2  0
  6  8  1  0
  8  9  1  0
  8 10  1  0
 10 11  1  0
 11 12  1  0
 12 13  2  0
 13 14  1  0
 14 15  1  0
  5 16  1  0
 16 17  2  0
 17 18  1  0
 18 19  2  0
 19 20  1  0
 20  2  1  0
 19  4  1  0
 15 11  2  0
  1 21  1  0
  1 22  1  0
  1 23  1  0
  9 24  1  0
  9 25  1  0
  9 26  1  0
 10 27  1  0
 10 28  1  0
 12 29  1  0
 14 30  1  0
 15 31  1  0
 16 32  1  0
 17 33  1  0
 18 34  1  0
 20 35  1  0
M  END
>  <Energy>  (207) 
1023.763705088745

>  <compound_id>  (207) 
11034

>  <target_id>  (207) 
1

>  <reference_id>  (207) 
55

>  <inspiration_ids>  (207) 
[55, 7]

>  <energy_score>  (207) 
969.7198319266063

>  <distance_score>  (207) 
14.135872489608728

>  <path>  (207) 
/opt/xchem-fragalysis-2/maxwin/BulkDock/SCRATCH/511013/C11034-P55/C11034-P55.minimised.mol

>  <scratch_subdir>  (207) 
/opt/xchem-fragalysis-2/maxwin/BulkDock/SCRATCH/511013/C11034-P55

>  <fragmenstein_runtime>  (207) 
6.512804746627808

>  <fragmenstein_outcome>  (207) 
too moved

>  <fragmenstein_mode>  (207) 
expansion

>  <fragmenstein_error>  (207) 


$$$$
C11034-P7
     RDKit          3D

 35 37  0  0  0  0  0  0  0  0999 V2000
    8.1189    5.8029   17.8555 C   0  0  0  0  0  0  0  0  0  0  0  0
    8.0107    4.3382   17.7200 C   0  0  0  0  0  0  0  0  0  0  0  0
    7.2998    3.5058   18.4426 N   0  0  0  0  0  0  0  0  0  0  0  0
    7.5911    2.1671   18.1126 C   0  0  0  0  0  0  0  0  0  0  0  0
    7.2669    0.7530   18.7569 C   0  0  0  0  0  0  0  0  0  0  0  0
    6.8594   -0.0838   20.4997 C   0  0  0  0  0  0  0  0  0  0  0  0
    7.4891   -1.0871   20.6247 O   0  0  0  0  0  0  0  0  0  0  0  0
    5.5178    0.6912   21.5839 N   0  0  0  0  0  0  0  0  0  0  0  0
    4.8777    0.3209   22.6091 C   0  0  0  0  0  0  0  0  0  0  0  0
    4.9714   -0.0282   23.4784 C   0  0  0  0  0  0  0  0  0  0  0  0
    3.8679    0.4836   24.9525 C   0  0  0  0  0  0  0  0  0  0  0  0
    3.6053   -0.3838   26.0774 C   0  0  0  0  0  0  0  0  0  0  0  0
    2.8527    0.1824   27.0337 N   0  0  0  0  0  0  0  0  0  0  0  0
    2.6046    1.4086   26.5472 N   0  0  0  0  0  0  0  0  0  0  0  0
    3.1338    1.6224   25.2988 C   0  0  0  0  0  0  0  0  0  0  0  0
    7.4752    0.0450   17.4882 C   0  0  0  0  0  0  0  0  0  0  0  0
    8.2870    0.1960   16.3255 C   0  0  0  0  0  0  0  0  0  0  0  0
    8.9878    1.3311   16.1665 C   0  0  0  0  0  0  0  0  0  0  0  0
    8.4732    2.3216   16.9749 C   0  0  0  0  0  0  0  0  0  0  0  0
    8.7622    3.6537   16.8375 N   0  0  0  0  0  0  0  0  0  0  0  0
    9.1171    6.0862   18.2038 H   0  0  0  0  0  0  0  0  0  0  0  0
    7.3886    6.1762   18.5800 H   0  0  0  0  0  0  0  0  0  0  0  0
    7.9297    6.2984   16.8982 H   0  0  0  0  0  0  0  0  0  0  0  0
    4.6382   -0.7146   21.9942 H   0  0  0  0  0  0  0  0  0  0  0  0
    4.1204    1.3538   22.8124 H   0  0  0  0  0  0  0  0  0  0  0  0
    4.0363    0.5995   21.8229 H   0  0  0  0  0  0  0  0  0  0  0  0
    5.6969    0.0802   24.3621 H   0  0  0  0  0  0  0  0  0  0  0  0
    4.8982   -1.2584   23.6359 H   0  0  0  0  0  0  0  0  0  0  0  0
    3.9481   -1.4019   26.2116 H   0  0  0  0  0  0  0  0  0  0  0  0
    2.0546    2.0475   27.1103 H   0  0  0  0  0  0  0  0  0  0  0  0
    2.9835    2.5572   24.7779 H   0  0  0  0  0  0  0  0  0  0  0  0
    6.6748   -0.6238   17.1294 H   0  0  0  0  0  0  0  0  0  0  0  0
    8.2703   -0.5602   15.5406 H   0  0  0  0  0  0  0  0  0  0  0  0
    9.6265    1.5206   15.3128 H   0  0  0  0  0  0  0  0  0  0  0  0
    9.3978    4.0509   16.1603 H   0  0  0  0  0  0  0  0  0  0  0  0
  1  2  1  0
  2  3  2  0
  3  4  1  0
  4  5  2  0
  5  6  1  0
  6  7  2  0
  6  8  1  0
  8  9  1  0
  8 10  1  0
 10 11  1  0
 11 12  1  0
 12 13  2  0
 13 14  1  0
 14 15  1  0
  5 16  1  0
 16 17  2  0
 17 18  1  0
 18 19  2  0
 19 20  1  0
 20  2  1  0
 19  4  1  0
 15 11  2  0
  1 21  1  0
  1 22  1  0
  1 23  1  0
  9 24  1  0
  9 25  1  0
  9 26  1  0
 10 27  1  0
 10 28  1  0
 12 29  1  0
 14 30  1  0
 15 31  1  0
 16 32  1  0
 17 33  1  0
 18 34  1  0
 20 35  1  0
M  END
>  <Energy>  (208) 
1109.6709606194593

>  <compound_id>  (208) 
11034

>  <target_id>  (208) 
1

>  <reference_id>  (208) 
7

>  <inspiration_ids>  (208) 
[55, 7]

>  <energy_score>  (208) 
1055.627087457325

>  <distance_score>  (208) 
13.244347680714343

>  <path>  (208) 
/opt/xchem-fragalysis-2/maxwin/BulkDock/SCRATCH/511013/C11034-P7/C11034-P7.minimised.mol

>  <scratch_subdir>  (208) 
/opt/xchem-fragalysis-2/maxwin/BulkDock/SCRATCH/511013/C11034-P7

>  <fragmenstein_runtime>  (208) 
9.140421390533447

>  <fragmenstein_outcome>  (208) 
too moved

>  <fragmenstein_mode>  (208) 
expansion

>  <fragmenstein_error>  (208) 


$$$$
C11035-P55
     RDKit          3D

 43 46  0  0  0  0  0  0  0  0999 V2000
    6.8715   -1.2653   21.1664 O   0  0  0  0  0  0  0  0  0  0  0  0
    6.1673   -0.3053   20.9019 C   0  0  0  0  0  0  0  0  0  0  0  0
    4.8451    0.3539   22.1091 N   0  0  0  0  0  0  0  0  0  0  0  0
    4.3671   -0.1895   24.1023 C   0  0  0  0  0  0  0  0  0  0  0  0
    3.8328   -1.5139   24.8449 C   0  0  0  0  0  0  0  0  0  0  0  0
    2.8073   -1.1990   26.2542 N   0  0  0  0  0  0  0  0  0  0  0  0
    2.1372   -2.1159   27.1661 C   0  0  0  0  0  0  0  0  0  0  0  0
    2.1871   -3.3168   27.2434 O   0  0  0  0  0  0  0  0  0  0  0  0
    1.1407   -1.4794   28.0981 C   0  0  0  0  0  0  0  0  0  0  0  0
    0.3146   -2.1729   29.0467 C   0  0  0  0  0  0  0  0  0  0  0  0
   -0.6086   -1.4044   29.6409 N   0  0  0  0  0  0  0  0  0  0  0  0
   -0.3761   -0.1960   29.1058 N   0  0  0  0  0  0  0  0  0  0  0  0
    0.6346   -0.1920   28.1793 C   0  0  0  0  0  0  0  0  0  0  0  0
    4.1817   -0.7344   26.8656 C   0  0  0  0  0  0  0  0  0  0  0  0
    4.4158    0.7349   27.1764 C   0  0  0  0  0  0  0  0  0  0  0  0
    4.2061   -0.2081   28.3019 C   0  0  0  0  0  0  0  0  0  0  0  0
    6.6185    0.3290   19.0496 C   0  0  0  0  0  0  0  0  0  0  0  0
    6.2307   -0.3772   17.8255 C   0  0  0  0  0  0  0  0  0  0  0  0
    6.9204   -0.4652   16.5643 C   0  0  0  0  0  0  0  0  0  0  0  0
    8.1470    0.1095   16.3840 C   0  0  0  0  0  0  0  0  0  0  0  0
    8.0883    1.2558   17.1143 C   0  0  0  0  0  0  0  0  0  0  0  0
    8.6433    2.4631   16.7556 N   0  0  0  0  0  0  0  0  0  0  0  0
    7.8605    3.4018   17.3254 C   0  0  0  0  0  0  0  0  0  0  0  0
    7.1161    2.8541   18.2566 N   0  0  0  0  0  0  0  0  0  0  0  0
    7.2797    1.4590   18.2836 C   0  0  0  0  0  0  0  0  0  0  0  0
    4.3268    1.0786   21.6650 H   0  0  0  0  0  0  0  0  0  0  0  0
    5.0002    0.1806   24.9097 H   0  0  0  0  0  0  0  0  0  0  0  0
    3.5772    0.5597   24.4727 H   0  0  0  0  0  0  0  0  0  0  0  0
    4.5626   -2.2529   25.0700 H   0  0  0  0  0  0  0  0  0  0  0  0
    3.1762   -2.0681   24.1813 H   0  0  0  0  0  0  0  0  0  0  0  0
    0.3530   -3.2294   29.2844 H   0  0  0  0  0  0  0  0  0  0  0  0
   -0.9519    0.5852   29.4021 H   0  0  0  0  0  0  0  0  0  0  0  0
    0.8908    0.7087   27.6405 H   0  0  0  0  0  0  0  0  0  0  0  0
    5.0084   -1.4341   26.7706 H   0  0  0  0  0  0  0  0  0  0  0  0
    5.4140    1.1357   27.0410 H   0  0  0  0  0  0  0  0  0  0  0  0
    3.6192    1.4344   26.9509 H   0  0  0  0  0  0  0  0  0  0  0  0
    5.0652   -0.4611   28.9159 H   0  0  0  0  0  0  0  0  0  0  0  0
    3.3019   -0.0889   28.8800 H   0  0  0  0  0  0  0  0  0  0  0  0
    5.3374   -1.0053   17.8265 H   0  0  0  0  0  0  0  0  0  0  0  0
    6.5320   -1.1218   15.7839 H   0  0  0  0  0  0  0  0  0  0  0  0
    8.7300   -0.0175   15.4790 H   0  0  0  0  0  0  0  0  0  0  0  0
    9.2743    2.6168   15.9815 H   0  0  0  0  0  0  0  0  0  0  0  0
    7.8997    4.4522   17.0696 H   0  0  0  0  0  0  0  0  0  0  0  0
  1  2  2  0
  2  3  1  0
  3  4  1  0
  4  5  1  0
  5  6  1  0
  6  7  1  0
  7  8  2  0
  7  9  1  0
  9 10  1  0
 10 11  2  0
 11 12  1  0
 12 13  1  0
  6 14  1  0
 14 15  1  0
 15 16  1  0
  2 17  1  0
 17 18  2  0
 18 19  1  0
 19 20  2  0
 20 21  1  0
 21 22  1  0
 22 23  1  0
 23 24  2  0
 24 25  1  0
 13  9  2  0
 16 14  1  0
 25 17  1  0
 25 21  2  0
  3 26  1  0
  4 27  1  0
  4 28  1  0
  5 29  1  0
  5 30  1  0
 10 31  1  0
 12 32  1  0
 13 33  1  0
 14 34  1  0
 15 35  1  0
 15 36  1  0
 16 37  1  0
 16 38  1  0
 18 39  1  0
 19 40  1  0
 20 41  1  0
 22 42  1  0
 23 43  1  0
M  END
>  <Energy>  (209) 
542.81132227561909

>  <compound_id>  (209) 
11035

>  <target_id>  (209) 
1

>  <reference_id>  (209) 
55

>  <inspiration_ids>  (209) 
[55, 7]

>  <energy_score>  (209) 
448.3565310884811

>  <distance_score>  (209) 
10.844867622566499

>  <path>  (209) 
/opt/xchem-fragalysis-2/maxwin/BulkDock/SCRATCH/511013/C11035-P55/C11035-P55.minimised.mol

>  <scratch_subdir>  (209) 
/opt/xchem-fragalysis-2/maxwin/BulkDock/SCRATCH/511013/C11035-P55

>  <fragmenstein_runtime>  (209) 
13.368706703186035

>  <fragmenstein_outcome>  (209) 
too moved

>  <fragmenstein_mode>  (209) 
expansion

>  <fragmenstein_error>  (209) 


$$$$
C11035-P7
     RDKit          3D

 43 46  0  0  0  0  0  0  0  0999 V2000
    5.8594   -1.6573   23.7207 O   0  0  0  0  0  0  0  0  0  0  0  0
    5.1887   -1.9623   22.8830 C   0  0  0  0  0  0  0  0  0  0  0  0
    3.5985   -2.2702   23.5330 N   0  0  0  0  0  0  0  0  0  0  0  0
    3.0231   -2.0916   24.8877 C   0  0  0  0  0  0  0  0  0  0  0  0
    2.9092   -2.5591   26.3813 C   0  0  0  0  0  0  0  0  0  0  0  0
    1.7096   -1.9327   27.3634 N   0  0  0  0  0  0  0  0  0  0  0  0
    0.9458   -2.5469   28.4232 C   0  0  0  0  0  0  0  0  0  0  0  0
    1.0433   -3.6373   28.9243 O   0  0  0  0  0  0  0  0  0  0  0  0
   -0.2168   -1.7560   28.9201 C   0  0  0  0  0  0  0  0  0  0  0  0
   -1.0919   -2.1443   29.9902 C   0  0  0  0  0  0  0  0  0  0  0  0
   -2.0867   -1.2792   30.2213 N   0  0  0  0  0  0  0  0  0  0  0  0
   -1.8282   -0.2934   29.3491 N   0  0  0  0  0  0  0  0  0  0  0  0
   -0.7774   -0.5610   28.5138 C   0  0  0  0  0  0  0  0  0  0  0  0
    2.9213   -1.1500   27.9521 C   0  0  0  0  0  0  0  0  0  0  0  0
    2.6632    0.2397   28.5118 C   0  0  0  0  0  0  0  0  0  0  0  0
    3.5392    0.0796   27.3185 C   0  0  0  0  0  0  0  0  0  0  0  0
    6.2791   -1.8759   21.0176 C   0  0  0  0  0  0  0  0  0  0  0  0
    7.4502   -1.1257   20.7019 C   0  0  0  0  0  0  0  0  0  0  0  0
    7.5517    0.4460   20.2402 C   0  0  0  0  0  0  0  0  0  0  0  0
    7.3548    1.0518   18.9768 C   0  0  0  0  0  0  0  0  0  0  0  0
    7.1720   -0.0413   18.3760 C   0  0  0  0  0  0  0  0  0  0  0  0
    6.9242   -0.0085   16.9963 N   0  0  0  0  0  0  0  0  0  0  0  0
    5.7292   -0.5958   16.8575 C   0  0  0  0  0  0  0  0  0  0  0  0
    5.5248   -1.3010   17.9544 N   0  0  0  0  0  0  0  0  0  0  0  0
    6.7232   -1.2010   19.2390 C   0  0  0  0  0  0  0  0  0  0  0  0
    3.0415   -2.6239   22.7852 H   0  0  0  0  0  0  0  0  0  0  0  0
    3.9772   -1.6076   25.1691 H   0  0  0  0  0  0  0  0  0  0  0  0
    2.5170   -1.1452   24.8757 H   0  0  0  0  0  0  0  0  0  0  0  0
    2.4751   -3.5487   26.3232 H   0  0  0  0  0  0  0  0  0  0  0  0
    3.8813   -2.6431   26.8808 H   0  0  0  0  0  0  0  0  0  0  0  0
   -1.0228   -3.0434   30.5920 H   0  0  0  0  0  0  0  0  0  0  0  0
   -2.4093    0.5383   29.3659 H   0  0  0  0  0  0  0  0  0  0  0  0
   -0.5026    0.1281   27.7285 H   0  0  0  0  0  0  0  0  0  0  0  0
    3.5056   -1.7571   28.6516 H   0  0  0  0  0  0  0  0  0  0  0  0
    1.7097    0.7217   28.3495 H   0  0  0  0  0  0  0  0  0  0  0  0
    3.1320    0.4993   29.4544 H   0  0  0  0  0  0  0  0  0  0  0  0
    4.6081    0.2198   27.4380 H   0  0  0  0  0  0  0  0  0  0  0  0
    3.1621    0.4487   26.3727 H   0  0  0  0  0  0  0  0  0  0  0  0
    8.2849   -1.7565   20.3739 H   0  0  0  0  0  0  0  0  0  0  0  0
    7.5051    1.2753   20.9965 H   0  0  0  0  0  0  0  0  0  0  0  0
    7.4212    2.0657   18.6153 H   0  0  0  0  0  0  0  0  0  0  0  0
    7.2626    0.7045   16.3677 H   0  0  0  0  0  0  0  0  0  0  0  0
    5.0830   -0.5306   15.9926 H   0  0  0  0  0  0  0  0  0  0  0  0
  1  2  2  0
  2  3  1  0
  3  4  1  0
  4  5  1  0
  5  6  1  0
  6  7  1  0
  7  8  2  0
  7  9  1  0
  9 10  1  0
 10 11  2  0
 11 12  1  0
 12 13  1  0
  6 14  1  0
 14 15  1  0
 15 16  1  0
  2 17  1  0
 17 18  2  0
 18 19  1  0
 19 20  2  0
 20 21  1  0
 21 22  1  0
 22 23  1  0
 23 24  2  0
 24 25  1  0
 13  9  2  0
 16 14  1  0
 25 17  1  0
 25 21  2  0
  3 26  1  0
  4 27  1  0
  4 28  1  0
  5 29  1  0
  5 30  1  0
 10 31  1  0
 12 32  1  0
 13 33  1  0
 14 34  1  0
 15 35  1  0
 15 36  1  0
 16 37  1  0
 16 38  1  0
 18 39  1  0
 19 40  1  0
 20 41  1  0
 22 42  1  0
 23 43  1  0
M  END
>  <Energy>  (210) 
856.23590882389692

>  <compound_id>  (210) 
11035

>  <target_id>  (210) 
1

>  <reference_id>  (210) 
7

>  <inspiration_ids>  (210) 
[55, 7]

>  <energy_score>  (210) 
761.7811176367586

>  <distance_score>  (210) 
10.502839964171866

>  <path>  (210) 
/opt/xchem-fragalysis-2/maxwin/BulkDock/SCRATCH/511013/C11035-P7/C11035-P7.minimised.mol

>  <scratch_subdir>  (210) 
/opt/xchem-fragalysis-2/maxwin/BulkDock/SCRATCH/511013/C11035-P7

>  <fragmenstein_runtime>  (210) 
10.043851375579834

>  <fragmenstein_outcome>  (210) 
too moved

>  <fragmenstein_mode>  (210) 
expansion

>  <fragmenstein_error>  (210) 


$$$$
C11036-P55
     RDKit          3D

 43 46  0  0  0  0  0  0  0  0999 V2000
    1.3458    2.9433   25.0914 O   0  0  0  0  0  0  0  0  0  0  0  0
    0.5385    3.5832   24.4849 C   0  0  0  0  0  0  0  0  0  0  0  0
    0.6030    4.1738   23.1622 N   0  0  0  0  0  0  0  0  0  0  0  0
    1.6521    4.0874   22.1022 C   0  0  0  0  0  0  0  0  0  0  0  0
    2.5972    5.3157   21.7544 C   0  0  0  0  0  0  0  0  0  0  0  0
    3.5125    4.9956   20.6136 N   0  0  0  0  0  0  0  0  0  0  0  0
    4.1865    5.8642   19.6551 C   0  0  0  0  0  0  0  0  0  0  0  0
    4.1146    7.0497   19.4897 O   0  0  0  0  0  0  0  0  0  0  0  0
    5.0462    5.1410   18.6288 C   0  0  0  0  0  0  0  0  0  0  0  0
    4.4075    4.3136   17.6767 C   0  0  0  0  0  0  0  0  0  0  0  0
    5.1180    3.6290   16.6743 C   0  0  0  0  0  0  0  0  0  0  0  0
    6.4957    3.7821   16.5279 C   0  0  0  0  0  0  0  0  0  0  0  0
    7.1129    4.6760   17.4006 C   0  0  0  0  0  0  0  0  0  0  0  0
    8.4066    5.1445   17.4258 N   0  0  0  0  0  0  0  0  0  0  0  0
    8.5003    6.0435   18.4449 C   0  0  0  0  0  0  0  0  0  0  0  0
    7.3866    6.0884   19.1442 N   0  0  0  0  0  0  0  0  0  0  0  0
    6.4495    5.3390   18.4498 C   0  0  0  0  0  0  0  0  0  0  0  0
    3.3741    5.7337   22.9899 C   0  0  0  0  0  0  0  0  0  0  0  0
    4.2898    6.9359   22.9661 C   0  0  0  0  0  0  0  0  0  0  0  0
    4.8694    5.5623   23.1515 C   0  0  0  0  0  0  0  0  0  0  0  0
   -0.7954    3.6973   25.1884 C   0  0  0  0  0  0  0  0  0  0  0  0
   -2.0679    4.2248   24.8423 C   0  0  0  0  0  0  0  0  0  0  0  0
   -3.0162    4.0321   25.7702 N   0  0  0  0  0  0  0  0  0  0  0  0
   -2.3758    3.3934   26.7580 N   0  0  0  0  0  0  0  0  0  0  0  0
   -1.0643    3.1588   26.4537 C   0  0  0  0  0  0  0  0  0  0  0  0
   -0.2954    4.5762   22.9365 H   0  0  0  0  0  0  0  0  0  0  0  0
    1.1211    3.7921   21.1898 H   0  0  0  0  0  0  0  0  0  0  0  0
    2.2864    3.2420   22.3905 H   0  0  0  0  0  0  0  0  0  0  0  0
    1.9763    6.1615   21.4377 H   0  0  0  0  0  0  0  0  0  0  0  0
    3.8795    4.0480   20.5211 H   0  0  0  0  0  0  0  0  0  0  0  0
    3.3239    4.2049   17.7228 H   0  0  0  0  0  0  0  0  0  0  0  0
    4.5710    2.9925   15.9792 H   0  0  0  0  0  0  0  0  0  0  0  0
    7.0400    3.2930   15.7284 H   0  0  0  0  0  0  0  0  0  0  0  0
    9.1441    4.9038   16.7774 H   0  0  0  0  0  0  0  0  0  0  0  0
    9.4077    6.5960   18.6564 H   0  0  0  0  0  0  0  0  0  0  0  0
    2.7669    5.6416   23.8859 H   0  0  0  0  0  0  0  0  0  0  0  0
    4.4744    7.4430   22.0262 H   0  0  0  0  0  0  0  0  0  0  0  0
    4.2771    7.6015   23.8217 H   0  0  0  0  0  0  0  0  0  0  0  0
    5.2450    5.3031   24.1351 H   0  0  0  0  0  0  0  0  0  0  0  0
    5.4615    5.1594   22.3386 H   0  0  0  0  0  0  0  0  0  0  0  0
   -2.3566    4.7361   23.9330 H   0  0  0  0  0  0  0  0  0  0  0  0
   -2.9000    3.1528   27.5978 H   0  0  0  0  0  0  0  0  0  0  0  0
   -0.4171    2.6373   27.1462 H   0  0  0  0  0  0  0  0  0  0  0  0
  1  2  2  0
  2  3  1  0
  3  4  1  0
  4  5  1  0
  5  6  1  0
  6  7  1  0
  7  8  2  0
  7  9  1  0
  9 10  2  0
 10 11  1  0
 11 12  2  0
 12 13  1  0
 13 14  1  0
 14 15  1  0
 15 16  2  0
 16 17  1  0
  5 18  1  0
 18 19  1  0
 19 20  1  0
  2 21  1  0
 21 22  1  0
 22 23  2  0
 23 24  1  0
 24 25  1  0
 17  9  1  0
 20 18  1  0
 25 21  2  0
 17 13  2  0
  3 26  1  0
  4 27  1  0
  4 28  1  0
  5 29  1  0
  6 30  1  0
 10 31  1  0
 11 32  1  0
 12 33  1  0
 14 34  1  0
 15 35  1  0
 18 36  1  0
 19 37  1  0
 19 38  1  0
 20 39  1  0
 20 40  1  0
 22 41  1  0
 24 42  1  0
 25 43  1  0
M  END
>  <Energy>  (211) 
69.234869602512248

>  <compound_id>  (211) 
11036

>  <target_id>  (211) 
1

>  <reference_id>  (211) 
55

>  <inspiration_ids>  (211) 
[55, 7]

>  <energy_score>  (211) 
-18.89301780810416

>  <distance_score>  (211) 
12.196708626496756

>  <path>  (211) 
/opt/xchem-fragalysis-2/maxwin/BulkDock/SCRATCH/511013/C11036-P55/C11036-P55.minimised.mol

>  <scratch_subdir>  (211) 
/opt/xchem-fragalysis-2/maxwin/BulkDock/SCRATCH/511013/C11036-P55

>  <fragmenstein_runtime>  (211) 
14.725324153900146

>  <fragmenstein_outcome>  (211) 
too moved

>  <fragmenstein_mode>  (211) 
expansion

>  <fragmenstein_error>  (211) 


$$$$
C11036-P7
     RDKit          3D

 43 46  0  0  0  0  0  0  0  0999 V2000
    2.8855    1.4587   27.4799 O   0  0  0  0  0  0  0  0  0  0  0  0
    2.5374    0.3975   27.0488 C   0  0  0  0  0  0  0  0  0  0  0  0
    3.0408   -0.3800   25.9249 N   0  0  0  0  0  0  0  0  0  0  0  0
    4.1004   -0.0515   24.8779 C   0  0  0  0  0  0  0  0  0  0  0  0
    4.7426   -1.4177   23.8032 C   0  0  0  0  0  0  0  0  0  0  0  0
    5.3516   -1.3608   21.9426 N   0  0  0  0  0  0  0  0  0  0  0  0
    6.1736   -0.0427   20.9892 C   0  0  0  0  0  0  0  0  0  0  0  0
    6.3593    1.0719   21.4720 O   0  0  0  0  0  0  0  0  0  0  0  0
    6.7454   -0.0585   19.0563 C   0  0  0  0  0  0  0  0  0  0  0  0
    5.9757   -0.5818   17.8181 C   0  0  0  0  0  0  0  0  0  0  0  0
    6.1812   -0.4794   16.3857 C   0  0  0  0  0  0  0  0  0  0  0  0
    7.2774    0.1466   15.8999 C   0  0  0  0  0  0  0  0  0  0  0  0
    7.6692    1.0683   16.8296 C   0  0  0  0  0  0  0  0  0  0  0  0
    8.3643    2.2269   16.5479 N   0  0  0  0  0  0  0  0  0  0  0  0
    8.1072    3.0883   17.5504 C   0  0  0  0  0  0  0  0  0  0  0  0
    7.5528    2.4501   18.5539 N   0  0  0  0  0  0  0  0  0  0  0  0
    7.2802    1.1066   18.2069 C   0  0  0  0  0  0  0  0  0  0  0  0
    5.6350   -1.8977   24.9983 C   0  0  0  0  0  0  0  0  0  0  0  0
    6.5466   -1.4168   26.2345 C   0  0  0  0  0  0  0  0  0  0  0  0
    5.1582   -1.7546   26.5682 C   0  0  0  0  0  0  0  0  0  0  0  0
    1.3576   -0.1957   27.7842 C   0  0  0  0  0  0  0  0  0  0  0  0
    0.8429   -1.5087   27.9664 C   0  0  0  0  0  0  0  0  0  0  0  0
   -0.2716   -1.5699   28.7190 N   0  0  0  0  0  0  0  0  0  0  0  0
   -0.4629   -0.2929   29.0827 N   0  0  0  0  0  0  0  0  0  0  0  0
    0.4638    0.5542   28.5528 C   0  0  0  0  0  0  0  0  0  0  0  0
    2.5610   -1.2750   25.8982 H   0  0  0  0  0  0  0  0  0  0  0  0
    4.9279    0.3263   25.4722 H   0  0  0  0  0  0  0  0  0  0  0  0
    3.7148    0.8675   24.4243 H   0  0  0  0  0  0  0  0  0  0  0  0
    3.9300   -2.1544   23.7453 H   0  0  0  0  0  0  0  0  0  0  0  0
    5.3795   -2.2161   21.3976 H   0  0  0  0  0  0  0  0  0  0  0  0
    5.0616   -1.1758   17.9392 H   0  0  0  0  0  0  0  0  0  0  0  0
    5.4887   -0.9678   15.7014 H   0  0  0  0  0  0  0  0  0  0  0  0
    7.5208    0.1952   14.8457 H   0  0  0  0  0  0  0  0  0  0  0  0
    8.7465    2.4742   15.6460 H   0  0  0  0  0  0  0  0  0  0  0  0
    8.3759    4.1371   17.5285 H   0  0  0  0  0  0  0  0  0  0  0  0
    6.0285   -2.7974   24.5827 H   0  0  0  0  0  0  0  0  0  0  0  0
    6.7777   -0.4186   26.5973 H   0  0  0  0  0  0  0  0  0  0  0  0
    7.3458   -2.0838   26.5533 H   0  0  0  0  0  0  0  0  0  0  0  0
    4.8838   -2.5907   27.2016 H   0  0  0  0  0  0  0  0  0  0  0  0
    4.7605   -0.9091   27.1225 H   0  0  0  0  0  0  0  0  0  0  0  0
    1.2467   -2.4313   27.5692 H   0  0  0  0  0  0  0  0  0  0  0  0
   -1.2415   -0.0687   29.6933 H   0  0  0  0  0  0  0  0  0  0  0  0
    0.4375    1.6163   28.7567 H   0  0  0  0  0  0  0  0  0  0  0  0
  1  2  2  0
  2  3  1  0
  3  4  1  0
  4  5  1  0
  5  6  1  0
  6  7  1  0
  7  8  2  0
  7  9  1  0
  9 10  2  0
 10 11  1  0
 11 12  2  0
 12 13  1  0
 13 14  1  0
 14 15  1  0
 15 16  2  0
 16 17  1  0
  5 18  1  0
 18 19  1  0
 19 20  1  0
  2 21  1  0
 21 22  1  0
 22 23  2  0
 23 24  1  0
 24 25  1  0
 17  9  1  0
 20 18  1  0
 25 21  2  0
 17 13  2  0
  3 26  1  0
  4 27  1  0
  4 28  1  0
  5 29  1  0
  6 30  1  0
 10 31  1  0
 11 32  1  0
 12 33  1  0
 14 34  1  0
 15 35  1  0
 18 36  1  0
 19 37  1  0
 19 38  1  0
 20 39  1  0
 20 40  1  0
 22 41  1  0
 24 42  1  0
 25 43  1  0
M  END
>  <Energy>  (212) 
428.87724341073573

>  <compound_id>  (212) 
11036

>  <target_id>  (212) 
1

>  <reference_id>  (212) 
7

>  <inspiration_ids>  (212) 
[55, 7]

>  <energy_score>  (212) 
340.7493560001144

>  <distance_score>  (212) 
10.766078381470184

>  <path>  (212) 
/opt/xchem-fragalysis-2/maxwin/BulkDock/SCRATCH/511013/C11036-P7/C11036-P7.minimised.mol

>  <scratch_subdir>  (212) 
/opt/xchem-fragalysis-2/maxwin/BulkDock/SCRATCH/511013/C11036-P7

>  <fragmenstein_runtime>  (212) 
9.858659267425537

>  <fragmenstein_outcome>  (212) 
too moved

>  <fragmenstein_mode>  (212) 
expansion

>  <fragmenstein_error>  (212) 


$$$$
C12010-P46
     RDKit          3D

 45 47  0  0  0  0  0  0  0  0999 V2000
  -10.7462  -26.2713   31.6885 C   0  0  0  0  0  0  0  0  0  0  0  0
  -10.4712  -24.7951   31.4594 C   0  0  0  0  0  0  0  0  0  0  0  0
  -10.7632  -24.4293   30.0874 N   0  0  0  0  0  0  0  0  0  0  0  0
  -10.6700  -25.2524   28.7927 C   0  0  0  0  0  0  0  0  0  0  0  0
  -10.4177  -26.3771   28.6300 O   0  0  0  0  0  0  0  0  0  0  0  0
  -11.0834  -24.2814   27.6828 C   0  0  0  0  0  0  0  0  0  0  0  0
  -12.1481  -24.8469   26.8585 C   0  0  0  0  0  0  0  0  0  0  0  0
  -12.8813  -24.2503   25.8689 C   0  0  0  0  0  0  0  0  0  0  0  0
  -13.8592  -25.0843   25.4238 N   0  0  0  0  0  0  0  0  0  0  0  0
  -13.6852  -26.1978   26.0938 C   0  0  0  0  0  0  0  0  0  0  0  0
  -12.5926  -26.1386   26.9017 N   0  0  0  0  0  0  0  0  0  0  0  0
  -11.3333  -23.8211   32.2742 C   0  0  0  0  0  0  0  0  0  0  0  0
  -11.7340  -24.2727   33.6450 C   0  0  0  0  0  0  0  0  0  0  0  0
  -12.5470  -23.2371   34.3798 C   0  0  0  0  0  0  0  0  0  0  0  0
  -12.8948  -22.0465   33.6249 N   0  0  0  0  0  0  0  0  0  0  0  0
  -14.2156  -22.0614   33.1966 C   0  0  0  0  0  0  0  0  0  0  0  0
  -15.1119  -22.7812   33.8949 N   0  0  0  0  0  0  0  0  0  0  0  0
  -16.3431  -22.9277   33.4000 C   0  0  0  0  0  0  0  0  0  0  0  0
  -16.7590  -22.3070   32.2672 C   0  0  0  0  0  0  0  0  0  0  0  0
  -15.8206  -21.5086   31.6836 C   0  0  0  0  0  0  0  0  0  0  0  0
  -14.5659  -21.3594   32.1163 N   0  0  0  0  0  0  0  0  0  0  0  0
  -11.9227  -21.4556   32.7394 C   0  0  0  0  0  0  0  0  0  0  0  0
  -10.8156  -22.3994   32.3367 C   0  0  0  0  0  0  0  0  0  0  0  0
   -9.9788  -26.8884   31.2166 H   0  0  0  0  0  0  0  0  0  0  0  0
  -10.7677  -26.5174   32.7464 H   0  0  0  0  0  0  0  0  0  0  0  0
  -11.6858  -26.5953   31.2565 H   0  0  0  0  0  0  0  0  0  0  0  0
   -9.4093  -24.6094   31.6465 H   0  0  0  0  0  0  0  0  0  0  0  0
  -11.0859  -23.4957   29.8712 H   0  0  0  0  0  0  0  0  0  0  0  0
  -11.4383  -23.3214   28.0723 H   0  0  0  0  0  0  0  0  0  0  0  0
  -10.2375  -24.0390   27.0516 H   0  0  0  0  0  0  0  0  0  0  0  0
  -12.7661  -23.2566   25.4618 H   0  0  0  0  0  0  0  0  0  0  0  0
  -14.3109  -27.0736   26.0249 H   0  0  0  0  0  0  0  0  0  0  0  0
  -12.1988  -26.8994   27.4447 H   0  0  0  0  0  0  0  0  0  0  0  0
  -12.2550  -23.7378   31.7050 H   0  0  0  0  0  0  0  0  0  0  0  0
  -12.3678  -25.1400   33.5326 H   0  0  0  0  0  0  0  0  0  0  0  0
  -10.8870  -24.6363   34.2320 H   0  0  0  0  0  0  0  0  0  0  0  0
  -12.0170  -22.9302   35.2704 H   0  0  0  0  0  0  0  0  0  0  0  0
  -13.4228  -23.7637   34.7520 H   0  0  0  0  0  0  0  0  0  0  0  0
  -17.0057  -23.5620   33.9782 H   0  0  0  0  0  0  0  0  0  0  0  0
  -17.7703  -22.3894   31.9012 H   0  0  0  0  0  0  0  0  0  0  0  0
  -16.0956  -20.9246   30.8295 H   0  0  0  0  0  0  0  0  0  0  0  0
  -12.3657  -21.1988   31.7799 H   0  0  0  0  0  0  0  0  0  0  0  0
  -11.5547  -20.5133   33.1484 H   0  0  0  0  0  0  0  0  0  0  0  0
  -10.5200  -22.0344   31.3585 H   0  0  0  0  0  0  0  0  0  0  0  0
   -9.9335  -22.3883   32.9661 H   0  0  0  0  0  0  0  0  0  0  0  0
  1  2  1  0
  2  3  1  0
  3  4  1  0
  4  5  2  0
  4  6  1  0
  6  7  1  0
  7  8  2  0
  8  9  1  0
  9 10  2  0
 10 11  1  0
  2 12  1  0
 12 13  1  0
 13 14  1  0
 14 15  1  0
 15 16  1  0
 16 17  2  0
 17 18  1  0
 18 19  2  0
 19 20  1  0
 20 21  2  0
 15 22  1  0
 22 23  1  0
 11  7  1  0
 23 12  1  0
 21 16  1  0
  1 24  1  0
  1 25  1  0
  1 26  1  0
  2 27  1  0
  3 28  1  0
  6 29  1  0
  6 30  1  0
  8 31  1  0
 10 32  1  0
 11 33  1  0
 12 34  1  0
 13 35  1  0
 13 36  1  0
 14 37  1  0
 14 38  1  0
 18 39  1  0
 19 40  1  0
 20 41  1  0
 22 42  1  0
 22 43  1  0
 23 44  1  0
 23 45  1  0
M  END
>  <Energy>  (213) 
-18.043827891272358

>  <compound_id>  (213) 
12010

>  <target_id>  (213) 
1

>  <reference_id>  (213) 
46

>  <inspiration_ids>  (213) 
[46, 64]

>  <energy_score>  (213) 
8.637371666002537

>  <distance_score>  (213) 
2.918167868162565

>  <path>  (213) 
/opt/xchem-fragalysis-2/maxwin/BulkDock/SCRATCH/511013/C12010-P46/C12010-P46.minimised.mol

>  <scratch_subdir>  (213) 
/opt/xchem-fragalysis-2/maxwin/BulkDock/SCRATCH/511013/C12010-P46

>  <fragmenstein_runtime>  (213) 
5.1953582763671875

>  <fragmenstein_outcome>  (213) 
too moved

>  <fragmenstein_mode>  (213) 
expansion

>  <fragmenstein_error>  (213) 


$$$$
C12010-P64
     RDKit          3D

 45 47  0  0  0  0  0  0  0  0999 V2000
  -13.8099  -24.4478   33.8903 C   0  0  0  0  0  0  0  0  0  0  0  0
  -12.3874  -23.8732   33.5801 C   0  0  0  0  0  0  0  0  0  0  0  0
  -11.4123  -24.7968   32.9495 N   0  0  0  0  0  0  0  0  0  0  0  0
  -10.6972  -24.7028   31.7327 C   0  0  0  0  0  0  0  0  0  0  0  0
  -10.6336  -23.8269   30.9427 O   0  0  0  0  0  0  0  0  0  0  0  0
   -9.8763  -25.8885   31.2598 C   0  0  0  0  0  0  0  0  0  0  0  0
  -10.0077  -26.0322   29.7477 C   0  0  0  0  0  0  0  0  0  0  0  0
   -9.6002  -25.2336   28.7102 C   0  0  0  0  0  0  0  0  0  0  0  0
   -9.9377  -25.7196   27.4799 N   0  0  0  0  0  0  0  0  0  0  0  0
  -10.6759  -26.7533   27.7444 C   0  0  0  0  0  0  0  0  0  0  0  0
  -10.6347  -27.0255   29.0729 N   0  0  0  0  0  0  0  0  0  0  0  0
  -12.4549  -22.3477   33.2500 C   0  0  0  0  0  0  0  0  0  0  0  0
  -13.7984  -21.8406   32.8075 C   0  0  0  0  0  0  0  0  0  0  0  0
  -14.0372  -22.1153   31.3411 C   0  0  0  0  0  0  0  0  0  0  0  0
  -12.8177  -22.3311   30.4981 N   0  0  0  0  0  0  0  0  0  0  0  0
  -12.5432  -22.9661   29.2725 C   0  0  0  0  0  0  0  0  0  0  0  0
  -13.3063  -23.9277   28.7552 N   0  0  0  0  0  0  0  0  0  0  0  0
  -13.1008  -24.4188   27.4853 C   0  0  0  0  0  0  0  0  0  0  0  0
  -12.1029  -24.0440   26.6926 C   0  0  0  0  0  0  0  0  0  0  0  0
  -11.2963  -23.2073   27.3761 C   0  0  0  0  0  0  0  0  0  0  0  0
  -11.5171  -22.5639   28.5372 N   0  0  0  0  0  0  0  0  0  0  0  0
  -11.6588  -21.6137   30.8948 C   0  0  0  0  0  0  0  0  0  0  0  0
  -11.4147  -21.6999   32.3573 C   0  0  0  0  0  0  0  0  0  0  0  0
  -13.7862  -25.4591   34.3039 H   0  0  0  0  0  0  0  0  0  0  0  0
  -14.3180  -23.8164   34.6220 H   0  0  0  0  0  0  0  0  0  0  0  0
  -14.5348  -24.4665   33.0873 H   0  0  0  0  0  0  0  0  0  0  0  0
  -11.9101  -23.8446   34.5488 H   0  0  0  0  0  0  0  0  0  0  0  0
  -11.1669  -25.6610   33.4081 H   0  0  0  0  0  0  0  0  0  0  0  0
   -8.8349  -25.6307   31.4781 H   0  0  0  0  0  0  0  0  0  0  0  0
  -10.1175  -26.7967   31.7845 H   0  0  0  0  0  0  0  0  0  0  0  0
   -9.1194  -24.2869   28.7856 H   0  0  0  0  0  0  0  0  0  0  0  0
  -11.2289  -27.3432   27.0267 H   0  0  0  0  0  0  0  0  0  0  0  0
  -11.0734  -27.8169   29.4813 H   0  0  0  0  0  0  0  0  0  0  0  0
  -12.3093  -21.8679   34.2225 H   0  0  0  0  0  0  0  0  0  0  0  0
  -14.6418  -22.2049   33.4006 H   0  0  0  0  0  0  0  0  0  0  0  0
  -13.8595  -20.7740   33.0141 H   0  0  0  0  0  0  0  0  0  0  0  0
  -14.6325  -21.2629   31.0107 H   0  0  0  0  0  0  0  0  0  0  0  0
  -14.7753  -22.8953   31.3527 H   0  0  0  0  0  0  0  0  0  0  0  0
  -13.8353  -25.1370   27.1302 H   0  0  0  0  0  0  0  0  0  0  0  0
  -11.8535  -24.4995   25.7520 H   0  0  0  0  0  0  0  0  0  0  0  0
  -10.2774  -23.2288   27.0778 H   0  0  0  0  0  0  0  0  0  0  0  0
  -10.7326  -21.8289   30.4084 H   0  0  0  0  0  0  0  0  0  0  0  0
  -11.6938  -20.6448   30.4696 H   0  0  0  0  0  0  0  0  0  0  0  0
  -11.2980  -20.6596   32.6782 H   0  0  0  0  0  0  0  0  0  0  0  0
  -10.4745  -22.2312   32.4763 H   0  0  0  0  0  0  0  0  0  0  0  0
  1  2  1  0
  2  3  1  0
  3  4  1  0
  4  5  2  0
  4  6  1  0
  6  7  1  0
  7  8  2  0
  8  9  1  0
  9 10  2  0
 10 11  1  0
  2 12  1  0
 12 13  1  0
 13 14  1  0
 14 15  1  0
 15 16  1  0
 16 17  2  0
 17 18  1  0
 18 19  2  0
 19 20  1  0
 20 21  2  0
 15 22  1  0
 22 23  1  0
 11  7  1  0
 23 12  1  0
 21 16  1  0
  1 24  1  0
  1 25  1  0
  1 26  1  0
  2 27  1  0
  3 28  1  0
  6 29  1  0
  6 30  1  0
  8 31  1  0
 10 32  1  0
 11 33  1  0
 12 34  1  0
 13 35  1  0
 13 36  1  0
 14 37  1  0
 14 38  1  0
 18 39  1  0
 19 40  1  0
 20 41  1  0
 22 42  1  0
 22 43  1  0
 23 44  1  0
 23 45  1  0
M  END
>  <Energy>  (214) 
56.030462332068694

>  <compound_id>  (214) 
12010

>  <target_id>  (214) 
1

>  <reference_id>  (214) 
64

>  <inspiration_ids>  (214) 
[46, 64]

>  <energy_score>  (214) 
78.33655740036335

>  <distance_score>  (214) 
2.645170754152111

>  <path>  (214) 
/opt/xchem-fragalysis-2/maxwin/BulkDock/SCRATCH/511013/C12010-P64/C12010-P64.minimised.mol

>  <scratch_subdir>  (214) 
/opt/xchem-fragalysis-2/maxwin/BulkDock/SCRATCH/511013/C12010-P64

>  <fragmenstein_runtime>  (214) 
5.854105710983276

>  <fragmenstein_outcome>  (214) 
too moved

>  <fragmenstein_mode>  (214) 
expansion

>  <fragmenstein_error>  (214) 


$$$$
C18245-P46
     RDKit          3D

 45 46  0  0  0  0  0  0  0  0999 V2000
  -14.0800  -27.8364   27.8793 C   0  0  0  0  0  0  0  0  0  0  0  0
  -14.4762  -26.5174   27.2583 C   0  0  0  0  0  0  0  0  0  0  0  0
  -13.8853  -26.1013   25.9074 C   0  0  0  0  0  0  0  0  0  0  0  0
  -12.3673  -25.9662   25.8341 C   0  0  0  0  0  0  0  0  0  0  0  0
  -11.8596  -24.5218   25.8747 C   0  0  0  0  0  0  0  0  0  0  0  0
  -11.1420  -24.1023   25.0221 O   0  0  0  0  0  0  0  0  0  0  0  0
  -12.3135  -23.9307   27.0727 N   0  0  0  0  0  0  0  0  0  0  0  0
  -11.9800  -22.6670   27.6977 C   0  0  0  0  0  0  0  0  0  0  0  0
  -11.2710  -22.9038   29.0124 C   0  0  0  0  0  0  0  0  0  0  0  0
  -12.0320  -23.9972   29.7097 C   0  0  0  0  0  0  0  0  0  0  0  0
  -11.9995  -23.7688   31.2111 C   0  0  0  0  0  0  0  0  0  0  0  0
  -10.6930  -23.8027   31.7274 N   0  0  0  0  0  0  0  0  0  0  0  0
   -9.9076  -24.7891   31.0204 C   0  0  0  0  0  0  0  0  0  0  0  0
   -9.2155  -24.6863   30.0424 O   0  0  0  0  0  0  0  0  0  0  0  0
  -10.0915  -26.0844   31.5303 C   0  0  0  0  0  0  0  0  0  0  0  0
  -10.8751  -26.4852   32.5650 C   0  0  0  0  0  0  0  0  0  0  0  0
  -11.6335  -27.5590   32.1737 N   0  0  0  0  0  0  0  0  0  0  0  0
  -11.2993  -27.8023   30.9445 C   0  0  0  0  0  0  0  0  0  0  0  0
  -10.1884  -27.1107   30.6120 N   0  0  0  0  0  0  0  0  0  0  0  0
  -10.8181  -22.2571   31.5252 C   0  0  0  0  0  0  0  0  0  0  0  0
  -11.2156  -21.7627   30.0429 C   0  0  0  0  0  0  0  0  0  0  0  0
  -13.0049  -27.9122   28.0509 H   0  0  0  0  0  0  0  0  0  0  0  0
  -14.4505  -28.6621   27.2683 H   0  0  0  0  0  0  0  0  0  0  0  0
  -14.5835  -27.9653   28.8412 H   0  0  0  0  0  0  0  0  0  0  0  0
  -14.2770  -25.7406   27.9885 H   0  0  0  0  0  0  0  0  0  0  0  0
  -15.5637  -26.5642   27.1242 H   0  0  0  0  0  0  0  0  0  0  0  0
  -14.3535  -25.1538   25.6095 H   0  0  0  0  0  0  0  0  0  0  0  0
  -14.2172  -26.8178   25.1554 H   0  0  0  0  0  0  0  0  0  0  0  0
  -11.8613  -26.5188   26.6330 H   0  0  0  0  0  0  0  0  0  0  0  0
  -12.0188  -26.3967   24.8911 H   0  0  0  0  0  0  0  0  0  0  0  0
  -12.8415  -24.6065   27.5885 H   0  0  0  0  0  0  0  0  0  0  0  0
  -12.9273  -22.2461   27.9799 H   0  0  0  0  0  0  0  0  0  0  0  0
  -11.4468  -22.0099   27.0255 H   0  0  0  0  0  0  0  0  0  0  0  0
  -10.2780  -23.2343   28.7135 H   0  0  0  0  0  0  0  0  0  0  0  0
  -11.6577  -24.9838   29.4132 H   0  0  0  0  0  0  0  0  0  0  0  0
  -13.0424  -23.9992   29.3281 H   0  0  0  0  0  0  0  0  0  0  0  0
  -12.7076  -23.0269   31.6140 H   0  0  0  0  0  0  0  0  0  0  0  0
  -12.3224  -24.6895   31.6671 H   0  0  0  0  0  0  0  0  0  0  0  0
  -11.0480  -25.9394   33.4830 H   0  0  0  0  0  0  0  0  0  0  0  0
  -11.8484  -28.4319   30.2690 H   0  0  0  0  0  0  0  0  0  0  0  0
   -9.7885  -27.0657   29.6855 H   0  0  0  0  0  0  0  0  0  0  0  0
  -11.5286  -21.8313   32.2637 H   0  0  0  0  0  0  0  0  0  0  0  0
   -9.9567  -21.7390   31.9197 H   0  0  0  0  0  0  0  0  0  0  0  0
  -10.5391  -20.9934   29.7074 H   0  0  0  0  0  0  0  0  0  0  0  0
  -12.2058  -21.3068   30.0943 H   0  0  0  0  0  0  0  0  0  0  0  0
  1  2  1  0
  2  3  1  0
  3  4  1  0
  4  5  1  0
  5  6  2  0
  5  7  1  0
  7  8  1  0
  8  9  1  0
  9 10  1  0
 10 11  1  0
 11 12  1  0
 12 13  1  0
 13 14  2  0
 13 15  1  0
 15 16  2  0
 16 17  1  0
 17 18  2  0
 18 19  1  0
 12 20  1  0
 20 21  1  0
 21  9  1  0
 19 15  1  0
  1 22  1  0
  1 23  1  0
  1 24  1  0
  2 25  1  0
  2 26  1  0
  3 27  1  0
  3 28  1  0
  4 29  1  0
  4 30  1  0
  7 31  1  0
  8 32  1  0
  8 33  1  0
  9 34  1  0
 10 35  1  0
 10 36  1  0
 11 37  1  0
 11 38  1  0
 16 39  1  0
 18 40  1  0
 19 41  1  0
 20 42  1  0
 20 43  1  0
 21 44  1  0
 21 45  1  0
M  END
>  <Energy>  (215) 
98.169613930952579

>  <compound_id>  (215) 
18245

>  <target_id>  (215) 
1

>  <reference_id>  (215) 
46

>  <inspiration_ids>  (215) 
[46, 64]

>  <energy_score>  (215) 
110.1383320895564

>  <distance_score>  (215) 
4.448715843027727

>  <path>  (215) 
/opt/xchem-fragalysis-2/maxwin/BulkDock/SCRATCH/511013/C18245-P46/C18245-P46.minimised.mol

>  <scratch_subdir>  (215) 
/opt/xchem-fragalysis-2/maxwin/BulkDock/SCRATCH/511013/C18245-P46

>  <fragmenstein_runtime>  (215) 
7.788198471069336

>  <fragmenstein_outcome>  (215) 
too moved

>  <fragmenstein_mode>  (215) 
expansion

>  <fragmenstein_error>  (215) 


$$$$
C18245-P64
     RDKit          3D

 45 46  0  0  0  0  0  0  0  0999 V2000
   -8.5826  -25.6228   31.5721 C   0  0  0  0  0  0  0  0  0  0  0  0
   -9.3661  -26.8812   31.1294 C   0  0  0  0  0  0  0  0  0  0  0  0
   -9.6548  -27.2006   29.6263 C   0  0  0  0  0  0  0  0  0  0  0  0
   -9.6544  -26.2080   28.4634 C   0  0  0  0  0  0  0  0  0  0  0  0
  -10.9209  -25.6006   28.8034 C   0  0  0  0  0  0  0  0  0  0  0  0
  -11.9259  -25.7383   28.1732 O   0  0  0  0  0  0  0  0  0  0  0  0
  -10.6735  -24.9354   30.0532 N   0  0  0  0  0  0  0  0  0  0  0  0
  -11.5010  -24.1760   30.8616 C   0  0  0  0  0  0  0  0  0  0  0  0
  -11.8245  -23.9376   32.4467 C   0  0  0  0  0  0  0  0  0  0  0  0
  -13.2067  -23.2207   32.7681 C   0  0  0  0  0  0  0  0  0  0  0  0
  -13.3009  -22.1543   31.6322 C   0  0  0  0  0  0  0  0  0  0  0  0
  -11.8515  -21.9490   30.9465 N   0  0  0  0  0  0  0  0  0  0  0  0
  -11.9747  -21.3730   29.7167 C   0  0  0  0  0  0  0  0  0  0  0  0
  -11.9716  -20.2384   29.3999 O   0  0  0  0  0  0  0  0  0  0  0  0
  -12.0087  -22.3317   28.6406 C   0  0  0  0  0  0  0  0  0  0  0  0
  -10.8724  -22.5851   27.9280 C   0  0  0  0  0  0  0  0  0  0  0  0
  -11.0344  -23.4242   26.8721 N   0  0  0  0  0  0  0  0  0  0  0  0
  -12.3040  -23.7034   26.9203 C   0  0  0  0  0  0  0  0  0  0  0  0
  -12.7727  -23.3393   28.1568 N   0  0  0  0  0  0  0  0  0  0  0  0
  -11.5735  -21.3869   32.2209 C   0  0  0  0  0  0  0  0  0  0  0  0
  -11.0581  -22.7097   32.8864 C   0  0  0  0  0  0  0  0  0  0  0  0
   -7.6681  -25.7491   32.1346 H   0  0  0  0  0  0  0  0  0  0  0  0
   -9.1905  -24.9444   32.1774 H   0  0  0  0  0  0  0  0  0  0  0  0
   -8.2563  -25.1378   30.6901 H   0  0  0  0  0  0  0  0  0  0  0  0
  -10.2768  -26.7536   31.6993 H   0  0  0  0  0  0  0  0  0  0  0  0
   -8.8989  -27.8056   31.4851 H   0  0  0  0  0  0  0  0  0  0  0  0
   -8.8777  -27.8893   29.3684 H   0  0  0  0  0  0  0  0  0  0  0  0
  -10.6045  -27.7244   29.5796 H   0  0  0  0  0  0  0  0  0  0  0  0
   -9.7216  -26.6954   27.4900 H   0  0  0  0  0  0  0  0  0  0  0  0
   -8.8563  -25.4746   28.4655 H   0  0  0  0  0  0  0  0  0  0  0  0
   -9.7227  -24.9456   30.2343 H   0  0  0  0  0  0  0  0  0  0  0  0
  -12.2968  -23.9158   30.2227 H   0  0  0  0  0  0  0  0  0  0  0  0
  -10.7002  -23.4654   30.8258 H   0  0  0  0  0  0  0  0  0  0  0  0
  -11.5938  -24.7909   33.0856 H   0  0  0  0  0  0  0  0  0  0  0  0
  -14.0991  -23.8339   32.9253 H   0  0  0  0  0  0  0  0  0  0  0  0
  -13.2181  -22.7077   33.7412 H   0  0  0  0  0  0  0  0  0  0  0  0
  -13.9633  -22.4646   30.8379 H   0  0  0  0  0  0  0  0  0  0  0  0
  -13.8316  -21.2644   31.9931 H   0  0  0  0  0  0  0  0  0  0  0  0
   -9.9407  -22.1485   28.2094 H   0  0  0  0  0  0  0  0  0  0  0  0
  -12.8659  -24.3102   26.2247 H   0  0  0  0  0  0  0  0  0  0  0  0
  -13.5105  -23.8322   28.6251 H   0  0  0  0  0  0  0  0  0  0  0  0
  -10.7115  -20.7355   32.0477 H   0  0  0  0  0  0  0  0  0  0  0  0
  -12.2239  -20.7941   32.8733 H   0  0  0  0  0  0  0  0  0  0  0  0
   -9.9903  -22.8870   32.7452 H   0  0  0  0  0  0  0  0  0  0  0  0
  -11.3584  -22.6075   33.9158 H   0  0  0  0  0  0  0  0  0  0  0  0
  1  2  1  0
  2  3  1  0
  3  4  1  0
  4  5  1  0
  5  6  2  0
  5  7  1  0
  7  8  1  0
  8  9  1  0
  9 10  1  0
 10 11  1  0
 11 12  1  0
 12 13  1  0
 13 14  2  0
 13 15  1  0
 15 16  2  0
 16 17  1  0
 17 18  2  0
 18 19  1  0
 12 20  1  0
 20 21  1  0
 21  9  1  0
 19 15  1  0
  1 22  1  0
  1 23  1  0
  1 24  1  0
  2 25  1  0
  2 26  1  0
  3 27  1  0
  3 28  1  0
  4 29  1  0
  4 30  1  0
  7 31  1  0
  8 32  1  0
  8 33  1  0
  9 34  1  0
 10 35  1  0
 10 36  1  0
 11 37  1  0
 11 38  1  0
 16 39  1  0
 18 40  1  0
 19 41  1  0
 20 42  1  0
 20 43  1  0
 21 44  1  0
 21 45  1  0
M  END
>  <Energy>  (216) 
257.34018467108189

>  <compound_id>  (216) 
18245

>  <target_id>  (216) 
1

>  <reference_id>  (216) 
64

>  <inspiration_ids>  (216) 
[46, 64]

>  <energy_score>  (216) 
269.30890282969386

>  <distance_score>  (216) 
2.60073351734521

>  <path>  (216) 
/opt/xchem-fragalysis-2/maxwin/BulkDock/SCRATCH/511013/C18245-P64/C18245-P64.minimised.mol

>  <scratch_subdir>  (216) 
/opt/xchem-fragalysis-2/maxwin/BulkDock/SCRATCH/511013/C18245-P64

>  <fragmenstein_runtime>  (216) 
5.857106685638428

>  <fragmenstein_outcome>  (216) 
too moved

>  <fragmenstein_mode>  (216) 
expansion

>  <fragmenstein_error>  (216) 


$$$$
C18246-P46
     RDKit          3D

 54 55  0  0  0  0  0  0  0  0999 V2000
  -10.8152  -27.2696   26.4307 C   0  0  0  0  0  0  0  0  0  0  0  0
  -10.7737  -26.1975   27.4394 C   0  0  0  0  0  0  0  0  0  0  0  0
  -10.1879  -26.5626   28.7809 C   0  0  0  0  0  0  0  0  0  0  0  0
  -11.3182  -27.2402   29.5383 C   0  0  0  0  0  0  0  0  0  0  0  0
  -11.1320  -27.3717   31.0098 C   0  0  0  0  0  0  0  0  0  0  0  0
  -11.2099  -28.4507   31.5144 O   0  0  0  0  0  0  0  0  0  0  0  0
  -10.7870  -26.1131   31.5607 N   0  0  0  0  0  0  0  0  0  0  0  0
  -10.3434  -25.7658   32.8325 C   0  0  0  0  0  0  0  0  0  0  0  0
  -10.5226  -24.4516   33.4855 C   0  0  0  0  0  0  0  0  0  0  0  0
  -11.9050  -24.1893   33.9605 C   0  0  0  0  0  0  0  0  0  0  0  0
  -12.5148  -23.1057   33.1499 C   0  0  0  0  0  0  0  0  0  0  0  0
  -12.1440  -23.0467   31.6711 N   0  0  0  0  0  0  0  0  0  0  0  0
  -12.7442  -22.3831   30.6164 C   0  0  0  0  0  0  0  0  0  0  0  0
  -13.6539  -21.6161   30.6065 O   0  0  0  0  0  0  0  0  0  0  0  0
  -12.2477  -22.6267   29.1851 C   0  0  0  0  0  0  0  0  0  0  0  0
  -10.9568  -22.0387   28.7268 C   0  0  0  0  0  0  0  0  0  0  0  0
  -12.3579  -24.0265   28.7323 C   0  0  0  0  0  0  0  0  0  0  0  0
  -13.0024  -24.2672   27.4109 C   0  0  0  0  0  0  0  0  0  0  0  0
  -12.6991  -23.8531   26.1323 C   0  0  0  0  0  0  0  0  0  0  0  0
  -13.4915  -24.4747   25.2050 N   0  0  0  0  0  0  0  0  0  0  0  0
  -14.2345  -25.3112   25.8767 C   0  0  0  0  0  0  0  0  0  0  0  0
  -13.9747  -25.2231   27.2088 N   0  0  0  0  0  0  0  0  0  0  0  0
  -11.0279  -22.2605   32.2101 C   0  0  0  0  0  0  0  0  0  0  0  0
   -9.9754  -23.2964   32.6782 C   0  0  0  0  0  0  0  0  0  0  0  0
  -11.3127  -26.9190   25.5210 H   0  0  0  0  0  0  0  0  0  0  0  0
   -9.8731  -27.7366   26.1672 H   0  0  0  0  0  0  0  0  0  0  0  0
  -11.4067  -28.0135   26.9405 H   0  0  0  0  0  0  0  0  0  0  0  0
  -11.8284  -26.0950   27.5881 H   0  0  0  0  0  0  0  0  0  0  0  0
  -10.4333  -25.2360   27.0704 H   0  0  0  0  0  0  0  0  0  0  0  0
   -9.8393  -25.6544   29.2800 H   0  0  0  0  0  0  0  0  0  0  0  0
   -9.2878  -27.1613   28.7023 H   0  0  0  0  0  0  0  0  0  0  0  0
  -11.6208  -28.1899   29.1034 H   0  0  0  0  0  0  0  0  0  0  0  0
  -12.1885  -26.6433   29.3935 H   0  0  0  0  0  0  0  0  0  0  0  0
  -10.9066  -25.4027   30.8564 H   0  0  0  0  0  0  0  0  0  0  0  0
   -9.2592  -25.8284   32.6952 H   0  0  0  0  0  0  0  0  0  0  0  0
  -10.7347  -26.5217   33.5094 H   0  0  0  0  0  0  0  0  0  0  0  0
   -9.8811  -24.6575   34.3496 H   0  0  0  0  0  0  0  0  0  0  0  0
  -11.8911  -23.8445   34.9905 H   0  0  0  0  0  0  0  0  0  0  0  0
  -12.5271  -25.0700   33.9498 H   0  0  0  0  0  0  0  0  0  0  0  0
  -13.5916  -23.2954   33.1745 H   0  0  0  0  0  0  0  0  0  0  0  0
  -12.5985  -22.1433   33.6916 H   0  0  0  0  0  0  0  0  0  0  0  0
  -12.9550  -22.0822   28.5777 H   0  0  0  0  0  0  0  0  0  0  0  0
  -10.1587  -22.7702   28.6096 H   0  0  0  0  0  0  0  0  0  0  0  0
  -11.1132  -21.6830   27.7089 H   0  0  0  0  0  0  0  0  0  0  0  0
  -10.6495  -21.2175   29.3640 H   0  0  0  0  0  0  0  0  0  0  0  0
  -12.8216  -24.6194   29.4819 H   0  0  0  0  0  0  0  0  0  0  0  0
  -11.3456  -24.3913   28.7303 H   0  0  0  0  0  0  0  0  0  0  0  0
  -11.9522  -23.1388   25.8240 H   0  0  0  0  0  0  0  0  0  0  0  0
  -14.9909  -25.9681   25.4717 H   0  0  0  0  0  0  0  0  0  0  0  0
  -14.5639  -25.6458   27.9127 H   0  0  0  0  0  0  0  0  0  0  0  0
  -11.2437  -21.3866   32.8384 H   0  0  0  0  0  0  0  0  0  0  0  0
  -10.5793  -21.7261   31.3732 H   0  0  0  0  0  0  0  0  0  0  0  0
   -9.5411  -23.7761   31.8032 H   0  0  0  0  0  0  0  0  0  0  0  0
   -9.1558  -22.8128   33.2097 H   0  0  0  0  0  0  0  0  0  0  0  0
  1  2  1  0
  2  3  1  0
  3  4  1  0
  4  5  1  0
  5  6  2  0
  5  7  1  0
  7  8  1  0
  8  9  1  0
  9 10  1  0
 10 11  1  0
 11 12  1  0
 12 13  1  0
 13 14  2  0
 13 15  1  0
 15 16  1  0
 15 17  1  0
 17 18  1  0
 18 19  2  0
 19 20  1  0
 20 21  2  0
 21 22  1  0
 12 23  1  0
 23 24  1  0
 24  9  1  0
 22 18  1  0
  1 25  1  0
  1 26  1  0
  1 27  1  0
  2 28  1  0
  2 29  1  0
  3 30  1  0
  3 31  1  0
  4 32  1  0
  4 33  1  0
  7 34  1  0
  8 35  1  0
  8 36  1  0
  9 37  1  0
 10 38  1  0
 10 39  1  0
 11 40  1  0
 11 41  1  0
 15 42  1  0
 16 43  1  0
 16 44  1  0
 16 45  1  0
 17 46  1  0
 17 47  1  0
 19 48  1  0
 21 49  1  0
 22 50  1  0
 23 51  1  0
 23 52  1  0
 24 53  1  0
 24 54  1  0
M  END
>  <Energy>  (217) 
132.45014978137019

>  <compound_id>  (217) 
18246

>  <target_id>  (217) 
1

>  <reference_id>  (217) 
46

>  <inspiration_ids>  (217) 
[46, 64]

>  <energy_score>  (217) 
109.0360160018368

>  <distance_score>  (217) 
3.1702094599852053

>  <path>  (217) 
/opt/xchem-fragalysis-2/maxwin/BulkDock/SCRATCH/511013/C18246-P46/C18246-P46.minimised.mol

>  <scratch_subdir>  (217) 
/opt/xchem-fragalysis-2/maxwin/BulkDock/SCRATCH/511013/C18246-P46

>  <fragmenstein_runtime>  (217) 
11.43056869506836

>  <fragmenstein_outcome>  (217) 
too moved

>  <fragmenstein_mode>  (217) 
expansion

>  <fragmenstein_error>  (217) 


$$$$
C18246-P64
     RDKit          3D

 54 55  0  0  0  0  0  0  0  0999 V2000
  -13.3439  -25.7930   25.9191 C   0  0  0  0  0  0  0  0  0  0  0  0
  -12.7382  -24.3994   25.9413 C   0  0  0  0  0  0  0  0  0  0  0  0
  -11.9410  -24.0982   27.2072 C   0  0  0  0  0  0  0  0  0  0  0  0
  -10.6719  -24.9352   27.2415 C   0  0  0  0  0  0  0  0  0  0  0  0
  -10.5933  -25.8344   28.4531 C   0  0  0  0  0  0  0  0  0  0  0  0
  -10.9318  -26.9768   28.3682 O   0  0  0  0  0  0  0  0  0  0  0  0
  -10.1041  -25.0873   29.5643 N   0  0  0  0  0  0  0  0  0  0  0  0
   -9.9546  -25.4444   30.9418 C   0  0  0  0  0  0  0  0  0  0  0  0
   -9.8828  -24.3677   32.0339 C   0  0  0  0  0  0  0  0  0  0  0  0
  -10.3269  -25.0156   33.3254 C   0  0  0  0  0  0  0  0  0  0  0  0
  -11.6354  -24.5328   33.9375 C   0  0  0  0  0  0  0  0  0  0  0  0
  -12.4547  -23.2850   33.7716 N   0  0  0  0  0  0  0  0  0  0  0  0
  -13.8682  -23.0784   33.8729 C   0  0  0  0  0  0  0  0  0  0  0  0
  -14.7647  -23.8657   34.0269 O   0  0  0  0  0  0  0  0  0  0  0  0
  -14.2490  -21.5996   33.7337 C   0  0  0  0  0  0  0  0  0  0  0  0
  -13.0580  -20.6602   33.9271 C   0  0  0  0  0  0  0  0  0  0  0  0
  -15.0896  -21.3566   32.4881 C   0  0  0  0  0  0  0  0  0  0  0  0
  -16.5571  -21.5517   32.7361 C   0  0  0  0  0  0  0  0  0  0  0  0
  -17.2996  -22.6433   33.1475 C   0  0  0  0  0  0  0  0  0  0  0  0
  -18.6388  -22.3736   33.0755 N   0  0  0  0  0  0  0  0  0  0  0  0
  -18.7248  -21.1167   32.7194 C   0  0  0  0  0  0  0  0  0  0  0  0
  -17.4924  -20.5658   32.5282 N   0  0  0  0  0  0  0  0  0  0  0  0
  -12.0793  -23.4666   32.3834 C   0  0  0  0  0  0  0  0  0  0  0  0
  -10.7432  -23.1364   31.8458 C   0  0  0  0  0  0  0  0  0  0  0  0
  -14.0399  -25.9311   26.7511 H   0  0  0  0  0  0  0  0  0  0  0  0
  -13.9063  -25.9413   24.9918 H   0  0  0  0  0  0  0  0  0  0  0  0
  -12.5804  -26.5722   25.9720 H   0  0  0  0  0  0  0  0  0  0  0  0
  -13.5469  -23.6796   25.8100 H   0  0  0  0  0  0  0  0  0  0  0  0
  -12.0719  -24.2602   25.0868 H   0  0  0  0  0  0  0  0  0  0  0  0
  -12.5601  -24.2330   28.0969 H   0  0  0  0  0  0  0  0  0  0  0  0
  -11.6562  -23.0401   27.1933 H   0  0  0  0  0  0  0  0  0  0  0  0
   -9.8007  -24.2767   27.2239 H   0  0  0  0  0  0  0  0  0  0  0  0
  -10.5946  -25.5798   26.3637 H   0  0  0  0  0  0  0  0  0  0  0  0
   -9.9969  -24.1299   29.2909 H   0  0  0  0  0  0  0  0  0  0  0  0
   -9.0875  -26.0914   31.0380 H   0  0  0  0  0  0  0  0  0  0  0  0
  -10.7843  -26.0983   31.1212 H   0  0  0  0  0  0  0  0  0  0  0  0
   -8.8342  -24.0996   32.1444 H   0  0  0  0  0  0  0  0  0  0  0  0
  -10.5060  -26.0812   33.1864 H   0  0  0  0  0  0  0  0  0  0  0  0
   -9.5108  -24.9745   34.0502 H   0  0  0  0  0  0  0  0  0  0  0  0
  -12.3414  -25.3509   34.0409 H   0  0  0  0  0  0  0  0  0  0  0  0
  -11.3584  -24.5180   34.9842 H   0  0  0  0  0  0  0  0  0  0  0  0
  -14.9380  -21.3940   34.5522 H   0  0  0  0  0  0  0  0  0  0  0  0
  -12.3777  -20.7102   33.0746 H   0  0  0  0  0  0  0  0  0  0  0  0
  -13.4121  -19.6465   34.1387 H   0  0  0  0  0  0  0  0  0  0  0  0
  -12.4128  -20.8950   34.7706 H   0  0  0  0  0  0  0  0  0  0  0  0
  -14.7626  -21.9872   31.6605 H   0  0  0  0  0  0  0  0  0  0  0  0
  -14.9878  -20.3213   32.1681 H   0  0  0  0  0  0  0  0  0  0  0  0
  -16.9564  -23.6313   33.4325 H   0  0  0  0  0  0  0  0  0  0  0  0
  -19.6421  -20.5587   32.5860 H   0  0  0  0  0  0  0  0  0  0  0  0
  -17.3166  -19.6119   32.2479 H   0  0  0  0  0  0  0  0  0  0  0  0
  -12.2229  -24.4547   32.0385 H   0  0  0  0  0  0  0  0  0  0  0  0
  -12.7440  -22.8040   31.8151 H   0  0  0  0  0  0  0  0  0  0  0  0
  -10.9252  -22.9050   30.7953 H   0  0  0  0  0  0  0  0  0  0  0  0
  -10.3445  -22.2460   32.3019 H   0  0  0  0  0  0  0  0  0  0  0  0
  1  2  1  0
  2  3  1  0
  3  4  1  0
  4  5  1  0
  5  6  2  0
  5  7  1  0
  7  8  1  0
  8  9  1  0
  9 10  1  0
 10 11  1  0
 11 12  1  0
 12 13  1  0
 13 14  2  0
 13 15  1  0
 15 16  1  0
 15 17  1  0
 17 18  1  0
 18 19  2  0
 19 20  1  0
 20 21  2  0
 21 22  1  0
 12 23  1  0
 23 24  1  0
 24  9  1  0
 22 18  1  0
  1 25  1  0
  1 26  1  0
  1 27  1  0
  2 28  1  0
  2 29  1  0
  3 30  1  0
  3 31  1  0
  4 32  1  0
  4 33  1  0
  7 34  1  0
  8 35  1  0
  8 36  1  0
  9 37  1  0
 10 38  1  0
 10 39  1  0
 11 40  1  0
 11 41  1  0
 15 42  1  0
 16 43  1  0
 16 44  1  0
 16 45  1  0
 17 46  1  0
 17 47  1  0
 19 48  1  0
 21 49  1  0
 22 50  1  0
 23 51  1  0
 23 52  1  0
 24 53  1  0
 24 54  1  0
M  END
>  <Energy>  (218) 
102.21265241284748

>  <compound_id>  (218) 
18246

>  <target_id>  (218) 
1

>  <reference_id>  (218) 
64

>  <inspiration_ids>  (218) 
[46, 64]

>  <energy_score>  (218) 
78.79851863331612

>  <distance_score>  (218) 
3.379251379275705

>  <path>  (218) 
/opt/xchem-fragalysis-2/maxwin/BulkDock/SCRATCH/511013/C18246-P64/C18246-P64.minimised.mol

>  <scratch_subdir>  (218) 
/opt/xchem-fragalysis-2/maxwin/BulkDock/SCRATCH/511013/C18246-P64

>  <fragmenstein_runtime>  (218) 
12.425435543060303

>  <fragmenstein_outcome>  (218) 
too moved

>  <fragmenstein_mode>  (218) 
expansion

>  <fragmenstein_error>  (218) 


$$$$
C18247-P46
     RDKit          3D

 48 49  0  0  0  0  0  0  0  0999 V2000
   -9.4747  -25.3023   29.6667 C   0  0  0  0  0  0  0  0  0  0  0  0
   -9.9125  -26.6051   29.0530 C   0  0  0  0  0  0  0  0  0  0  0  0
  -11.0800  -27.2675   29.7478 C   0  0  0  0  0  0  0  0  0  0  0  0
  -10.8817  -27.3600   31.2743 C   0  0  0  0  0  0  0  0  0  0  0  0
  -11.2342  -25.9971   31.8350 C   0  0  0  0  0  0  0  0  0  0  0  0
  -11.7117  -25.2715   31.0350 O   0  0  0  0  0  0  0  0  0  0  0  0
  -11.0355  -25.8368   33.1940 N   0  0  0  0  0  0  0  0  0  0  0  0
  -11.4297  -24.7841   34.0867 C   0  0  0  0  0  0  0  0  0  0  0  0
  -11.6432  -23.3720   33.4915 C   0  0  0  0  0  0  0  0  0  0  0  0
  -13.0341  -22.8708   33.2629 C   0  0  0  0  0  0  0  0  0  0  0  0
  -13.1345  -21.7545   32.2160 C   0  0  0  0  0  0  0  0  0  0  0  0
  -12.4745  -21.7060   30.8157 N   0  0  0  0  0  0  0  0  0  0  0  0
  -12.4212  -22.6817   29.7783 C   0  0  0  0  0  0  0  0  0  0  0  0
  -12.7967  -23.8180   29.7621 O   0  0  0  0  0  0  0  0  0  0  0  0
  -11.7201  -22.3028   28.4523 C   0  0  0  0  0  0  0  0  0  0  0  0
  -11.9481  -23.3978   27.3833 C   0  0  0  0  0  0  0  0  0  0  0  0
  -12.1113  -23.4565   26.0135 C   0  0  0  0  0  0  0  0  0  0  0  0
  -12.3698  -24.7305   25.5663 N   0  0  0  0  0  0  0  0  0  0  0  0
  -12.4287  -25.4620   26.6435 C   0  0  0  0  0  0  0  0  0  0  0  0
  -12.1436  -24.7158   27.7320 N   0  0  0  0  0  0  0  0  0  0  0  0
  -11.2326  -21.7510   31.6458 C   0  0  0  0  0  0  0  0  0  0  0  0
  -10.7132  -22.9582   32.3926 C   0  0  0  0  0  0  0  0  0  0  0  0
   -9.2893  -25.3360   30.7386 H   0  0  0  0  0  0  0  0  0  0  0  0
   -8.5073  -25.0571   29.2923 H   0  0  0  0  0  0  0  0  0  0  0  0
  -10.1407  -24.4847   29.4170 H   0  0  0  0  0  0  0  0  0  0  0  0
  -10.1526  -26.4767   27.9965 H   0  0  0  0  0  0  0  0  0  0  0  0
   -9.0513  -27.2590   29.0757 H   0  0  0  0  0  0  0  0  0  0  0  0
  -11.3282  -28.2159   29.3029 H   0  0  0  0  0  0  0  0  0  0  0  0
  -11.9754  -26.7346   29.4686 H   0  0  0  0  0  0  0  0  0  0  0  0
   -9.8638  -27.6560   31.5137 H   0  0  0  0  0  0  0  0  0  0  0  0
  -11.5792  -28.0931   31.6867 H   0  0  0  0  0  0  0  0  0  0  0  0
  -10.5170  -26.6402   33.5478 H   0  0  0  0  0  0  0  0  0  0  0  0
  -12.3819  -25.0881   34.5078 H   0  0  0  0  0  0  0  0  0  0  0  0
  -10.7078  -24.8324   34.8993 H   0  0  0  0  0  0  0  0  0  0  0  0
  -11.4678  -22.6964   34.3102 H   0  0  0  0  0  0  0  0  0  0  0  0
  -13.3901  -22.3925   34.1847 H   0  0  0  0  0  0  0  0  0  0  0  0
  -13.7498  -23.6627   33.2306 H   0  0  0  0  0  0  0  0  0  0  0  0
  -12.9698  -20.8262   32.7712 H   0  0  0  0  0  0  0  0  0  0  0  0
  -14.2041  -21.7023   31.9631 H   0  0  0  0  0  0  0  0  0  0  0  0
  -12.1243  -21.3626   28.1233 H   0  0  0  0  0  0  0  0  0  0  0  0
  -10.6487  -22.1977   28.6221 H   0  0  0  0  0  0  0  0  0  0  0  0
  -12.1081  -22.6532   25.2944 H   0  0  0  0  0  0  0  0  0  0  0  0
  -12.6660  -26.5142   26.6927 H   0  0  0  0  0  0  0  0  0  0  0  0
  -12.2144  -24.9998   28.7009 H   0  0  0  0  0  0  0  0  0  0  0  0
  -11.1213  -20.8501   32.2736 H   0  0  0  0  0  0  0  0  0  0  0  0
  -10.4928  -21.5008   30.8905 H   0  0  0  0  0  0  0  0  0  0  0  0
   -9.7526  -22.7249   32.8560 H   0  0  0  0  0  0  0  0  0  0  0  0
  -10.4649  -23.7199   31.6790 H   0  0  0  0  0  0  0  0  0  0  0  0
  1  2  1  0
  2  3  1  0
  3  4  1  0
  4  5  1  0
  5  6  2  0
  5  7  1  0
  7  8  1  0
  8  9  1  0
  9 10  1  0
 10 11  1  0
 11 12  1  0
 12 13  1  0
 13 14  2  0
 13 15  1  0
 15 16  1  0
 16 17  2  0
 17 18  1  0
 18 19  2  0
 19 20  1  0
 12 21  1  0
 21 22  1  0
 22  9  1  0
 20 16  1  0
  1 23  1  0
  1 24  1  0
  1 25  1  0
  2 26  1  0
  2 27  1  0
  3 28  1  0
  3 29  1  0
  4 30  1  0
  4 31  1  0
  7 32  1  0
  8 33  1  0
  8 34  1  0
  9 35  1  0
 10 36  1  0
 10 37  1  0
 11 38  1  0
 11 39  1  0
 15 40  1  0
 15 41  1  0
 17 42  1  0
 19 43  1  0
 20 44  1  0
 21 45  1  0
 21 46  1  0
 22 47  1  0
 22 48  1  0
M  END
>  <Energy>  (219) 
145.47401761146614

>  <compound_id>  (219) 
18247

>  <target_id>  (219) 
1

>  <reference_id>  (219) 
46

>  <inspiration_ids>  (219) 
[46, 64]

>  <energy_score>  (219) 
115.22235324114655

>  <distance_score>  (219) 
3.082910507066716

>  <path>  (219) 
/opt/xchem-fragalysis-2/maxwin/BulkDock/SCRATCH/511013/C18247-P46/C18247-P46.minimised.mol

>  <scratch_subdir>  (219) 
/opt/xchem-fragalysis-2/maxwin/BulkDock/SCRATCH/511013/C18247-P46

>  <fragmenstein_runtime>  (219) 
5.992312669754028

>  <fragmenstein_outcome>  (219) 
too moved

>  <fragmenstein_mode>  (219) 
expansion

>  <fragmenstein_error>  (219) 


$$$$
C18247-P64
     RDKit          3D

 48 49  0  0  0  0  0  0  0  0999 V2000
   -9.1435  -24.2769   33.2089 C   0  0  0  0  0  0  0  0  0  0  0  0
   -8.5432  -24.9118   32.0096 C   0  0  0  0  0  0  0  0  0  0  0  0
   -9.2248  -25.9189   31.1996 C   0  0  0  0  0  0  0  0  0  0  0  0
  -10.5903  -25.9556   31.6584 C   0  0  0  0  0  0  0  0  0  0  0  0
  -11.2951  -24.6895   31.5282 C   0  0  0  0  0  0  0  0  0  0  0  0
  -11.2196  -24.2378   30.4282 O   0  0  0  0  0  0  0  0  0  0  0  0
  -11.8920  -24.1628   32.7198 N   0  0  0  0  0  0  0  0  0  0  0  0
  -12.4936  -22.9030   32.9804 C   0  0  0  0  0  0  0  0  0  0  0  0
  -12.1116  -21.8582   31.9394 C   0  0  0  0  0  0  0  0  0  0  0  0
  -13.0404  -21.8980   30.8068 C   0  0  0  0  0  0  0  0  0  0  0  0
  -12.3282  -21.2173   29.5903 C   0  0  0  0  0  0  0  0  0  0  0  0
  -11.9646  -22.0602   28.5141 N   0  0  0  0  0  0  0  0  0  0  0  0
  -12.4819  -23.3156   28.0960 C   0  0  0  0  0  0  0  0  0  0  0  0
  -13.3070  -24.0255   28.6017 O   0  0  0  0  0  0  0  0  0  0  0  0
  -11.9116  -23.7448   26.7479 C   0  0  0  0  0  0  0  0  0  0  0  0
  -11.5412  -25.1576   26.8961 C   0  0  0  0  0  0  0  0  0  0  0  0
  -12.1879  -26.3248   26.5805 C   0  0  0  0  0  0  0  0  0  0  0  0
  -11.6860  -27.3498   27.3367 N   0  0  0  0  0  0  0  0  0  0  0  0
  -10.7150  -26.8121   28.0328 C   0  0  0  0  0  0  0  0  0  0  0  0
  -10.5122  -25.5177   27.7111 N   0  0  0  0  0  0  0  0  0  0  0  0
  -10.8459  -22.2317   29.3194 C   0  0  0  0  0  0  0  0  0  0  0  0
  -10.8141  -21.9287   31.1597 C   0  0  0  0  0  0  0  0  0  0  0  0
  -10.0540  -23.7881   33.0758 H   0  0  0  0  0  0  0  0  0  0  0  0
   -9.2276  -24.9384   34.0733 H   0  0  0  0  0  0  0  0  0  0  0  0
   -8.6226  -23.3245   33.3961 H   0  0  0  0  0  0  0  0  0  0  0  0
   -8.6783  -24.1125   31.3506 H   0  0  0  0  0  0  0  0  0  0  0  0
   -7.4977  -25.1585   32.1221 H   0  0  0  0  0  0  0  0  0  0  0  0
   -8.8312  -26.9351   31.2514 H   0  0  0  0  0  0  0  0  0  0  0  0
   -9.2049  -25.5927   30.1549 H   0  0  0  0  0  0  0  0  0  0  0  0
  -10.9684  -26.4629   30.7888 H   0  0  0  0  0  0  0  0  0  0  0  0
  -10.6942  -26.4013   32.6391 H   0  0  0  0  0  0  0  0  0  0  0  0
  -11.8392  -24.8577   33.4501 H   0  0  0  0  0  0  0  0  0  0  0  0
  -13.5772  -23.0274   33.0775 H   0  0  0  0  0  0  0  0  0  0  0  0
  -12.1442  -22.5917   33.9652 H   0  0  0  0  0  0  0  0  0  0  0  0
  -12.1370  -20.9117   32.4760 H   0  0  0  0  0  0  0  0  0  0  0  0
  -13.1626  -22.8929   30.5003 H   0  0  0  0  0  0  0  0  0  0  0  0
  -14.0416  -21.5664   31.1145 H   0  0  0  0  0  0  0  0  0  0  0  0
  -12.8068  -20.3703   29.1538 H   0  0  0  0  0  0  0  0  0  0  0  0
  -11.5408  -20.5261   29.8708 H   0  0  0  0  0  0  0  0  0  0  0  0
  -12.6538  -23.6048   25.9590 H   0  0  0  0  0  0  0  0  0  0  0  0
  -11.0337  -23.1683   26.5314 H   0  0  0  0  0  0  0  0  0  0  0  0
  -13.0669  -26.4594   25.9657 H   0  0  0  0  0  0  0  0  0  0  0  0
  -10.1288  -27.2794   28.8032 H   0  0  0  0  0  0  0  0  0  0  0  0
   -9.8871  -24.9019   28.2052 H   0  0  0  0  0  0  0  0  0  0  0  0
  -10.4188  -23.1778   28.9651 H   0  0  0  0  0  0  0  0  0  0  0  0
  -10.1717  -21.5006   28.8815 H   0  0  0  0  0  0  0  0  0  0  0  0
  -10.1901  -22.6187   31.6712 H   0  0  0  0  0  0  0  0  0  0  0  0
  -10.3150  -20.9686   31.3028 H   0  0  0  0  0  0  0  0  0  0  0  0
  1  2  1  0
  2  3  1  0
  3  4  1  0
  4  5  1  0
  5  6  2  0
  5  7  1  0
  7  8  1  0
  8  9  1  0
  9 10  1  0
 10 11  1  0
 11 12  1  0
 12 13  1  0
 13 14  2  0
 13 15  1  0
 15 16  1  0
 16 17  2  0
 17 18  1  0
 18 19  2  0
 19 20  1  0
 12 21  1  0
 21 22  1  0
 22  9  1  0
 20 16  1  0
  1 23  1  0
  1 24  1  0
  1 25  1  0
  2 26  1  0
  2 27  1  0
  3 28  1  0
  3 29  1  0
  4 30  1  0
  4 31  1  0
  7 32  1  0
  8 33  1  0
  8 34  1  0
  9 35  1  0
 10 36  1  0
 10 37  1  0
 11 38  1  0
 11 39  1  0
 15 40  1  0
 15 41  1  0
 17 42  1  0
 19 43  1  0
 20 44  1  0
 21 45  1  0
 21 46  1  0
 22 47  1  0
 22 48  1  0
M  END
>  <Energy>  (220) 
257.236051210813

>  <compound_id>  (220) 
18247

>  <target_id>  (220) 
1

>  <reference_id>  (220) 
64

>  <inspiration_ids>  (220) 
[46, 64]

>  <energy_score>  (220) 
226.98438684050194

>  <distance_score>  (220) 
3.96872989205452

>  <path>  (220) 
/opt/xchem-fragalysis-2/maxwin/BulkDock/SCRATCH/511013/C18247-P64/C18247-P64.minimised.mol

>  <scratch_subdir>  (220) 
/opt/xchem-fragalysis-2/maxwin/BulkDock/SCRATCH/511013/C18247-P64

>  <fragmenstein_runtime>  (220) 
8.049709558486938

>  <fragmenstein_outcome>  (220) 
too moved

>  <fragmenstein_mode>  (220) 
expansion

>  <fragmenstein_error>  (220) 


$$$$
C18248-P46
     RDKit          3D

 37 38  0  0  0  0  0  0  0  0999 V2000
  -12.3457  -22.4701   31.1119 C   0  0  0  0  0  0  0  0  0  0  0  0
  -12.1643  -23.0937   29.6747 C   0  0  0  0  0  0  0  0  0  0  0  0
  -11.3052  -22.1599   28.8006 C   0  0  0  0  0  0  0  0  0  0  0  0
  -12.0299  -24.5988   29.2698 N   0  0  0  0  0  0  0  0  0  0  0  0
  -11.8915  -24.7124   27.8282 C   0  0  0  0  0  0  0  0  0  0  0  0
  -10.9098  -24.7282   27.1404 O   0  0  0  0  0  0  0  0  0  0  0  0
  -13.1120  -24.9433   27.1050 C   0  0  0  0  0  0  0  0  0  0  0  0
  -13.4770  -24.4312   25.8759 C   0  0  0  0  0  0  0  0  0  0  0  0
  -14.5322  -25.1175   25.3290 N   0  0  0  0  0  0  0  0  0  0  0  0
  -14.7666  -26.0940   26.1708 C   0  0  0  0  0  0  0  0  0  0  0  0
  -13.9295  -26.0392   27.2475 N   0  0  0  0  0  0  0  0  0  0  0  0
  -10.9493  -24.5807   30.3944 C   0  0  0  0  0  0  0  0  0  0  0  0
   -9.7306  -25.2451   29.7677 C   0  0  0  0  0  0  0  0  0  0  0  0
  -10.0347  -26.6422   29.2219 C   0  0  0  0  0  0  0  0  0  0  0  0
  -11.1677  -27.2833   29.9014 N   0  0  0  0  0  0  0  0  0  0  0  0
  -11.0455  -27.0093   31.3284 C   0  0  0  0  0  0  0  0  0  0  0  0
  -11.1741  -25.5096   31.6278 C   0  0  0  0  0  0  0  0  0  0  0  0
  -12.3520  -23.1739   31.9431 H   0  0  0  0  0  0  0  0  0  0  0  0
  -13.2890  -21.9197   31.1556 H   0  0  0  0  0  0  0  0  0  0  0  0
  -11.5549  -21.7447   31.3386 H   0  0  0  0  0  0  0  0  0  0  0  0
  -13.1514  -22.9031   29.2320 H   0  0  0  0  0  0  0  0  0  0  0  0
  -11.8026  -21.9593   27.8483 H   0  0  0  0  0  0  0  0  0  0  0  0
  -11.1436  -21.2132   29.3104 H   0  0  0  0  0  0  0  0  0  0  0  0
  -10.3352  -22.5808   28.5451 H   0  0  0  0  0  0  0  0  0  0  0  0
  -13.0017  -23.6171   25.3419 H   0  0  0  0  0  0  0  0  0  0  0  0
  -15.5188  -26.8615   26.0598 H   0  0  0  0  0  0  0  0  0  0  0  0
  -13.8568  -26.7584   27.9478 H   0  0  0  0  0  0  0  0  0  0  0  0
  -10.5708  -23.6562   30.8099 H   0  0  0  0  0  0  0  0  0  0  0  0
   -8.9477  -25.2839   30.5271 H   0  0  0  0  0  0  0  0  0  0  0  0
   -9.3609  -24.5784   29.0128 H   0  0  0  0  0  0  0  0  0  0  0  0
  -10.2363  -26.6524   28.1512 H   0  0  0  0  0  0  0  0  0  0  0  0
   -9.1462  -27.2507   29.3181 H   0  0  0  0  0  0  0  0  0  0  0  0
  -11.9993  -26.8037   29.5778 H   0  0  0  0  0  0  0  0  0  0  0  0
  -10.0841  -27.3947   31.6680 H   0  0  0  0  0  0  0  0  0  0  0  0
  -11.8000  -27.5774   31.8749 H   0  0  0  0  0  0  0  0  0  0  0  0
  -12.0828  -25.2772   32.1636 H   0  0  0  0  0  0  0  0  0  0  0  0
  -10.3911  -25.2731   32.3653 H   0  0  0  0  0  0  0  0  0  0  0  0
  1  2  1  0
  2  3  1  0
  2  4  1  0
  4  5  1  0
  5  6  2  0
  5  7  1  0
  7  8  2  0
  8  9  1  0
  9 10  2  0
 10 11  1  0
  4 12  1  0
 12 13  1  0
 13 14  1  0
 14 15  1  0
 15 16  1  0
 16 17  1  0
 11  7  1  0
 17 12  1  0
  1 18  1  0
  1 19  1  0
  1 20  1  0
  2 21  1  0
  3 22  1  0
  3 23  1  0
  3 24  1  0
  8 25  1  0
 10 26  1  0
 11 27  1  0
 12 28  1  0
 13 29  1  0
 13 30  1  0
 14 31  1  0
 14 32  1  0
 15 33  1  0
 16 34  1  0
 16 35  1  0
 17 36  1  0
 17 37  1  0
M  END
>  <Energy>  (221) 
103.68358314026354

>  <compound_id>  (221) 
18248

>  <target_id>  (221) 
1

>  <reference_id>  (221) 
46

>  <inspiration_ids>  (221) 
[46, 64]

>  <energy_score>  (221) 
76.68574006851094

>  <distance_score>  (221) 
3.7742152834497533

>  <path>  (221) 
/opt/xchem-fragalysis-2/maxwin/BulkDock/SCRATCH/511013/C18248-P46/C18248-P46.minimised.mol

>  <scratch_subdir>  (221) 
/opt/xchem-fragalysis-2/maxwin/BulkDock/SCRATCH/511013/C18248-P46

>  <fragmenstein_runtime>  (221) 
4.9525840282440186

>  <fragmenstein_outcome>  (221) 
too moved

>  <fragmenstein_mode>  (221) 
expansion

>  <fragmenstein_error>  (221) 


$$$$
C18248-P64
     RDKit          3D

 37 38  0  0  0  0  0  0  0  0999 V2000
   -9.7295  -24.1646   32.1709 C   0  0  0  0  0  0  0  0  0  0  0  0
  -10.0782  -24.6957   30.7405 C   0  0  0  0  0  0  0  0  0  0  0  0
   -9.9338  -26.1791   31.0550 C   0  0  0  0  0  0  0  0  0  0  0  0
  -11.4578  -24.0839   30.2173 N   0  0  0  0  0  0  0  0  0  0  0  0
  -11.6920  -22.7734   30.8301 C   0  0  0  0  0  0  0  0  0  0  0  0
  -11.3875  -21.6704   30.4538 O   0  0  0  0  0  0  0  0  0  0  0  0
  -12.5174  -22.7508   32.0487 C   0  0  0  0  0  0  0  0  0  0  0  0
  -12.6081  -23.4184   33.2537 C   0  0  0  0  0  0  0  0  0  0  0  0
  -13.7695  -23.1090   33.9317 N   0  0  0  0  0  0  0  0  0  0  0  0
  -14.4072  -22.2658   33.1762 C   0  0  0  0  0  0  0  0  0  0  0  0
  -13.6935  -22.0190   32.0553 N   0  0  0  0  0  0  0  0  0  0  0  0
  -10.8357  -24.4670   28.7985 C   0  0  0  0  0  0  0  0  0  0  0  0
  -11.8770  -23.7044   27.8853 C   0  0  0  0  0  0  0  0  0  0  0  0
  -12.0061  -24.0648   26.4122 C   0  0  0  0  0  0  0  0  0  0  0  0
  -11.1047  -25.1150   25.9991 N   0  0  0  0  0  0  0  0  0  0  0  0
  -11.2686  -26.2374   26.8890 C   0  0  0  0  0  0  0  0  0  0  0  0
  -10.6989  -25.9169   28.2619 C   0  0  0  0  0  0  0  0  0  0  0  0
  -10.2132  -24.7307   32.9685 H   0  0  0  0  0  0  0  0  0  0  0  0
   -9.9322  -23.1150   32.3571 H   0  0  0  0  0  0  0  0  0  0  0  0
   -8.6617  -24.3126   32.3305 H   0  0  0  0  0  0  0  0  0  0  0  0
   -9.2095  -24.5157   30.1184 H   0  0  0  0  0  0  0  0  0  0  0  0
   -8.8949  -26.3394   31.3382 H   0  0  0  0  0  0  0  0  0  0  0  0
  -10.5051  -26.4435   31.9363 H   0  0  0  0  0  0  0  0  0  0  0  0
  -10.0577  -26.9129   30.2776 H   0  0  0  0  0  0  0  0  0  0  0  0
  -11.9648  -24.1696   33.6746 H   0  0  0  0  0  0  0  0  0  0  0  0
  -15.3769  -21.8372   33.3806 H   0  0  0  0  0  0  0  0  0  0  0  0
  -14.0621  -21.5586   31.2495 H   0  0  0  0  0  0  0  0  0  0  0  0
   -9.9325  -23.8928   28.5476 H   0  0  0  0  0  0  0  0  0  0  0  0
  -11.6667  -22.6291   27.9588 H   0  0  0  0  0  0  0  0  0  0  0  0
  -12.8702  -23.8375   28.3257 H   0  0  0  0  0  0  0  0  0  0  0  0
  -13.0411  -24.3668   26.2031 H   0  0  0  0  0  0  0  0  0  0  0  0
  -11.8417  -23.1867   25.7889 H   0  0  0  0  0  0  0  0  0  0  0  0
  -11.3363  -25.4009   25.0490 H   0  0  0  0  0  0  0  0  0  0  0  0
  -10.7406  -27.0979   26.4709 H   0  0  0  0  0  0  0  0  0  0  0  0
  -12.3223  -26.5354   26.9578 H   0  0  0  0  0  0  0  0  0  0  0  0
  -11.1631  -26.6495   28.9021 H   0  0  0  0  0  0  0  0  0  0  0  0
   -9.6267  -26.1513   28.2368 H   0  0  0  0  0  0  0  0  0  0  0  0
  1  2  1  0
  2  3  1  0
  2  4  1  0
  4  5  1  0
  5  6  2  0
  5  7  1  0
  7  8  2  0
  8  9  1  0
  9 10  2  0
 10 11  1  0
  4 12  1  0
 12 13  1  0
 13 14  1  0
 14 15  1  0
 15 16  1  0
 16 17  1  0
 11  7  1  0
 17 12  1  0
  1 18  1  0
  1 19  1  0
  1 20  1  0
  2 21  1  0
  3 22  1  0
  3 23  1  0
  3 24  1  0
  8 25  1  0
 10 26  1  0
 11 27  1  0
 12 28  1  0
 13 29  1  0
 13 30  1  0
 14 31  1  0
 14 32  1  0
 15 33  1  0
 16 34  1  0
 16 35  1  0
 17 36  1  0
 17 37  1  0
M  END
>  <Energy>  (222) 
107.26462955100902

>  <compound_id>  (222) 
18248

>  <target_id>  (222) 
1

>  <reference_id>  (222) 
64

>  <inspiration_ids>  (222) 
[46, 64]

>  <energy_score>  (222) 
80.26678647925618

>  <distance_score>  (222) 
3.3008396600321928

>  <path>  (222) 
/opt/xchem-fragalysis-2/maxwin/BulkDock/SCRATCH/511013/C18248-P64/C18248-P64.minimised.mol

>  <scratch_subdir>  (222) 
/opt/xchem-fragalysis-2/maxwin/BulkDock/SCRATCH/511013/C18248-P64

>  <fragmenstein_runtime>  (222) 
4.30301570892334

>  <fragmenstein_outcome>  (222) 
too moved

>  <fragmenstein_mode>  (222) 
expansion

>  <fragmenstein_error>  (222) 


$$$$
C18249-P46
     RDKit          3D

 46 47  0  0  0  0  0  0  0  0999 V2000
  -10.0750  -27.9826   31.3544 C   0  0  0  0  0  0  0  0  0  0  0  0
  -11.3391  -27.2536   31.4543 C   0  0  0  0  0  0  0  0  0  0  0  0
  -11.1241  -25.8121   31.8095 C   0  0  0  0  0  0  0  0  0  0  0  0
  -10.3075  -25.4652   33.0387 C   0  0  0  0  0  0  0  0  0  0  0  0
  -10.2019  -23.9963   33.0803 C   0  0  0  0  0  0  0  0  0  0  0  0
   -9.1148  -23.5179   32.9890 O   0  0  0  0  0  0  0  0  0  0  0  0
  -11.4749  -23.3915   33.1331 N   0  0  0  0  0  0  0  0  0  0  0  0
  -11.8663  -22.0399   32.9984 C   0  0  0  0  0  0  0  0  0  0  0  0
  -13.0745  -22.0376   32.1486 C   0  0  0  0  0  0  0  0  0  0  0  0
  -12.6854  -22.5112   30.6762 C   0  0  0  0  0  0  0  0  0  0  0  0
  -11.4500  -22.5450   29.8654 N   0  0  0  0  0  0  0  0  0  0  0  0
  -11.7634  -22.6382   28.4841 C   0  0  0  0  0  0  0  0  0  0  0  0
  -11.9335  -21.7827   27.6770 O   0  0  0  0  0  0  0  0  0  0  0  0
  -12.0424  -23.9434   27.8910 C   0  0  0  0  0  0  0  0  0  0  0  0
  -12.0489  -25.2839   28.1754 C   0  0  0  0  0  0  0  0  0  0  0  0
  -12.6304  -26.0453   27.1942 N   0  0  0  0  0  0  0  0  0  0  0  0
  -12.9508  -25.1926   26.2591 C   0  0  0  0  0  0  0  0  0  0  0  0
  -12.5626  -23.9398   26.5971 N   0  0  0  0  0  0  0  0  0  0  0  0
  -11.1438  -21.4096   30.6728 C   0  0  0  0  0  0  0  0  0  0  0  0
  -10.8839  -21.2841   32.1585 C   0  0  0  0  0  0  0  0  0  0  0  0
  -10.7663  -25.0409   30.6860 O   0  0  0  0  0  0  0  0  0  0  0  0
   -9.5256  -25.2531   30.0785 C   0  0  0  0  0  0  0  0  0  0  0  0
  -10.1729  -28.9381   31.8617 H   0  0  0  0  0  0  0  0  0  0  0  0
   -9.2440  -27.4606   31.7603 H   0  0  0  0  0  0  0  0  0  0  0  0
   -9.8176  -28.0239   30.3112 H   0  0  0  0  0  0  0  0  0  0  0  0
  -11.9662  -27.7501   32.1821 H   0  0  0  0  0  0  0  0  0  0  0  0
  -11.8312  -27.3757   30.4880 H   0  0  0  0  0  0  0  0  0  0  0  0
  -12.1102  -25.4658   32.0462 H   0  0  0  0  0  0  0  0  0  0  0  0
  -10.7049  -25.8546   33.9773 H   0  0  0  0  0  0  0  0  0  0  0  0
   -9.2659  -25.7379   32.8933 H   0  0  0  0  0  0  0  0  0  0  0  0
  -12.1749  -24.1088   33.2967 H   0  0  0  0  0  0  0  0  0  0  0  0
  -12.0606  -21.6134   33.9835 H   0  0  0  0  0  0  0  0  0  0  0  0
  -13.5481  -21.0715   32.1636 H   0  0  0  0  0  0  0  0  0  0  0  0
  -13.8439  -22.6384   32.6345 H   0  0  0  0  0  0  0  0  0  0  0  0
  -13.5253  -22.2942   30.0262 H   0  0  0  0  0  0  0  0  0  0  0  0
  -12.5674  -23.5730   30.8440 H   0  0  0  0  0  0  0  0  0  0  0  0
  -11.7321  -25.8034   29.0468 H   0  0  0  0  0  0  0  0  0  0  0  0
  -13.4597  -25.4242   25.3351 H   0  0  0  0  0  0  0  0  0  0  0  0
  -12.7231  -23.0791   26.0783 H   0  0  0  0  0  0  0  0  0  0  0  0
  -11.8742  -20.7076   30.3212 H   0  0  0  0  0  0  0  0  0  0  0  0
  -10.2948  -21.0017   30.1572 H   0  0  0  0  0  0  0  0  0  0  0  0
   -9.8615  -21.5342   32.3654 H   0  0  0  0  0  0  0  0  0  0  0  0
  -10.9535  -20.2367   32.4478 H   0  0  0  0  0  0  0  0  0  0  0  0
   -9.4162  -24.5042   29.3017 H   0  0  0  0  0  0  0  0  0  0  0  0
   -9.4828  -26.2021   29.5499 H   0  0  0  0  0  0  0  0  0  0  0  0
   -8.7334  -25.1271   30.8051 H   0  0  0  0  0  0  0  0  0  0  0  0
  1  2  1  0
  2  3  1  0
  3  4  1  0
  4  5  1  0
  5  6  2  0
  5  7  1  0
  7  8  1  0
  8  9  1  0
  9 10  1  0
 10 11  1  0
 11 12  1  0
 12 13  2  0
 12 14  1  0
 14 15  2  0
 15 16  1  0
 16 17  2  0
 17 18  1  0
 11 19  1  0
 19 20  1  0
  3 21  1  0
 21 22  1  0
 20  8  1  0
 18 14  1  0
  1 23  1  0
  1 24  1  0
  1 25  1  0
  2 26  1  0
  2 27  1  0
  3 28  1  0
  4 29  1  0
  4 30  1  0
  7 31  1  0
  8 32  1  0
  9 33  1  0
  9 34  1  0
 10 35  1  0
 10 36  1  0
 15 37  1  0
 17 38  1  0
 18 39  1  0
 19 40  1  0
 19 41  1  0
 20 42  1  0
 20 43  1  0
 22 44  1  0
 22 45  1  0
 22 46  1  0
M  END
>  <Energy>  (223) 
122.86210204582538

>  <compound_id>  (223) 
18249

>  <target_id>  (223) 
1

>  <reference_id>  (223) 
46

>  <inspiration_ids>  (223) 
[46, 64]

>  <energy_score>  (223) 
116.49875048635903

>  <distance_score>  (223) 
4.048994186913884

>  <path>  (223) 
/opt/xchem-fragalysis-2/maxwin/BulkDock/SCRATCH/511013/C18249-P46/C18249-P46.minimised.mol

>  <scratch_subdir>  (223) 
/opt/xchem-fragalysis-2/maxwin/BulkDock/SCRATCH/511013/C18249-P46

>  <fragmenstein_runtime>  (223) 
8.405643701553345

>  <fragmenstein_outcome>  (223) 
too moved

>  <fragmenstein_mode>  (223) 
expansion

>  <fragmenstein_error>  (223) 


$$$$
C18249-P64
     RDKit          3D

 46 47  0  0  0  0  0  0  0  0999 V2000
  -10.1502  -26.1570   28.4353 C   0  0  0  0  0  0  0  0  0  0  0  0
  -11.0984  -26.3128   27.2517 C   0  0  0  0  0  0  0  0  0  0  0  0
  -11.4316  -25.0284   26.4568 C   0  0  0  0  0  0  0  0  0  0  0  0
  -11.2606  -23.7455   27.2519 C   0  0  0  0  0  0  0  0  0  0  0  0
  -12.1409  -23.7499   28.4720 C   0  0  0  0  0  0  0  0  0  0  0  0
  -13.1848  -24.3166   28.4388 O   0  0  0  0  0  0  0  0  0  0  0  0
  -11.4845  -23.0836   29.5322 N   0  0  0  0  0  0  0  0  0  0  0  0
  -11.9101  -22.7990   30.8728 C   0  0  0  0  0  0  0  0  0  0  0  0
  -11.6797  -23.6278   32.1569 C   0  0  0  0  0  0  0  0  0  0  0  0
  -12.7830  -23.0569   33.2112 C   0  0  0  0  0  0  0  0  0  0  0  0
  -13.4728  -21.7209   32.6571 N   0  0  0  0  0  0  0  0  0  0  0  0
  -14.5610  -21.3483   33.4653 C   0  0  0  0  0  0  0  0  0  0  0  0
  -14.6083  -20.6318   34.4192 O   0  0  0  0  0  0  0  0  0  0  0  0
  -15.8008  -21.9896   33.1220 C   0  0  0  0  0  0  0  0  0  0  0  0
  -16.1445  -23.2898   32.8290 C   0  0  0  0  0  0  0  0  0  0  0  0
  -17.4818  -23.3681   32.5025 N   0  0  0  0  0  0  0  0  0  0  0  0
  -17.9886  -22.2021   32.8286 C   0  0  0  0  0  0  0  0  0  0  0  0
  -17.0107  -21.3411   33.2163 N   0  0  0  0  0  0  0  0  0  0  0  0
  -12.0734  -21.2653   32.6615 C   0  0  0  0  0  0  0  0  0  0  0  0
  -11.3812  -21.4862   31.3376 C   0  0  0  0  0  0  0  0  0  0  0  0
  -12.7165  -24.9657   25.8299 O   0  0  0  0  0  0  0  0  0  0  0  0
  -13.2909  -26.1883   25.4424 C   0  0  0  0  0  0  0  0  0  0  0  0
   -9.8882  -27.1287   28.8459 H   0  0  0  0  0  0  0  0  0  0  0  0
  -10.5947  -25.6066   29.2646 H   0  0  0  0  0  0  0  0  0  0  0  0
   -9.2292  -25.6565   28.1466 H   0  0  0  0  0  0  0  0  0  0  0  0
  -12.0014  -26.8138   27.5971 H   0  0  0  0  0  0  0  0  0  0  0  0
  -10.6514  -27.0162   26.5402 H   0  0  0  0  0  0  0  0  0  0  0  0
  -10.7309  -24.9634   25.6216 H   0  0  0  0  0  0  0  0  0  0  0  0
  -10.2104  -23.6390   27.5318 H   0  0  0  0  0  0  0  0  0  0  0  0
  -11.5711  -22.8836   26.6612 H   0  0  0  0  0  0  0  0  0  0  0  0
  -10.6577  -22.6483   29.1786 H   0  0  0  0  0  0  0  0  0  0  0  0
  -12.9780  -22.6686   30.6958 H   0  0  0  0  0  0  0  0  0  0  0  0
  -10.6718  -23.4489   32.5596 H   0  0  0  0  0  0  0  0  0  0  0  0
  -11.6726  -24.7003   32.0528 H   0  0  0  0  0  0  0  0  0  0  0  0
  -12.4340  -22.9892   34.2504 H   0  0  0  0  0  0  0  0  0  0  0  0
  -13.5743  -23.7992   33.3024 H   0  0  0  0  0  0  0  0  0  0  0  0
  -15.5272  -24.1745   32.7638 H   0  0  0  0  0  0  0  0  0  0  0  0
  -19.0350  -21.9282   32.7892 H   0  0  0  0  0  0  0  0  0  0  0  0
  -17.1342  -20.3909   33.5375 H   0  0  0  0  0  0  0  0  0  0  0  0
  -12.0003  -20.2289   32.9672 H   0  0  0  0  0  0  0  0  0  0  0  0
  -11.5456  -21.5891   33.5344 H   0  0  0  0  0  0  0  0  0  0  0  0
  -11.5699  -20.7994   30.5281 H   0  0  0  0  0  0  0  0  0  0  0  0
  -10.3140  -21.4483   31.5094 H   0  0  0  0  0  0  0  0  0  0  0  0
  -14.1288  -25.9757   24.7727 H   0  0  0  0  0  0  0  0  0  0  0  0
  -12.5583  -26.7945   24.9070 H   0  0  0  0  0  0  0  0  0  0  0  0
  -13.6943  -26.7194   26.3078 H   0  0  0  0  0  0  0  0  0  0  0  0
  1  2  1  0
  2  3  1  0
  3  4  1  0
  4  5  1  0
  5  6  2  0
  5  7  1  0
  7  8  1  0
  8  9  1  0
  9 10  1  0
 10 11  1  0
 11 12  1  0
 12 13  2  0
 12 14  1  0
 14 15  2  0
 15 16  1  0
 16 17  2  0
 17 18  1  0
 11 19  1  0
 19 20  1  0
  3 21  1  0
 21 22  1  0
 20  8  1  0
 18 14  1  0
  1 23  1  0
  1 24  1  0
  1 25  1  0
  2 26  1  0
  2 27  1  0
  3 28  1  0
  4 29  1  0
  4 30  1  0
  7 31  1  0
  8 32  1  0
  9 33  1  0
  9 34  1  0
 10 35  1  0
 10 36  1  0
 15 37  1  0
 17 38  1  0
 18 39  1  0
 19 40  1  0
 19 41  1  0
 20 42  1  0
 20 43  1  0
 22 44  1  0
 22 45  1  0
 22 46  1  0
M  END
>  <Energy>  (224) 
95.268783942989842

>  <compound_id>  (224) 
18249

>  <target_id>  (224) 
1

>  <reference_id>  (224) 
64

>  <inspiration_ids>  (224) 
[46, 64]

>  <energy_score>  (224) 
88.90543238352214

>  <distance_score>  (224) 
3.8717811582626664

>  <path>  (224) 
/opt/xchem-fragalysis-2/maxwin/BulkDock/SCRATCH/511013/C18249-P64/C18249-P64.minimised.mol

>  <scratch_subdir>  (224) 
/opt/xchem-fragalysis-2/maxwin/BulkDock/SCRATCH/511013/C18249-P64

>  <fragmenstein_runtime>  (224) 
6.80186128616333

>  <fragmenstein_outcome>  (224) 
too moved

>  <fragmenstein_mode>  (224) 
expansion

>  <fragmenstein_error>  (224) 


$$$$
C18250-P46
     RDKit          3D

 52 53  0  0  0  0  0  0  0  0999 V2000
  -13.7642  -26.3008   25.6096 C   0  0  0  0  0  0  0  0  0  0  0  0
  -12.8303  -25.4994   26.4899 C   0  0  0  0  0  0  0  0  0  0  0  0
  -12.8181  -25.5548   28.0669 C   0  0  0  0  0  0  0  0  0  0  0  0
  -11.4894  -26.1614   28.6013 C   0  0  0  0  0  0  0  0  0  0  0  0
  -13.6493  -26.7013   28.3928 O   0  0  0  0  0  0  0  0  0  0  0  0
  -15.0493  -26.7997   28.1846 C   0  0  0  0  0  0  0  0  0  0  0  0
  -13.1985  -23.9384   28.7733 C   0  0  0  0  0  0  0  0  0  0  0  0
  -13.7649  -23.2686   27.9725 O   0  0  0  0  0  0  0  0  0  0  0  0
  -12.8913  -23.6719   30.2004 N   0  0  0  0  0  0  0  0  0  0  0  0
  -13.3854  -22.2574   31.3223 C   0  0  0  0  0  0  0  0  0  0  0  0
  -14.8516  -21.5977   31.2693 C   0  0  0  0  0  0  0  0  0  0  0  0
  -12.6832  -22.2749   32.7285 C   0  0  0  0  0  0  0  0  0  0  0  0
  -11.7610  -23.4191   32.7860 C   0  0  0  0  0  0  0  0  0  0  0  0
  -10.7723  -23.1169   31.6999 C   0  0  0  0  0  0  0  0  0  0  0  0
  -10.4976  -21.7094   30.8846 N   0  0  0  0  0  0  0  0  0  0  0  0
  -11.3655  -21.5920   29.7760 C   0  0  0  0  0  0  0  0  0  0  0  0
  -12.4464  -21.0914   29.6846 O   0  0  0  0  0  0  0  0  0  0  0  0
  -10.9194  -22.2700   28.5942 C   0  0  0  0  0  0  0  0  0  0  0  0
  -10.2571  -23.4489   28.3673 C   0  0  0  0  0  0  0  0  0  0  0  0
  -10.5227  -23.9462   27.1250 N   0  0  0  0  0  0  0  0  0  0  0  0
  -11.3676  -23.1107   26.5994 C   0  0  0  0  0  0  0  0  0  0  0  0
  -11.5255  -22.0445   27.4032 N   0  0  0  0  0  0  0  0  0  0  0  0
  -10.5925  -21.1732   32.2174 C   0  0  0  0  0  0  0  0  0  0  0  0
  -11.8599  -21.1091   33.0219 C   0  0  0  0  0  0  0  0  0  0  0  0
  -13.9839  -27.2806   26.0142 H   0  0  0  0  0  0  0  0  0  0  0  0
  -13.3147  -26.4431   24.6249 H   0  0  0  0  0  0  0  0  0  0  0  0
  -14.7041  -25.7663   25.4318 H   0  0  0  0  0  0  0  0  0  0  0  0
  -13.1141  -24.5007   26.1821 H   0  0  0  0  0  0  0  0  0  0  0  0
  -11.8259  -25.7131   26.1119 H   0  0  0  0  0  0  0  0  0  0  0  0
  -11.1949  -25.7319   29.5592 H   0  0  0  0  0  0  0  0  0  0  0  0
  -11.5730  -27.2408   28.7901 H   0  0  0  0  0  0  0  0  0  0  0  0
  -10.6539  -26.0864   27.9075 H   0  0  0  0  0  0  0  0  0  0  0  0
  -15.4180  -26.4082   27.2460 H   0  0  0  0  0  0  0  0  0  0  0  0
  -15.6134  -26.3643   29.0114 H   0  0  0  0  0  0  0  0  0  0  0  0
  -15.2929  -27.8678   28.1939 H   0  0  0  0  0  0  0  0  0  0  0  0
  -12.4671  -24.5000   30.6108 H   0  0  0  0  0  0  0  0  0  0  0  0
  -13.9845  -22.7641   32.0488 H   0  0  0  0  0  0  0  0  0  0  0  0
  -15.0535  -20.8539   30.5320 H   0  0  0  0  0  0  0  0  0  0  0  0
  -15.6670  -22.3223   31.1928 H   0  0  0  0  0  0  0  0  0  0  0  0
  -15.0259  -21.0561   32.2144 H   0  0  0  0  0  0  0  0  0  0  0  0
  -13.3894  -22.3494   33.5845 H   0  0  0  0  0  0  0  0  0  0  0  0
  -12.2123  -24.4031   32.6696 H   0  0  0  0  0  0  0  0  0  0  0  0
  -11.2830  -23.4894   33.7586 H   0  0  0  0  0  0  0  0  0  0  0  0
  -10.7935  -23.8964   30.9406 H   0  0  0  0  0  0  0  0  0  0  0  0
   -9.8079  -23.4207   32.1491 H   0  0  0  0  0  0  0  0  0  0  0  0
   -9.7202  -24.0855   29.0528 H   0  0  0  0  0  0  0  0  0  0  0  0
  -11.8322  -23.1667   25.6224 H   0  0  0  0  0  0  0  0  0  0  0  0
  -12.1498  -21.2915   27.2138 H   0  0  0  0  0  0  0  0  0  0  0  0
   -9.7271  -21.6077   32.7104 H   0  0  0  0  0  0  0  0  0  0  0  0
  -10.2819  -20.1401   32.1503 H   0  0  0  0  0  0  0  0  0  0  0  0
  -12.3509  -20.1779   32.9574 H   0  0  0  0  0  0  0  0  0  0  0  0
  -11.7176  -21.1299   34.0978 H   0  0  0  0  0  0  0  0  0  0  0  0
  1  2  1  0
  2  3  1  0
  3  4  1  0
  3  5  1  0
  5  6  1  0
  3  7  1  0
  7  8  2  0
  7  9  1  0
  9 10  1  0
 10 11  1  0
 10 12  1  0
 12 13  1  0
 13 14  1  0
 14 15  1  0
 15 16  1  0
 16 17  2  0
 16 18  1  0
 18 19  2  0
 19 20  1  0
 20 21  2  0
 21 22  1  0
 15 23  1  0
 23 24  1  0
 24 12  1  0
 22 18  1  0
  1 25  1  0
  1 26  1  0
  1 27  1  0
  2 28  1  0
  2 29  1  0
  4 30  1  0
  4 31  1  0
  4 32  1  0
  6 33  1  0
  6 34  1  0
  6 35  1  0
  9 36  1  0
 10 37  1  0
 11 38  1  0
 11 39  1  0
 11 40  1  0
 12 41  1  0
 13 42  1  0
 13 43  1  0
 14 44  1  0
 14 45  1  0
 19 46  1  0
 21 47  1  0
 22 48  1  0
 23 49  1  0
 23 50  1  0
 24 51  1  0
 24 52  1  0
M  END
>  <Energy>  (225) 
353.6661221748443

>  <compound_id>  (225) 
18250

>  <target_id>  (225) 
1

>  <reference_id>  (225) 
46

>  <inspiration_ids>  (225) 
[46, 64]

>  <energy_score>  (225) 
283.8054926190681

>  <distance_score>  (225) 
3.430579173640165

>  <path>  (225) 
/opt/xchem-fragalysis-2/maxwin/BulkDock/SCRATCH/511013/C18250-P46/C18250-P46.minimised.mol

>  <scratch_subdir>  (225) 
/opt/xchem-fragalysis-2/maxwin/BulkDock/SCRATCH/511013/C18250-P46

>  <fragmenstein_runtime>  (225) 
14.687971830368042

>  <fragmenstein_outcome>  (225) 
too moved

>  <fragmenstein_mode>  (225) 
expansion

>  <fragmenstein_error>  (225) 


$$$$
C18250-P64
     RDKit          3D

 52 53  0  0  0  0  0  0  0  0999 V2000
   -9.6858  -25.0466   29.1825 C   0  0  0  0  0  0  0  0  0  0  0  0
  -10.5442  -24.9126   30.4463 C   0  0  0  0  0  0  0  0  0  0  0  0
  -10.0530  -25.3117   31.8197 C   0  0  0  0  0  0  0  0  0  0  0  0
   -9.2649  -24.1905   32.4456 C   0  0  0  0  0  0  0  0  0  0  0  0
   -9.0411  -26.1855   31.4220 O   0  0  0  0  0  0  0  0  0  0  0  0
   -9.3452  -27.5079   31.0771 C   0  0  0  0  0  0  0  0  0  0  0  0
  -11.1087  -25.3377   33.1414 C   0  0  0  0  0  0  0  0  0  0  0  0
  -10.8276  -26.0394   34.0714 O   0  0  0  0  0  0  0  0  0  0  0  0
  -12.1921  -24.3913   32.9695 N   0  0  0  0  0  0  0  0  0  0  0  0
  -13.2586  -23.9931   33.8658 C   0  0  0  0  0  0  0  0  0  0  0  0
  -14.3204  -25.0820   34.1695 C   0  0  0  0  0  0  0  0  0  0  0  0
  -14.0276  -22.6833   33.7373 C   0  0  0  0  0  0  0  0  0  0  0  0
  -14.8043  -22.5933   32.4985 C   0  0  0  0  0  0  0  0  0  0  0  0
  -13.8816  -21.9695   31.4599 C   0  0  0  0  0  0  0  0  0  0  0  0
  -12.3806  -22.2693   31.2011 N   0  0  0  0  0  0  0  0  0  0  0  0
  -11.9986  -21.7972   29.9207 C   0  0  0  0  0  0  0  0  0  0  0  0
  -11.5567  -20.7485   29.5915 O   0  0  0  0  0  0  0  0  0  0  0  0
  -12.0503  -22.7179   28.8014 C   0  0  0  0  0  0  0  0  0  0  0  0
  -11.5309  -22.5193   27.5440 C   0  0  0  0  0  0  0  0  0  0  0  0
  -11.6828  -23.5799   26.6962 N   0  0  0  0  0  0  0  0  0  0  0  0
  -12.3160  -24.4569   27.4159 C   0  0  0  0  0  0  0  0  0  0  0  0
  -12.5408  -23.9634   28.6661 N   0  0  0  0  0  0  0  0  0  0  0  0
  -12.2431  -21.6473   32.5291 C   0  0  0  0  0  0  0  0  0  0  0  0
  -13.1457  -21.4716   33.7036 C   0  0  0  0  0  0  0  0  0  0  0  0
   -9.9020  -25.9710   28.6371 H   0  0  0  0  0  0  0  0  0  0  0  0
   -8.6405  -25.0284   29.4143 H   0  0  0  0  0  0  0  0  0  0  0  0
   -9.8245  -24.2316   28.4793 H   0  0  0  0  0  0  0  0  0  0  0  0
  -11.3170  -25.6056   30.2237 H   0  0  0  0  0  0  0  0  0  0  0  0
  -10.9092  -23.9145   30.5262 H   0  0  0  0  0  0  0  0  0  0  0  0
   -9.1531  -24.3832   33.5074 H   0  0  0  0  0  0  0  0  0  0  0  0
   -8.2527  -24.1553   32.0860 H   0  0  0  0  0  0  0  0  0  0  0  0
   -9.7756  -23.2367   32.3811 H   0  0  0  0  0  0  0  0  0  0  0  0
   -9.8865  -27.5459   30.1361 H   0  0  0  0  0  0  0  0  0  0  0  0
   -9.8144  -28.0557   31.8838 H   0  0  0  0  0  0  0  0  0  0  0  0
   -8.4121  -28.0509   30.9652 H   0  0  0  0  0  0  0  0  0  0  0  0
  -12.1731  -24.0359   32.0213 H   0  0  0  0  0  0  0  0  0  0  0  0
  -12.5805  -23.6862   34.6414 H   0  0  0  0  0  0  0  0  0  0  0  0
  -15.0919  -24.7340   34.8623 H   0  0  0  0  0  0  0  0  0  0  0  0
  -14.8714  -25.4135   33.2874 H   0  0  0  0  0  0  0  0  0  0  0  0
  -13.8766  -25.9606   34.6286 H   0  0  0  0  0  0  0  0  0  0  0  0
  -14.7567  -22.6014   34.5455 H   0  0  0  0  0  0  0  0  0  0  0  0
  -15.3128  -23.5145   32.2237 H   0  0  0  0  0  0  0  0  0  0  0  0
  -15.6466  -21.8992   32.6505 H   0  0  0  0  0  0  0  0  0  0  0  0
  -14.2947  -22.3900   30.5737 H   0  0  0  0  0  0  0  0  0  0  0  0
  -14.2653  -20.9642   31.4208 H   0  0  0  0  0  0  0  0  0  0  0  0
  -11.0888  -21.6025   27.2174 H   0  0  0  0  0  0  0  0  0  0  0  0
  -12.5814  -25.4548   27.0936 H   0  0  0  0  0  0  0  0  0  0  0  0
  -12.7907  -24.4998   29.4663 H   0  0  0  0  0  0  0  0  0  0  0  0
  -11.7195  -20.7029   32.3643 H   0  0  0  0  0  0  0  0  0  0  0  0
  -11.4055  -22.2194   32.9168 H   0  0  0  0  0  0  0  0  0  0  0  0
  -12.4789  -21.3144   34.5488 H   0  0  0  0  0  0  0  0  0  0  0  0
  -13.7615  -20.5668   33.6605 H   0  0  0  0  0  0  0  0  0  0  0  0
  1  2  1  0
  2  3  1  0
  3  4  1  0
  3  5  1  0
  5  6  1  0
  3  7  1  0
  7  8  2  0
  7  9  1  0
  9 10  1  0
 10 11  1  0
 10 12  1  0
 12 13  1  0
 13 14  1  0
 14 15  1  0
 15 16  1  0
 16 17  2  0
 16 18  1  0
 18 19  2  0
 19 20  1  0
 20 21  2  0
 21 22  1  0
 15 23  1  0
 23 24  1  0
 24 12  1  0
 22 18  1  0
  1 25  1  0
  1 26  1  0
  1 27  1  0
  2 28  1  0
  2 29  1  0
  4 30  1  0
  4 31  1  0
  4 32  1  0
  6 33  1  0
  6 34  1  0
  6 35  1  0
  9 36  1  0
 10 37  1  0
 11 38  1  0
 11 39  1  0
 11 40  1  0
 12 41  1  0
 13 42  1  0
 13 43  1  0
 14 44  1  0
 14 45  1  0
 19 46  1  0
 21 47  1  0
 22 48  1  0
 23 49  1  0
 23 50  1  0
 24 51  1  0
 24 52  1  0
M  END
>  <Energy>  (226) 
204.24536577110689

>  <compound_id>  (226) 
18250

>  <target_id>  (226) 
1

>  <reference_id>  (226) 
64

>  <inspiration_ids>  (226) 
[46, 64]

>  <energy_score>  (226) 
134.38473621533623

>  <distance_score>  (226) 
3.2324493845110136

>  <path>  (226) 
/opt/xchem-fragalysis-2/maxwin/BulkDock/SCRATCH/511013/C18250-P64/C18250-P64.minimised.mol

>  <scratch_subdir>  (226) 
/opt/xchem-fragalysis-2/maxwin/BulkDock/SCRATCH/511013/C18250-P64

>  <fragmenstein_runtime>  (226) 
12.295997858047485

>  <fragmenstein_outcome>  (226) 
too moved

>  <fragmenstein_mode>  (226) 
expansion

>  <fragmenstein_error>  (226) 


$$$$
C18251-P46
     RDKit          3D

 53 54  0  0  0  0  0  0  0  0999 V2000
  -13.6566  -31.3216   29.5553 C   0  0  0  0  0  0  0  0  0  0  0  0
  -14.0379  -30.0469   28.7982 C   0  0  0  0  0  0  0  0  0  0  0  0
  -15.5231  -29.8479   29.2502 C   0  0  0  0  0  0  0  0  0  0  0  0
  -12.8764  -29.0800   29.1702 N   0  0  0  0  0  0  0  0  0  0  0  0
  -13.7977  -28.0831   28.5314 C   0  0  0  0  0  0  0  0  0  0  0  0
  -12.4248  -28.6000   30.4621 C   0  0  0  0  0  0  0  0  0  0  0  0
  -12.8931  -28.7600   31.5572 O   0  0  0  0  0  0  0  0  0  0  0  0
  -11.0845  -27.7190   30.5058 C   0  0  0  0  0  0  0  0  0  0  0  0
  -11.2954  -26.3350   30.9353 N   0  0  0  0  0  0  0  0  0  0  0  0
  -10.8577  -25.8704   32.2889 C   0  0  0  0  0  0  0  0  0  0  0  0
  -11.3572  -24.4037   32.4034 C   0  0  0  0  0  0  0  0  0  0  0  0
  -12.3559  -23.5547   33.2252 C   0  0  0  0  0  0  0  0  0  0  0  0
  -12.7573  -22.3096   32.2321 C   0  0  0  0  0  0  0  0  0  0  0  0
  -12.0383  -22.5326   30.8541 N   0  0  0  0  0  0  0  0  0  0  0  0
  -12.0935  -21.7984   29.6487 C   0  0  0  0  0  0  0  0  0  0  0  0
  -12.6367  -20.7635   29.3930 O   0  0  0  0  0  0  0  0  0  0  0  0
  -11.3214  -22.4206   28.4969 C   0  0  0  0  0  0  0  0  0  0  0  0
  -11.7215  -23.7484   28.0011 C   0  0  0  0  0  0  0  0  0  0  0  0
  -12.4101  -24.1011   26.8600 C   0  0  0  0  0  0  0  0  0  0  0  0
  -12.2533  -25.4254   26.5824 N   0  0  0  0  0  0  0  0  0  0  0  0
  -11.4411  -25.8619   27.5122 C   0  0  0  0  0  0  0  0  0  0  0  0
  -11.2150  -24.9230   28.4756 N   0  0  0  0  0  0  0  0  0  0  0  0
  -10.8622  -22.1230   31.6604 C   0  0  0  0  0  0  0  0  0  0  0  0
  -10.2252  -23.4408   32.1618 C   0  0  0  0  0  0  0  0  0  0  0  0
  -12.5828  -31.4595   29.5417 H   0  0  0  0  0  0  0  0  0  0  0  0
  -14.1394  -32.2037   29.1215 H   0  0  0  0  0  0  0  0  0  0  0  0
  -13.9372  -31.2702   30.6147 H   0  0  0  0  0  0  0  0  0  0  0  0
  -13.9783  -30.3079   27.7327 H   0  0  0  0  0  0  0  0  0  0  0  0
  -16.0713  -29.1552   28.6017 H   0  0  0  0  0  0  0  0  0  0  0  0
  -15.5827  -29.4885   30.2840 H   0  0  0  0  0  0  0  0  0  0  0  0
  -16.0765  -30.7933   29.1905 H   0  0  0  0  0  0  0  0  0  0  0  0
  -14.6532  -27.7670   29.1277 H   0  0  0  0  0  0  0  0  0  0  0  0
  -14.1154  -28.2812   27.4996 H   0  0  0  0  0  0  0  0  0  0  0  0
  -13.1920  -27.1935   28.4128 H   0  0  0  0  0  0  0  0  0  0  0  0
  -10.3766  -28.1978   31.1862 H   0  0  0  0  0  0  0  0  0  0  0  0
  -10.6676  -27.6599   29.5076 H   0  0  0  0  0  0  0  0  0  0  0  0
  -12.3092  -26.2298   30.9818 H   0  0  0  0  0  0  0  0  0  0  0  0
   -9.7651  -25.8863   32.2897 H   0  0  0  0  0  0  0  0  0  0  0  0
  -11.1893  -26.5106   33.0835 H   0  0  0  0  0  0  0  0  0  0  0  0
  -11.9324  -24.4334   31.4868 H   0  0  0  0  0  0  0  0  0  0  0  0
  -13.2320  -24.0820   33.5816 H   0  0  0  0  0  0  0  0  0  0  0  0
  -11.8958  -23.1404   34.1241 H   0  0  0  0  0  0  0  0  0  0  0  0
  -12.6792  -21.3142   32.6988 H   0  0  0  0  0  0  0  0  0  0  0  0
  -13.8283  -22.2948   32.0215 H   0  0  0  0  0  0  0  0  0  0  0  0
  -10.2565  -22.3849   28.6835 H   0  0  0  0  0  0  0  0  0  0  0  0
  -11.4584  -21.7527   27.6416 H   0  0  0  0  0  0  0  0  0  0  0  0
  -12.9286  -23.4570   26.1659 H   0  0  0  0  0  0  0  0  0  0  0  0
  -11.0146  -26.8537   27.5481 H   0  0  0  0  0  0  0  0  0  0  0  0
  -10.7050  -25.0792   29.3414 H   0  0  0  0  0  0  0  0  0  0  0  0
  -10.9259  -21.3774   32.4653 H   0  0  0  0  0  0  0  0  0  0  0  0
  -10.2609  -21.5104   31.0027 H   0  0  0  0  0  0  0  0  0  0  0  0
   -9.6032  -23.9525   31.4312 H   0  0  0  0  0  0  0  0  0  0  0  0
   -9.6041  -23.2797   33.0433 H   0  0  0  0  0  0  0  0  0  0  0  0
  1  2  1  0
  2  3  1  0
  2  4  1  0
  4  5  1  0
  4  6  1  0
  6  7  2  0
  6  8  1  0
  8  9  1  0
  9 10  1  0
 10 11  1  0
 11 12  1  0
 12 13  1  0
 13 14  1  0
 14 15  1  0
 15 16  2  0
 15 17  1  0
 17 18  1  0
 18 19  2  0
 19 20  1  0
 20 21  2  0
 21 22  1  0
 14 23  1  0
 23 24  1  0
 24 11  1  0
 22 18  1  0
  1 25  1  0
  1 26  1  0
  1 27  1  0
  2 28  1  0
  3 29  1  0
  3 30  1  0
  3 31  1  0
  5 32  1  0
  5 33  1  0
  5 34  1  0
  8 35  1  0
  8 36  1  0
  9 37  1  0
 10 38  1  0
 10 39  1  0
 11 40  1  0
 12 41  1  0
 12 42  1  0
 13 43  1  0
 13 44  1  0
 17 45  1  0
 17 46  1  0
 19 47  1  0
 21 48  1  0
 22 49  1  0
 23 50  1  0
 23 51  1  0
 24 52  1  0
 24 53  1  0
M  END
>  <Energy>  (227) 
282.46628508645847

>  <compound_id>  (227) 
18251

>  <target_id>  (227) 
1

>  <reference_id>  (227) 
46

>  <inspiration_ids>  (227) 
[46, 64]

>  <energy_score>  (227) 
168.19358868794728

>  <distance_score>  (227) 
3.9084752725977094

>  <path>  (227) 
/opt/xchem-fragalysis-2/maxwin/BulkDock/SCRATCH/511013/C18251-P46/C18251-P46.minimised.mol

>  <scratch_subdir>  (227) 
/opt/xchem-fragalysis-2/maxwin/BulkDock/SCRATCH/511013/C18251-P46

>  <fragmenstein_runtime>  (227) 
11.262866020202637

>  <fragmenstein_outcome>  (227) 
too moved

>  <fragmenstein_mode>  (227) 
expansion

>  <fragmenstein_error>  (227) 


$$$$
C18251-P64
     RDKit          3D

 53 54  0  0  0  0  0  0  0  0999 V2000
  -12.1363  -23.3094   24.8834 C   0  0  0  0  0  0  0  0  0  0  0  0
  -11.4971  -24.1188   26.0165 C   0  0  0  0  0  0  0  0  0  0  0  0
  -11.3736  -25.6382   25.6421 C   0  0  0  0  0  0  0  0  0  0  0  0
  -11.8272  -23.5916   27.4136 N   0  0  0  0  0  0  0  0  0  0  0  0
  -12.8667  -24.6011   27.3163 C   0  0  0  0  0  0  0  0  0  0  0  0
  -11.1194  -23.7236   28.6566 C   0  0  0  0  0  0  0  0  0  0  0  0
  -10.1308  -24.3595   28.9290 O   0  0  0  0  0  0  0  0  0  0  0  0
  -11.8526  -22.9817   29.8614 C   0  0  0  0  0  0  0  0  0  0  0  0
  -11.6757  -21.5584   30.3167 N   0  0  0  0  0  0  0  0  0  0  0  0
  -11.8396  -21.3412   31.8503 C   0  0  0  0  0  0  0  0  0  0  0  0
  -13.2943  -21.3497   32.6610 C   0  0  0  0  0  0  0  0  0  0  0  0
  -14.1105  -20.5006   33.7376 C   0  0  0  0  0  0  0  0  0  0  0  0
  -15.4308  -21.3444   34.0661 C   0  0  0  0  0  0  0  0  0  0  0  0
  -15.0163  -22.7912   33.9566 N   0  0  0  0  0  0  0  0  0  0  0  0
  -15.5998  -23.9585   34.4680 C   0  0  0  0  0  0  0  0  0  0  0  0
  -16.6376  -24.1219   35.0557 O   0  0  0  0  0  0  0  0  0  0  0  0
  -14.6042  -25.1244   34.1904 C   0  0  0  0  0  0  0  0  0  0  0  0
  -13.0867  -24.8053   33.9282 C   0  0  0  0  0  0  0  0  0  0  0  0
  -12.3468  -24.0655   33.0509 C   0  0  0  0  0  0  0  0  0  0  0  0
  -11.0157  -24.2815   33.0141 N   0  0  0  0  0  0  0  0  0  0  0  0
  -10.8700  -25.2314   33.8761 C   0  0  0  0  0  0  0  0  0  0  0  0
  -12.0473  -25.6031   34.4102 N   0  0  0  0  0  0  0  0  0  0  0  0
  -15.4333  -22.5866   32.5842 C   0  0  0  0  0  0  0  0  0  0  0  0
  -14.4450  -21.7810   31.7773 C   0  0  0  0  0  0  0  0  0  0  0  0
  -11.5238  -23.3884   23.9835 H   0  0  0  0  0  0  0  0  0  0  0  0
  -13.1663  -23.6066   24.6686 H   0  0  0  0  0  0  0  0  0  0  0  0
  -12.1531  -22.2444   25.0693 H   0  0  0  0  0  0  0  0  0  0  0  0
  -10.4383  -23.8873   26.0115 H   0  0  0  0  0  0  0  0  0  0  0  0
  -10.8315  -26.2012   26.4106 H   0  0  0  0  0  0  0  0  0  0  0  0
  -10.8200  -25.7330   24.7165 H   0  0  0  0  0  0  0  0  0  0  0  0
  -12.3387  -26.1235   25.4542 H   0  0  0  0  0  0  0  0  0  0  0  0
  -12.5029  -25.6067   27.5460 H   0  0  0  0  0  0  0  0  0  0  0  0
  -13.5804  -24.5685   26.4805 H   0  0  0  0  0  0  0  0  0  0  0  0
  -13.5046  -24.3460   28.1509 H   0  0  0  0  0  0  0  0  0  0  0  0
  -11.5959  -23.6395   30.6823 H   0  0  0  0  0  0  0  0  0  0  0  0
  -12.8969  -23.0591   29.6129 H   0  0  0  0  0  0  0  0  0  0  0  0
  -10.7208  -21.2957   30.0861 H   0  0  0  0  0  0  0  0  0  0  0  0
  -11.2982  -20.4497   32.1554 H   0  0  0  0  0  0  0  0  0  0  0  0
  -11.1754  -22.0830   32.2854 H   0  0  0  0  0  0  0  0  0  0  0  0
  -12.9729  -22.0423   33.4280 H   0  0  0  0  0  0  0  0  0  0  0  0
  -13.4817  -20.3007   34.6068 H   0  0  0  0  0  0  0  0  0  0  0  0
  -14.5166  -19.5406   33.4249 H   0  0  0  0  0  0  0  0  0  0  0  0
  -15.8083  -21.2029   35.0722 H   0  0  0  0  0  0  0  0  0  0  0  0
  -16.3093  -20.9260   33.5360 H   0  0  0  0  0  0  0  0  0  0  0  0
  -14.6750  -25.8097   35.0446 H   0  0  0  0  0  0  0  0  0  0  0  0
  -15.0123  -25.6709   33.3337 H   0  0  0  0  0  0  0  0  0  0  0  0
  -12.7711  -23.4703   32.2961 H   0  0  0  0  0  0  0  0  0  0  0  0
   -9.9202  -25.6085   34.1652 H   0  0  0  0  0  0  0  0  0  0  0  0
  -12.2141  -26.2998   35.1048 H   0  0  0  0  0  0  0  0  0  0  0  0
  -16.5023  -22.3352   32.4733 H   0  0  0  0  0  0  0  0  0  0  0  0
  -15.4692  -23.5877   32.1509 H   0  0  0  0  0  0  0  0  0  0  0  0
  -14.9814  -20.9159   31.3727 H   0  0  0  0  0  0  0  0  0  0  0  0
  -14.1149  -22.3480   30.9354 H   0  0  0  0  0  0  0  0  0  0  0  0
  1  2  1  0
  2  3  1  0
  2  4  1  0
  4  5  1  0
  4  6  1  0
  6  7  2  0
  6  8  1  0
  8  9  1  0
  9 10  1  0
 10 11  1  0
 11 12  1  0
 12 13  1  0
 13 14  1  0
 14 15  1  0
 15 16  2  0
 15 17  1  0
 17 18  1  0
 18 19  2  0
 19 20  1  0
 20 21  2  0
 21 22  1  0
 14 23  1  0
 23 24  1  0
 24 11  1  0
 22 18  1  0
  1 25  1  0
  1 26  1  0
  1 27  1  0
  2 28  1  0
  3 29  1  0
  3 30  1  0
  3 31  1  0
  5 32  1  0
  5 33  1  0
  5 34  1  0
  8 35  1  0
  8 36  1  0
  9 37  1  0
 10 38  1  0
 10 39  1  0
 11 40  1  0
 12 41  1  0
 12 42  1  0
 13 43  1  0
 13 44  1  0
 17 45  1  0
 17 46  1  0
 19 47  1  0
 21 48  1  0
 22 49  1  0
 23 50  1  0
 23 51  1  0
 24 52  1  0
 24 53  1  0
M  END
>  <Energy>  (228) 
333.17724053256052

>  <compound_id>  (228) 
18251

>  <target_id>  (228) 
1

>  <reference_id>  (228) 
64

>  <inspiration_ids>  (228) 
[46, 64]

>  <energy_score>  (228) 
218.904544134054

>  <distance_score>  (228) 
4.023000343061243

>  <path>  (228) 
/opt/xchem-fragalysis-2/maxwin/BulkDock/SCRATCH/511013/C18251-P64/C18251-P64.minimised.mol

>  <scratch_subdir>  (228) 
/opt/xchem-fragalysis-2/maxwin/BulkDock/SCRATCH/511013/C18251-P64

>  <fragmenstein_runtime>  (228) 
15.636575698852539

>  <fragmenstein_outcome>  (228) 
too moved

>  <fragmenstein_mode>  (228) 
expansion

>  <fragmenstein_error>  (228) 


$$$$
C18252-P46
     RDKit          3D

 52 53  0  0  0  0  0  0  0  0999 V2000
  -10.4757  -26.9414   30.0443 C   0  0  0  0  0  0  0  0  0  0  0  0
   -9.8115  -26.1520   28.9158 C   0  0  0  0  0  0  0  0  0  0  0  0
  -10.7243  -25.7766   27.7161 C   0  0  0  0  0  0  0  0  0  0  0  0
  -10.7177  -24.3068   26.9442 C   0  0  0  0  0  0  0  0  0  0  0  0
  -11.6306  -24.5324   25.8966 O   0  0  0  0  0  0  0  0  0  0  0  0
  -11.9091  -23.4601   25.0207 C   0  0  0  0  0  0  0  0  0  0  0  0
  -10.2095  -23.1522   28.0161 C   0  0  0  0  0  0  0  0  0  0  0  0
   -9.0473  -23.2158   28.2302 O   0  0  0  0  0  0  0  0  0  0  0  0
  -11.1779  -22.3599   28.5758 N   0  0  0  0  0  0  0  0  0  0  0  0
  -11.1203  -21.4278   29.6635 C   0  0  0  0  0  0  0  0  0  0  0  0
  -11.2445  -22.1001   31.1168 C   0  0  0  0  0  0  0  0  0  0  0  0
  -12.6484  -22.0708   31.5866 C   0  0  0  0  0  0  0  0  0  0  0  0
  -13.3467  -22.4161   30.2939 C   0  0  0  0  0  0  0  0  0  0  0  0
  -13.4958  -23.8590   29.3908 N   0  0  0  0  0  0  0  0  0  0  0  0
  -13.4438  -24.0892   27.9957 C   0  0  0  0  0  0  0  0  0  0  0  0
  -13.1877  -23.3262   27.1254 O   0  0  0  0  0  0  0  0  0  0  0  0
  -13.8852  -25.5161   27.3618 C   0  0  0  0  0  0  0  0  0  0  0  0
  -14.4045  -26.7282   28.0307 C   0  0  0  0  0  0  0  0  0  0  0  0
  -13.8184  -27.9376   28.3377 C   0  0  0  0  0  0  0  0  0  0  0  0
  -14.7082  -28.7770   28.9534 N   0  0  0  0  0  0  0  0  0  0  0  0
  -15.8513  -28.1281   28.9474 C   0  0  0  0  0  0  0  0  0  0  0  0
  -15.7208  -26.8984   28.3773 N   0  0  0  0  0  0  0  0  0  0  0  0
  -12.0892  -24.1493   30.0441 C   0  0  0  0  0  0  0  0  0  0  0  0
  -11.1785  -23.6015   31.1463 C   0  0  0  0  0  0  0  0  0  0  0  0
   -9.7856  -27.6707   30.4643 H   0  0  0  0  0  0  0  0  0  0  0  0
  -11.3699  -27.4718   29.7240 H   0  0  0  0  0  0  0  0  0  0  0  0
  -10.7166  -26.3140   30.9013 H   0  0  0  0  0  0  0  0  0  0  0  0
   -9.3280  -25.2905   29.3738 H   0  0  0  0  0  0  0  0  0  0  0  0
   -9.0197  -26.7982   28.5377 H   0  0  0  0  0  0  0  0  0  0  0  0
  -10.6551  -26.5702   26.9605 H   0  0  0  0  0  0  0  0  0  0  0  0
  -11.7186  -25.9454   28.0979 H   0  0  0  0  0  0  0  0  0  0  0  0
   -9.8618  -24.1894   26.3175 H   0  0  0  0  0  0  0  0  0  0  0  0
  -12.9145  -23.5877   24.6108 H   0  0  0  0  0  0  0  0  0  0  0  0
  -11.9353  -22.5153   25.5435 H   0  0  0  0  0  0  0  0  0  0  0  0
  -11.1799  -23.4383   24.2107 H   0  0  0  0  0  0  0  0  0  0  0  0
  -12.0544  -22.5180   28.0831 H   0  0  0  0  0  0  0  0  0  0  0  0
  -11.8463  -20.6636   29.4583 H   0  0  0  0  0  0  0  0  0  0  0  0
  -10.1756  -20.9626   29.6112 H   0  0  0  0  0  0  0  0  0  0  0  0
  -10.5920  -21.6153   31.8469 H   0  0  0  0  0  0  0  0  0  0  0  0
  -12.8963  -22.7241   32.4319 H   0  0  0  0  0  0  0  0  0  0  0  0
  -12.8940  -21.1054   31.9978 H   0  0  0  0  0  0  0  0  0  0  0  0
  -14.4000  -22.1768   30.5459 H   0  0  0  0  0  0  0  0  0  0  0  0
  -13.1892  -21.7044   29.5192 H   0  0  0  0  0  0  0  0  0  0  0  0
  -13.0793  -25.8921   26.7342 H   0  0  0  0  0  0  0  0  0  0  0  0
  -14.6094  -25.2551   26.5733 H   0  0  0  0  0  0  0  0  0  0  0  0
  -12.7858  -28.2223   28.1954 H   0  0  0  0  0  0  0  0  0  0  0  0
  -16.7911  -28.4885   29.3427 H   0  0  0  0  0  0  0  0  0  0  0  0
  -16.4346  -26.1858   28.2718 H   0  0  0  0  0  0  0  0  0  0  0  0
  -12.2173  -25.1500   30.4138 H   0  0  0  0  0  0  0  0  0  0  0  0
  -11.4573  -24.3998   29.2419 H   0  0  0  0  0  0  0  0  0  0  0  0
  -11.4633  -24.0227   32.1238 H   0  0  0  0  0  0  0  0  0  0  0  0
  -10.1787  -24.0195   31.0349 H   0  0  0  0  0  0  0  0  0  0  0  0
  1  2  1  0
  2  3  1  0
  3  4  1  0
  4  5  1  0
  5  6  1  0
  4  7  1  0
  7  8  2  0
  7  9  1  0
  9 10  1  0
 10 11  1  0
 11 12  1  0
 12 13  1  0
 13 14  1  0
 14 15  1  0
 15 16  2  0
 15 17  1  0
 17 18  1  0
 18 19  2  0
 19 20  1  0
 20 21  2  0
 21 22  1  0
 14 23  1  0
 23 24  1  0
 24 11  1  0
 22 18  1  0
  1 25  1  0
  1 26  1  0
  1 27  1  0
  2 28  1  0
  2 29  1  0
  3 30  1  0
  3 31  1  0
  4 32  1  0
  6 33  1  0
  6 34  1  0
  6 35  1  0
  9 36  1  0
 10 37  1  0
 10 38  1  0
 11 39  1  0
 12 40  1  0
 12 41  1  0
 13 42  1  0
 13 43  1  0
 17 44  1  0
 17 45  1  0
 19 46  1  0
 21 47  1  0
 22 48  1  0
 23 49  1  0
 23 50  1  0
 24 51  1  0
 24 52  1  0
M  END
>  <Energy>  (229) 
313.41701479943663

>  <compound_id>  (229) 
18252

>  <target_id>  (229) 
1

>  <reference_id>  (229) 
46

>  <inspiration_ids>  (229) 
[46, 64]

>  <energy_score>  (229) 
229.06510363192353

>  <distance_score>  (229) 
3.9559947668315787

>  <path>  (229) 
/opt/xchem-fragalysis-2/maxwin/BulkDock/SCRATCH/511013/C18252-P46/C18252-P46.minimised.mol

>  <scratch_subdir>  (229) 
/opt/xchem-fragalysis-2/maxwin/BulkDock/SCRATCH/511013/C18252-P46

>  <fragmenstein_runtime>  (229) 
8.976529121398926

>  <fragmenstein_outcome>  (229) 
too moved

>  <fragmenstein_mode>  (229) 
expansion

>  <fragmenstein_error>  (229) 


$$$$
C18252-P64
     RDKit          3D

 52 53  0  0  0  0  0  0  0  0999 V2000
  -10.2621  -25.2837   29.6564 C   0  0  0  0  0  0  0  0  0  0  0  0
  -10.0987  -25.0402   31.1440 C   0  0  0  0  0  0  0  0  0  0  0  0
  -10.8924  -23.9489   31.8866 C   0  0  0  0  0  0  0  0  0  0  0  0
  -11.5066  -22.7171   31.2047 C   0  0  0  0  0  0  0  0  0  0  0  0
  -12.2382  -23.0331   30.0205 O   0  0  0  0  0  0  0  0  0  0  0  0
  -11.7231  -22.4434   28.8399 C   0  0  0  0  0  0  0  0  0  0  0  0
  -12.3569  -21.9071   32.2408 C   0  0  0  0  0  0  0  0  0  0  0  0
  -11.8420  -20.9730   32.7768 O   0  0  0  0  0  0  0  0  0  0  0  0
  -13.6824  -22.3902   32.3023 N   0  0  0  0  0  0  0  0  0  0  0  0
  -14.8464  -21.8635   32.9467 C   0  0  0  0  0  0  0  0  0  0  0  0
  -15.4844  -22.8306   33.9306 C   0  0  0  0  0  0  0  0  0  0  0  0
  -16.8547  -22.3447   34.3743 C   0  0  0  0  0  0  0  0  0  0  0  0
  -17.7173  -23.4907   34.9292 C   0  0  0  0  0  0  0  0  0  0  0  0
  -18.0863  -24.5826   33.9588 N   0  0  0  0  0  0  0  0  0  0  0  0
  -18.3117  -24.5396   32.5412 C   0  0  0  0  0  0  0  0  0  0  0  0
  -18.1747  -23.6367   31.7535 O   0  0  0  0  0  0  0  0  0  0  0  0
  -18.7794  -25.9199   32.0709 C   0  0  0  0  0  0  0  0  0  0  0  0
  -18.0465  -26.3730   30.8519 C   0  0  0  0  0  0  0  0  0  0  0  0
  -18.4864  -26.5831   29.5613 C   0  0  0  0  0  0  0  0  0  0  0  0
  -17.5119  -27.1512   28.7891 N   0  0  0  0  0  0  0  0  0  0  0  0
  -16.4663  -27.2350   29.5745 C   0  0  0  0  0  0  0  0  0  0  0  0
  -16.7178  -26.7221   30.8156 N   0  0  0  0  0  0  0  0  0  0  0  0
  -16.6589  -25.0226   34.2492 C   0  0  0  0  0  0  0  0  0  0  0  0
  -15.5753  -24.2683   33.4778 C   0  0  0  0  0  0  0  0  0  0  0  0
  -11.2695  -25.1144   29.2936 H   0  0  0  0  0  0  0  0  0  0  0  0
  -10.0101  -26.3233   29.4211 H   0  0  0  0  0  0  0  0  0  0  0  0
   -9.5841  -24.6634   29.0679 H   0  0  0  0  0  0  0  0  0  0  0  0
  -10.3087  -25.9830   31.6584 H   0  0  0  0  0  0  0  0  0  0  0  0
   -9.0343  -24.8833   31.3440 H   0  0  0  0  0  0  0  0  0  0  0  0
  -11.6701  -24.4436   32.4748 H   0  0  0  0  0  0  0  0  0  0  0  0
  -10.2213  -23.5711   32.6676 H   0  0  0  0  0  0  0  0  0  0  0  0
  -10.7398  -21.9842   30.9570 H   0  0  0  0  0  0  0  0  0  0  0  0
  -12.3356  -22.7855   28.0066 H   0  0  0  0  0  0  0  0  0  0  0  0
  -11.7701  -21.3608   28.9291 H   0  0  0  0  0  0  0  0  0  0  0  0
  -10.7063  -22.7569   28.6176 H   0  0  0  0  0  0  0  0  0  0  0  0
  -13.7409  -23.2653   31.7758 H   0  0  0  0  0  0  0  0  0  0  0  0
  -14.5722  -20.9340   33.4581 H   0  0  0  0  0  0  0  0  0  0  0  0
  -15.5442  -21.5933   32.1510 H   0  0  0  0  0  0  0  0  0  0  0  0
  -14.8252  -22.8666   34.7806 H   0  0  0  0  0  0  0  0  0  0  0  0
  -16.7522  -21.5599   35.1325 H   0  0  0  0  0  0  0  0  0  0  0  0
  -17.3859  -21.8836   33.5324 H   0  0  0  0  0  0  0  0  0  0  0  0
  -17.4653  -23.8125   35.9527 H   0  0  0  0  0  0  0  0  0  0  0  0
  -18.6979  -23.0169   35.0952 H   0  0  0  0  0  0  0  0  0  0  0  0
  -19.8527  -25.8401   31.8600 H   0  0  0  0  0  0  0  0  0  0  0  0
  -18.6678  -26.6702   32.8617 H   0  0  0  0  0  0  0  0  0  0  0  0
  -19.4758  -26.3987   29.1629 H   0  0  0  0  0  0  0  0  0  0  0  0
  -15.5036  -27.6342   29.2984 H   0  0  0  0  0  0  0  0  0  0  0  0
  -16.0252  -26.6163   31.5452 H   0  0  0  0  0  0  0  0  0  0  0  0
  -16.6244  -26.0425   33.8354 H   0  0  0  0  0  0  0  0  0  0  0  0
  -16.4115  -25.2273   35.3045 H   0  0  0  0  0  0  0  0  0  0  0  0
  -15.8023  -24.3104   32.4129 H   0  0  0  0  0  0  0  0  0  0  0  0
  -14.6165  -24.7726   33.6380 H   0  0  0  0  0  0  0  0  0  0  0  0
  1  2  1  0
  2  3  1  0
  3  4  1  0
  4  5  1  0
  5  6  1  0
  4  7  1  0
  7  8  2  0
  7  9  1  0
  9 10  1  0
 10 11  1  0
 11 12  1  0
 12 13  1  0
 13 14  1  0
 14 15  1  0
 15 16  2  0
 15 17  1  0
 17 18  1  0
 18 19  2  0
 19 20  1  0
 20 21  2  0
 21 22  1  0
 14 23  1  0
 23 24  1  0
 24 11  1  0
 22 18  1  0
  1 25  1  0
  1 26  1  0
  1 27  1  0
  2 28  1  0
  2 29  1  0
  3 30  1  0
  3 31  1  0
  4 32  1  0
  6 33  1  0
  6 34  1  0
  6 35  1  0
  9 36  1  0
 10 37  1  0
 10 38  1  0
 11 39  1  0
 12 40  1  0
 12 41  1  0
 13 42  1  0
 13 43  1  0
 17 44  1  0
 17 45  1  0
 19 46  1  0
 21 47  1  0
 22 48  1  0
 23 49  1  0
 23 50  1  0
 24 51  1  0
 24 52  1  0
M  END
>  <Energy>  (230) 
129.94235544064585

>  <compound_id>  (230) 
18252

>  <target_id>  (230) 
1

>  <reference_id>  (230) 
64

>  <inspiration_ids>  (230) 
[46, 64]

>  <energy_score>  (230) 
45.590444273131055

>  <distance_score>  (230) 
5.560280174220185

>  <path>  (230) 
/opt/xchem-fragalysis-2/maxwin/BulkDock/SCRATCH/511013/C18252-P64/C18252-P64.minimised.mol

>  <scratch_subdir>  (230) 
/opt/xchem-fragalysis-2/maxwin/BulkDock/SCRATCH/511013/C18252-P64

>  <fragmenstein_runtime>  (230) 
15.523545503616333

>  <fragmenstein_outcome>  (230) 
too moved

>  <fragmenstein_mode>  (230) 
expansion

>  <fragmenstein_error>  (230) 


$$$$
C18254-P46
     RDKit          3D

 53 54  0  0  0  0  0  0  0  0999 V2000
  -13.6977  -24.0394   25.2855 C   0  0  0  0  0  0  0  0  0  0  0  0
  -12.2578  -23.5942   25.5297 C   0  0  0  0  0  0  0  0  0  0  0  0
  -11.5256  -24.3590   26.6312 C   0  0  0  0  0  0  0  0  0  0  0  0
  -11.1528  -23.6365   27.9705 C   0  0  0  0  0  0  0  0  0  0  0  0
  -10.1598  -24.0385   28.5061 O   0  0  0  0  0  0  0  0  0  0  0  0
  -12.0078  -22.5534   28.2995 N   0  0  0  0  0  0  0  0  0  0  0  0
  -11.9016  -21.5378   29.3236 C   0  0  0  0  0  0  0  0  0  0  0  0
  -12.5848  -21.8672   30.6248 C   0  0  0  0  0  0  0  0  0  0  0  0
  -11.7869  -21.6204   31.9571 C   0  0  0  0  0  0  0  0  0  0  0  0
  -12.6852  -21.7261   33.2301 C   0  0  0  0  0  0  0  0  0  0  0  0
  -12.5741  -23.1337   33.9201 C   0  0  0  0  0  0  0  0  0  0  0  0
  -11.5510  -24.2492   33.3723 C   0  0  0  0  0  0  0  0  0  0  0  0
  -10.7042  -24.1554   31.9457 N   0  0  0  0  0  0  0  0  0  0  0  0
  -11.3070  -24.9602   30.9701 C   0  0  0  0  0  0  0  0  0  0  0  0
  -12.1453  -24.7056   30.1596 O   0  0  0  0  0  0  0  0  0  0  0  0
  -10.8710  -26.2549   31.0904 C   0  0  0  0  0  0  0  0  0  0  0  0
   -9.9233  -26.8677   30.3776 C   0  0  0  0  0  0  0  0  0  0  0  0
   -9.7241  -28.0681   30.9404 N   0  0  0  0  0  0  0  0  0  0  0  0
  -10.7394  -28.3013   31.7266 C   0  0  0  0  0  0  0  0  0  0  0  0
  -11.4943  -27.2101   31.7974 N   0  0  0  0  0  0  0  0  0  0  0  0
  -10.8260  -22.7667   32.2022 C   0  0  0  0  0  0  0  0  0  0  0  0
  -12.0549  -25.7378   26.7200 N   0  0  0  0  0  0  0  0  0  0  0  0
  -11.8156  -26.4307   25.4644 C   0  0  0  0  0  0  0  0  0  0  0  0
  -11.5311  -26.5769   27.7679 C   0  0  0  0  0  0  0  0  0  0  0  0
  -13.7959  -24.9453   24.6883 H   0  0  0  0  0  0  0  0  0  0  0  0
  -14.2506  -23.2753   24.7318 H   0  0  0  0  0  0  0  0  0  0  0  0
  -14.1890  -24.2902   26.2246 H   0  0  0  0  0  0  0  0  0  0  0  0
  -11.7021  -23.6766   24.5913 H   0  0  0  0  0  0  0  0  0  0  0  0
  -12.1731  -22.5417   25.7346 H   0  0  0  0  0  0  0  0  0  0  0  0
  -10.5211  -24.3993   26.2201 H   0  0  0  0  0  0  0  0  0  0  0  0
  -12.7995  -22.5588   27.6714 H   0  0  0  0  0  0  0  0  0  0  0  0
  -10.8393  -21.3638   29.4904 H   0  0  0  0  0  0  0  0  0  0  0  0
  -12.3683  -20.6470   28.9380 H   0  0  0  0  0  0  0  0  0  0  0  0
  -12.7686  -22.8976   30.5165 H   0  0  0  0  0  0  0  0  0  0  0  0
  -13.6323  -21.5845   30.6960 H   0  0  0  0  0  0  0  0  0  0  0  0
  -11.2367  -20.6840   31.9444 H   0  0  0  0  0  0  0  0  0  0  0  0
  -13.7334  -21.5060   32.9993 H   0  0  0  0  0  0  0  0  0  0  0  0
  -12.3719  -20.9621   33.9510 H   0  0  0  0  0  0  0  0  0  0  0  0
  -13.5765  -23.5693   33.9701 H   0  0  0  0  0  0  0  0  0  0  0  0
  -12.2851  -22.9762   34.9571 H   0  0  0  0  0  0  0  0  0  0  0  0
  -12.1562  -25.1435   33.2699 H   0  0  0  0  0  0  0  0  0  0  0  0
  -10.8100  -24.5434   34.1215 H   0  0  0  0  0  0  0  0  0  0  0  0
   -9.3311  -26.4559   29.5731 H   0  0  0  0  0  0  0  0  0  0  0  0
  -10.9243  -29.2363   32.2247 H   0  0  0  0  0  0  0  0  0  0  0  0
  -12.3973  -27.0853   32.2039 H   0  0  0  0  0  0  0  0  0  0  0  0
  -11.8106  -23.1213   31.9882 H   0  0  0  0  0  0  0  0  0  0  0  0
  -10.2715  -22.5567   33.1028 H   0  0  0  0  0  0  0  0  0  0  0  0
  -11.4361  -25.7719   24.6980 H   0  0  0  0  0  0  0  0  0  0  0  0
  -12.7608  -26.8122   25.0812 H   0  0  0  0  0  0  0  0  0  0  0  0
  -11.0482  -27.2066   25.5308 H   0  0  0  0  0  0  0  0  0  0  0  0
  -11.9037  -27.6029   27.6893 H   0  0  0  0  0  0  0  0  0  0  0  0
  -11.9189  -26.2503   28.7104 H   0  0  0  0  0  0  0  0  0  0  0  0
  -10.4431  -26.6139   27.7575 H   0  0  0  0  0  0  0  0  0  0  0  0
  1  2  1  0
  2  3  1  0
  3  4  1  0
  4  5  2  0
  4  6  1  0
  6  7  1  0
  7  8  1  0
  8  9  1  0
  9 10  1  0
 10 11  1  0
 11 12  1  0
 12 13  1  0
 13 14  1  0
 14 15  2  0
 14 16  1  0
 16 17  2  0
 17 18  1  0
 18 19  2  0
 19 20  1  0
 13 21  1  0
  3 22  1  0
 22 23  1  0
 22 24  1  0
 21  9  1  0
 20 16  1  0
  1 25  1  0
  1 26  1  0
  1 27  1  0
  2 28  1  0
  2 29  1  0
  3 30  1  0
  6 31  1  0
  7 32  1  0
  7 33  1  0
  8 34  1  0
  8 35  1  0
  9 36  1  0
 10 37  1  0
 10 38  1  0
 11 39  1  0
 11 40  1  0
 12 41  1  0
 12 42  1  0
 17 43  1  0
 19 44  1  0
 20 45  1  0
 21 46  1  0
 21 47  1  0
 23 48  1  0
 23 49  1  0
 23 50  1  0
 24 51  1  0
 24 52  1  0
 24 53  1  0
M  END
>  <Energy>  (231) 
294.7773212317453

>  <compound_id>  (231) 
18254

>  <target_id>  (231) 
1

>  <reference_id>  (231) 
46

>  <inspiration_ids>  (231) 
[46, 64]

>  <energy_score>  (231) 
218.00627896088795

>  <distance_score>  (231) 
3.3558871328786974

>  <path>  (231) 
/opt/xchem-fragalysis-2/maxwin/BulkDock/SCRATCH/511013/C18254-P46/C18254-P46.minimised.mol

>  <scratch_subdir>  (231) 
/opt/xchem-fragalysis-2/maxwin/BulkDock/SCRATCH/511013/C18254-P46

>  <fragmenstein_runtime>  (231) 
14.746183395385742

>  <fragmenstein_outcome>  (231) 
too moved

>  <fragmenstein_mode>  (231) 
expansion

>  <fragmenstein_error>  (231) 


$$$$
C18254-P64
     RDKit          3D

 53 54  0  0  0  0  0  0  0  0999 V2000
  -10.9286  -24.6921   25.2637 C   0  0  0  0  0  0  0  0  0  0  0  0
  -11.3147  -26.1463   25.4172 C   0  0  0  0  0  0  0  0  0  0  0  0
  -11.7312  -26.4804   26.8390 C   0  0  0  0  0  0  0  0  0  0  0  0
  -10.4874  -26.4476   27.9065 C   0  0  0  0  0  0  0  0  0  0  0  0
   -9.4232  -26.7315   27.4446 O   0  0  0  0  0  0  0  0  0  0  0  0
  -10.8705  -26.1850   29.2344 N   0  0  0  0  0  0  0  0  0  0  0  0
  -10.1259  -26.2714   30.4817 C   0  0  0  0  0  0  0  0  0  0  0  0
   -9.3737  -25.2134   31.1889 C   0  0  0  0  0  0  0  0  0  0  0  0
   -9.7765  -24.8003   32.6512 C   0  0  0  0  0  0  0  0  0  0  0  0
  -10.8693  -25.3363   33.5547 C   0  0  0  0  0  0  0  0  0  0  0  0
  -12.0160  -24.3416   33.6015 C   0  0  0  0  0  0  0  0  0  0  0  0
  -11.9204  -23.4797   32.3455 C   0  0  0  0  0  0  0  0  0  0  0  0
  -10.7482  -22.8650   31.5940 N   0  0  0  0  0  0  0  0  0  0  0  0
  -11.0464  -21.5914   31.2242 C   0  0  0  0  0  0  0  0  0  0  0  0
  -10.8647  -20.5677   31.7825 O   0  0  0  0  0  0  0  0  0  0  0  0
  -11.5816  -21.7933   29.9233 C   0  0  0  0  0  0  0  0  0  0  0  0
  -12.6507  -22.5993   29.7151 C   0  0  0  0  0  0  0  0  0  0  0  0
  -12.6399  -23.2257   28.5367 N   0  0  0  0  0  0  0  0  0  0  0  0
  -11.6402  -22.6601   27.9209 C   0  0  0  0  0  0  0  0  0  0  0  0
  -11.0159  -21.7457   28.6987 N   0  0  0  0  0  0  0  0  0  0  0  0
  -10.0450  -23.3555   32.6917 C   0  0  0  0  0  0  0  0  0  0  0  0
  -13.1187  -26.0634   27.2293 N   0  0  0  0  0  0  0  0  0  0  0  0
  -13.7629  -25.0941   26.3385 C   0  0  0  0  0  0  0  0  0  0  0  0
  -14.0688  -27.1998   27.2375 C   0  0  0  0  0  0  0  0  0  0  0  0
  -10.3641  -24.3693   26.1382 H   0  0  0  0  0  0  0  0  0  0  0  0
  -11.7736  -24.0254   25.1086 H   0  0  0  0  0  0  0  0  0  0  0  0
  -10.2908  -24.5238   24.3989 H   0  0  0  0  0  0  0  0  0  0  0  0
  -12.0943  -26.4345   24.7081 H   0  0  0  0  0  0  0  0  0  0  0  0
  -10.4845  -26.8039   25.1500 H   0  0  0  0  0  0  0  0  0  0  0  0
  -11.8058  -27.5744   26.8026 H   0  0  0  0  0  0  0  0  0  0  0  0
  -11.8409  -25.8942   29.2440 H   0  0  0  0  0  0  0  0  0  0  0  0
   -9.5912  -27.2235   30.4907 H   0  0  0  0  0  0  0  0  0  0  0  0
  -10.9151  -26.3130   31.1793 H   0  0  0  0  0  0  0  0  0  0  0  0
   -9.3638  -24.4172   30.4802 H   0  0  0  0  0  0  0  0  0  0  0  0
   -8.3408  -25.5313   31.2941 H   0  0  0  0  0  0  0  0  0  0  0  0
   -8.8912  -24.9520   33.2345 H   0  0  0  0  0  0  0  0  0  0  0  0
  -10.4975  -25.4228   34.5736 H   0  0  0  0  0  0  0  0  0  0  0  0
  -11.1179  -26.3368   33.2920 H   0  0  0  0  0  0  0  0  0  0  0  0
  -13.0092  -24.7717   33.7241 H   0  0  0  0  0  0  0  0  0  0  0  0
  -11.9552  -23.6725   34.4579 H   0  0  0  0  0  0  0  0  0  0  0  0
  -12.7422  -22.7537   32.4018 H   0  0  0  0  0  0  0  0  0  0  0  0
  -12.0480  -24.2013   31.5687 H   0  0  0  0  0  0  0  0  0  0  0  0
  -13.4102  -22.6847   30.4633 H   0  0  0  0  0  0  0  0  0  0  0  0
  -11.3978  -22.7852   26.8880 H   0  0  0  0  0  0  0  0  0  0  0  0
  -10.3298  -21.0830   28.3763 H   0  0  0  0  0  0  0  0  0  0  0  0
   -9.0614  -22.9169   32.8292 H   0  0  0  0  0  0  0  0  0  0  0  0
  -10.5204  -22.8366   33.4748 H   0  0  0  0  0  0  0  0  0  0  0  0
  -13.2766  -24.1275   26.3521 H   0  0  0  0  0  0  0  0  0  0  0  0
  -14.7965  -24.9216   26.6586 H   0  0  0  0  0  0  0  0  0  0  0  0
  -13.8444  -25.4335   25.3001 H   0  0  0  0  0  0  0  0  0  0  0  0
  -13.6891  -28.0631   27.7902 H   0  0  0  0  0  0  0  0  0  0  0  0
  -14.3511  -27.4953   26.2315 H   0  0  0  0  0  0  0  0  0  0  0  0
  -15.0081  -26.9160   27.7321 H   0  0  0  0  0  0  0  0  0  0  0  0
  1  2  1  0
  2  3  1  0
  3  4  1  0
  4  5  2  0
  4  6  1  0
  6  7  1  0
  7  8  1  0
  8  9  1  0
  9 10  1  0
 10 11  1  0
 11 12  1  0
 12 13  1  0
 13 14  1  0
 14 15  2  0
 14 16  1  0
 16 17  2  0
 17 18  1  0
 18 19  2  0
 19 20  1  0
 13 21  1  0
  3 22  1  0
 22 23  1  0
 22 24  1  0
 21  9  1  0
 20 16  1  0
  1 25  1  0
  1 26  1  0
  1 27  1  0
  2 28  1  0
  2 29  1  0
  3 30  1  0
  6 31  1  0
  7 32  1  0
  7 33  1  0
  8 34  1  0
  8 35  1  0
  9 36  1  0
 10 37  1  0
 10 38  1  0
 11 39  1  0
 11 40  1  0
 12 41  1  0
 12 42  1  0
 17 43  1  0
 19 44  1  0
 20 45  1  0
 21 46  1  0
 21 47  1  0
 23 48  1  0
 23 49  1  0
 23 50  1  0
 24 51  1  0
 24 52  1  0
 24 53  1  0
M  END
>  <Energy>  (232) 
218.54110485616587

>  <compound_id>  (232) 
18254

>  <target_id>  (232) 
1

>  <reference_id>  (232) 
64

>  <inspiration_ids>  (232) 
[46, 64]

>  <energy_score>  (232) 
141.7700625853131

>  <distance_score>  (232) 
3.5897569406289036

>  <path>  (232) 
/opt/xchem-fragalysis-2/maxwin/BulkDock/SCRATCH/511013/C18254-P64/C18254-P64.minimised.mol

>  <scratch_subdir>  (232) 
/opt/xchem-fragalysis-2/maxwin/BulkDock/SCRATCH/511013/C18254-P64

>  <fragmenstein_runtime>  (232) 
16.21751070022583

>  <fragmenstein_outcome>  (232) 
too moved

>  <fragmenstein_mode>  (232) 
expansion

>  <fragmenstein_error>  (232) 


$$$$
C18255-P46
     RDKit          3D

 51 52  0  0  0  0  0  0  0  0999 V2000
  -11.3405  -21.7893   28.1465 C   0  0  0  0  0  0  0  0  0  0  0  0
  -11.5672  -23.2307   28.3170 C   0  0  0  0  0  0  0  0  0  0  0  0
  -11.9693  -23.8123   26.9554 C   0  0  0  0  0  0  0  0  0  0  0  0
  -12.7743  -25.0256   26.7432 C   0  0  0  0  0  0  0  0  0  0  0  0
  -12.6857  -25.9834   25.7629 C   0  0  0  0  0  0  0  0  0  0  0  0
  -13.8285  -26.7323   25.7011 N   0  0  0  0  0  0  0  0  0  0  0  0
  -14.5352  -26.3703   26.7338 C   0  0  0  0  0  0  0  0  0  0  0  0
  -13.9332  -25.3376   27.3806 N   0  0  0  0  0  0  0  0  0  0  0  0
  -12.3662  -23.3892   29.5881 C   0  0  0  0  0  0  0  0  0  0  0  0
  -12.8562  -24.4775   29.6842 O   0  0  0  0  0  0  0  0  0  0  0  0
  -12.3435  -22.2674   30.5357 N   0  0  0  0  0  0  0  0  0  0  0  0
  -13.0434  -22.0892   31.9165 C   0  0  0  0  0  0  0  0  0  0  0  0
  -13.0071  -23.1104   33.1170 C   0  0  0  0  0  0  0  0  0  0  0  0
  -11.7740  -23.9970   33.0774 C   0  0  0  0  0  0  0  0  0  0  0  0
  -11.5613  -25.0379   32.0752 N   0  0  0  0  0  0  0  0  0  0  0  0
  -10.3959  -25.4245   31.3685 C   0  0  0  0  0  0  0  0  0  0  0  0
   -9.2616  -25.0483   31.4674 O   0  0  0  0  0  0  0  0  0  0  0  0
  -10.6170  -26.6270   30.3538 C   0  0  0  0  0  0  0  0  0  0  0  0
   -9.5397  -26.3693   29.2761 C   0  0  0  0  0  0  0  0  0  0  0  0
  -11.7016  -27.0641   29.3722 C   0  0  0  0  0  0  0  0  0  0  0  0
  -10.4889  -27.7627   31.3695 C   0  0  0  0  0  0  0  0  0  0  0  0
  -11.4563  -28.7099   31.1976 F   0  0  0  0  0  0  0  0  0  0  0  0
  -10.8292  -22.8881   32.7726 C   0  0  0  0  0  0  0  0  0  0  0  0
  -11.1452  -22.3477   31.3930 C   0  0  0  0  0  0  0  0  0  0  0  0
  -10.4342  -21.5148   28.6820 H   0  0  0  0  0  0  0  0  0  0  0  0
  -12.1645  -21.1900   28.5331 H   0  0  0  0  0  0  0  0  0  0  0  0
  -11.2470  -21.5502   27.0969 H   0  0  0  0  0  0  0  0  0  0  0  0
  -10.6037  -23.7034   28.5508 H   0  0  0  0  0  0  0  0  0  0  0  0
  -12.4830  -23.0609   26.3603 H   0  0  0  0  0  0  0  0  0  0  0  0
  -11.0294  -23.9692   26.4070 H   0  0  0  0  0  0  0  0  0  0  0  0
  -11.8926  -26.1235   25.0443 H   0  0  0  0  0  0  0  0  0  0  0  0
  -15.4918  -26.7729   27.0369 H   0  0  0  0  0  0  0  0  0  0  0  0
  -14.3609  -24.8391   28.1474 H   0  0  0  0  0  0  0  0  0  0  0  0
  -12.7450  -21.1139   32.3266 H   0  0  0  0  0  0  0  0  0  0  0  0
  -14.0988  -21.9226   31.6594 H   0  0  0  0  0  0  0  0  0  0  0  0
  -13.9466  -23.5924   33.3565 H   0  0  0  0  0  0  0  0  0  0  0  0
  -12.9405  -22.4779   34.0189 H   0  0  0  0  0  0  0  0  0  0  0  0
  -11.5885  -24.4489   34.0556 H   0  0  0  0  0  0  0  0  0  0  0  0
  -12.3567  -25.5040   31.6707 H   0  0  0  0  0  0  0  0  0  0  0  0
   -9.9946  -26.0476   28.3307 H   0  0  0  0  0  0  0  0  0  0  0  0
   -8.8587  -25.5462   29.4779 H   0  0  0  0  0  0  0  0  0  0  0  0
   -8.9641  -27.2517   29.0432 H   0  0  0  0  0  0  0  0  0  0  0  0
  -11.3093  -27.7415   28.6054 H   0  0  0  0  0  0  0  0  0  0  0  0
  -12.0787  -26.2436   28.7952 H   0  0  0  0  0  0  0  0  0  0  0  0
  -12.4966  -27.6835   29.7637 H   0  0  0  0  0  0  0  0  0  0  0  0
   -9.5075  -28.2268   31.3682 H   0  0  0  0  0  0  0  0  0  0  0  0
  -10.7056  -27.4225   32.3796 H   0  0  0  0  0  0  0  0  0  0  0  0
   -9.7786  -23.1673   32.8793 H   0  0  0  0  0  0  0  0  0  0  0  0
  -11.0129  -22.0746   33.4559 H   0  0  0  0  0  0  0  0  0  0  0  0
  -10.6196  -23.0782   30.8215 H   0  0  0  0  0  0  0  0  0  0  0  0
  -10.6451  -21.3789   31.2764 H   0  0  0  0  0  0  0  0  0  0  0  0
  1  2  1  0
  2  3  1  0
  3  4  1  0
  4  5  2  0
  5  6  1  0
  6  7  2  0
  7  8  1  0
  2  9  1  0
  9 10  2  0
  9 11  1  0
 11 12  1  0
 12 13  1  0
 13 14  1  0
 14 15  1  0
 15 16  1  0
 16 17  2  0
 16 18  1  0
 18 19  1  0
 18 20  1  0
 18 21  1  0
 21 22  1  0
 14 23  1  0
 23 24  1  0
  8  4  1  0
 24 11  1  0
  1 25  1  0
  1 26  1  0
  1 27  1  0
  2 28  1  0
  3 29  1  0
  3 30  1  0
  5 31  1  0
  7 32  1  0
  8 33  1  0
 12 34  1  0
 12 35  1  0
 13 36  1  0
 13 37  1  0
 14 38  1  0
 15 39  1  0
 19 40  1  0
 19 41  1  0
 19 42  1  0
 20 43  1  0
 20 44  1  0
 20 45  1  0
 21 46  1  0
 21 47  1  0
 23 48  1  0
 23 49  1  0
 24 50  1  0
 24 51  1  0
M  END
>  <Energy>  (233) 
175.26610197419353

>  <compound_id>  (233) 
18255

>  <target_id>  (233) 
1

>  <reference_id>  (233) 
46

>  <inspiration_ids>  (233) 
[46, 64]

>  <energy_score>  (233) 
159.62989351887964

>  <distance_score>  (233) 
3.4518006366689016

>  <path>  (233) 
/opt/xchem-fragalysis-2/maxwin/BulkDock/SCRATCH/511013/C18255-P46/C18255-P46.minimised.mol

>  <scratch_subdir>  (233) 
/opt/xchem-fragalysis-2/maxwin/BulkDock/SCRATCH/511013/C18255-P46

>  <fragmenstein_runtime>  (233) 
10.153585195541382

>  <fragmenstein_outcome>  (233) 
too moved

>  <fragmenstein_mode>  (233) 
expansion

>  <fragmenstein_error>  (233) 


$$$$
C18255-P64
     RDKit          3D

 51 52  0  0  0  0  0  0  0  0999 V2000
  -15.9442  -20.2551   33.9602 C   0  0  0  0  0  0  0  0  0  0  0  0
  -16.2984  -21.7519   34.0314 C   0  0  0  0  0  0  0  0  0  0  0  0
  -17.4606  -21.9960   33.0700 C   0  0  0  0  0  0  0  0  0  0  0  0
  -18.0234  -23.3764   32.9588 C   0  0  0  0  0  0  0  0  0  0  0  0
  -17.5425  -24.5869   32.4825 C   0  0  0  0  0  0  0  0  0  0  0  0
  -18.5208  -25.5446   32.4845 N   0  0  0  0  0  0  0  0  0  0  0  0
  -19.5582  -24.9767   33.0444 C   0  0  0  0  0  0  0  0  0  0  0  0
  -19.3066  -23.6745   33.3604 N   0  0  0  0  0  0  0  0  0  0  0  0
  -15.1200  -22.7546   33.9049 C   0  0  0  0  0  0  0  0  0  0  0  0
  -15.3565  -23.9180   34.0800 O   0  0  0  0  0  0  0  0  0  0  0  0
  -13.8840  -22.0862   33.6821 N   0  0  0  0  0  0  0  0  0  0  0  0
  -12.4873  -22.5961   33.7072 C   0  0  0  0  0  0  0  0  0  0  0  0
  -11.8616  -23.7064   32.8565 C   0  0  0  0  0  0  0  0  0  0  0  0
  -11.4226  -23.0534   31.5745 C   0  0  0  0  0  0  0  0  0  0  0  0
  -11.4654  -23.6984   30.2761 N   0  0  0  0  0  0  0  0  0  0  0  0
  -10.8372  -24.8933   29.7979 C   0  0  0  0  0  0  0  0  0  0  0  0
  -10.1779  -25.7114   30.3699 O   0  0  0  0  0  0  0  0  0  0  0  0
  -11.0194  -25.0043   28.2392 C   0  0  0  0  0  0  0  0  0  0  0  0
  -10.0782  -23.9644   27.6948 C   0  0  0  0  0  0  0  0  0  0  0  0
  -12.3564  -24.6675   27.5521 C   0  0  0  0  0  0  0  0  0  0  0  0
  -10.5578  -26.3886   27.7930 C   0  0  0  0  0  0  0  0  0  0  0  0
  -10.7194  -26.5028   26.4437 F   0  0  0  0  0  0  0  0  0  0  0  0
  -12.2328  -21.7924   31.4871 C   0  0  0  0  0  0  0  0  0  0  0  0
  -13.6012  -22.0014   32.2069 C   0  0  0  0  0  0  0  0  0  0  0  0
  -15.7881  -19.9302   32.9269 H   0  0  0  0  0  0  0  0  0  0  0  0
  -16.7662  -19.6531   34.3643 H   0  0  0  0  0  0  0  0  0  0  0  0
  -15.0448  -19.9954   34.5221 H   0  0  0  0  0  0  0  0  0  0  0  0
  -16.6705  -21.9250   35.0525 H   0  0  0  0  0  0  0  0  0  0  0  0
  -17.1987  -21.6052   32.0875 H   0  0  0  0  0  0  0  0  0  0  0  0
  -18.2849  -21.3393   33.3892 H   0  0  0  0  0  0  0  0  0  0  0  0
  -16.5496  -24.8306   32.1153 H   0  0  0  0  0  0  0  0  0  0  0  0
  -20.5085  -25.4527   33.2448 H   0  0  0  0  0  0  0  0  0  0  0  0
  -19.9624  -23.0446   33.8001 H   0  0  0  0  0  0  0  0  0  0  0  0
  -11.8755  -21.7032   33.8188 H   0  0  0  0  0  0  0  0  0  0  0  0
  -12.4265  -23.0386   34.6954 H   0  0  0  0  0  0  0  0  0  0  0  0
  -12.5827  -24.4908   32.8274 H   0  0  0  0  0  0  0  0  0  0  0  0
  -10.9892  -24.1672   33.3252 H   0  0  0  0  0  0  0  0  0  0  0  0
  -10.3867  -22.7778   31.7361 H   0  0  0  0  0  0  0  0  0  0  0  0
  -11.8708  -23.2074   29.4970 H   0  0  0  0  0  0  0  0  0  0  0  0
  -10.4842  -22.9605   27.8584 H   0  0  0  0  0  0  0  0  0  0  0  0
   -9.1250  -24.0086   28.2008 H   0  0  0  0  0  0  0  0  0  0  0  0
   -9.9308  -24.1282   26.6288 H   0  0  0  0  0  0  0  0  0  0  0  0
  -12.8821  -25.5642   27.2050 H   0  0  0  0  0  0  0  0  0  0  0  0
  -12.2210  -24.0731   26.6388 H   0  0  0  0  0  0  0  0  0  0  0  0
  -13.0186  -24.0929   28.1958 H   0  0  0  0  0  0  0  0  0  0  0  0
   -9.5025  -26.5647   28.0185 H   0  0  0  0  0  0  0  0  0  0  0  0
  -11.1473  -27.1809   28.2566 H   0  0  0  0  0  0  0  0  0  0  0  0
  -11.6622  -20.9771   31.9417 H   0  0  0  0  0  0  0  0  0  0  0  0
  -12.3725  -21.5332   30.4357 H   0  0  0  0  0  0  0  0  0  0  0  0
  -14.2116  -22.7340   31.6959 H   0  0  0  0  0  0  0  0  0  0  0  0
  -14.2017  -21.1244   31.9547 H   0  0  0  0  0  0  0  0  0  0  0  0
  1  2  1  0
  2  3  1  0
  3  4  1  0
  4  5  2  0
  5  6  1  0
  6  7  2  0
  7  8  1  0
  2  9  1  0
  9 10  2  0
  9 11  1  0
 11 12  1  0
 12 13  1  0
 13 14  1  0
 14 15  1  0
 15 16  1  0
 16 17  2  0
 16 18  1  0
 18 19  1  0
 18 20  1  0
 18 21  1  0
 21 22  1  0
 14 23  1  0
 23 24  1  0
  8  4  1  0
 24 11  1  0
  1 25  1  0
  1 26  1  0
  1 27  1  0
  2 28  1  0
  3 29  1  0
  3 30  1  0
  5 31  1  0
  7 32  1  0
  8 33  1  0
 12 34  1  0
 12 35  1  0
 13 36  1  0
 13 37  1  0
 14 38  1  0
 15 39  1  0
 19 40  1  0
 19 41  1  0
 19 42  1  0
 20 43  1  0
 20 44  1  0
 20 45  1  0
 21 46  1  0
 21 47  1  0
 23 48  1  0
 23 49  1  0
 24 50  1  0
 24 51  1  0
M  END
>  <Energy>  (234) 
104.24148263487253

>  <compound_id>  (234) 
18255

>  <target_id>  (234) 
1

>  <reference_id>  (234) 
64

>  <inspiration_ids>  (234) 
[46, 64]

>  <energy_score>  (234) 
88.6052741795605

>  <distance_score>  (234) 
3.8307434125147783

>  <path>  (234) 
/opt/xchem-fragalysis-2/maxwin/BulkDock/SCRATCH/511013/C18255-P64/C18255-P64.minimised.mol

>  <scratch_subdir>  (234) 
/opt/xchem-fragalysis-2/maxwin/BulkDock/SCRATCH/511013/C18255-P64

>  <fragmenstein_runtime>  (234) 
10.377034664154053

>  <fragmenstein_outcome>  (234) 
too moved

>  <fragmenstein_mode>  (234) 
expansion

>  <fragmenstein_error>  (234) 


$$$$
C18257-P46
     RDKit          3D

 51 53  0  0  0  0  0  0  0  0999 V2000
   -8.7168  -25.4139   32.4340 C   0  0  0  0  0  0  0  0  0  0  0  0
   -9.7657  -25.6478   31.3674 C   0  0  0  0  0  0  0  0  0  0  0  0
  -10.4010  -26.9695   30.9315 C   0  0  0  0  0  0  0  0  0  0  0  0
  -11.0132  -26.8227   29.5555 C   0  0  0  0  0  0  0  0  0  0  0  0
  -10.8225  -25.8927   28.5582 C   0  0  0  0  0  0  0  0  0  0  0  0
  -11.6861  -26.0596   27.5168 N   0  0  0  0  0  0  0  0  0  0  0  0
  -12.4387  -27.0644   27.8784 C   0  0  0  0  0  0  0  0  0  0  0  0
  -12.0020  -27.6249   29.0447 N   0  0  0  0  0  0  0  0  0  0  0  0
  -10.7790  -24.7889   31.9719 C   0  0  0  0  0  0  0  0  0  0  0  0
  -10.9760  -23.7445   31.4357 O   0  0  0  0  0  0  0  0  0  0  0  0
  -11.3067  -25.3341   33.1963 N   0  0  0  0  0  0  0  0  0  0  0  0
  -12.1590  -24.7487   34.1977 C   0  0  0  0  0  0  0  0  0  0  0  0
  -12.5758  -23.4633   33.6468 C   0  0  0  0  0  0  0  0  0  0  0  0
  -13.6943  -22.5717   34.0920 C   0  0  0  0  0  0  0  0  0  0  0  0
  -14.9319  -22.3529   33.2307 C   0  0  0  0  0  0  0  0  0  0  0  0
  -14.6153  -21.6517   31.9217 C   0  0  0  0  0  0  0  0  0  0  0  0
  -13.1697  -21.5705   31.6495 N   0  0  0  0  0  0  0  0  0  0  0  0
  -12.6586  -22.0104   30.4314 C   0  0  0  0  0  0  0  0  0  0  0  0
  -13.3711  -22.8794   29.6795 N   0  0  0  0  0  0  0  0  0  0  0  0
  -12.8904  -23.3443   28.5138 C   0  0  0  0  0  0  0  0  0  0  0  0
  -11.7436  -22.8921   27.9813 C   0  0  0  0  0  0  0  0  0  0  0  0
  -11.1143  -21.9802   28.7706 C   0  0  0  0  0  0  0  0  0  0  0  0
  -11.5263  -21.4994   29.9642 N   0  0  0  0  0  0  0  0  0  0  0  0
  -12.2544  -21.0982   32.7039 C   0  0  0  0  0  0  0  0  0  0  0  0
  -12.9935  -21.1963   34.0746 C   0  0  0  0  0  0  0  0  0  0  0  0
   -7.9448  -26.1442   32.4828 H   0  0  0  0  0  0  0  0  0  0  0  0
   -9.0739  -25.3090   33.4640 H   0  0  0  0  0  0  0  0  0  0  0  0
   -8.2585  -24.4474   32.2358 H   0  0  0  0  0  0  0  0  0  0  0  0
   -9.3445  -25.1543   30.4869 H   0  0  0  0  0  0  0  0  0  0  0  0
  -11.1846  -27.3144   31.6154 H   0  0  0  0  0  0  0  0  0  0  0  0
   -9.6626  -27.7672   30.9061 H   0  0  0  0  0  0  0  0  0  0  0  0
  -10.1495  -25.0542   28.5794 H   0  0  0  0  0  0  0  0  0  0  0  0
  -13.3173  -27.4073   27.3514 H   0  0  0  0  0  0  0  0  0  0  0  0
  -12.4430  -28.3957   29.5204 H   0  0  0  0  0  0  0  0  0  0  0  0
  -10.8525  -26.2204   33.3876 H   0  0  0  0  0  0  0  0  0  0  0  0
  -11.5134  -24.6506   35.0698 H   0  0  0  0  0  0  0  0  0  0  0  0
  -13.0280  -25.3137   34.4572 H   0  0  0  0  0  0  0  0  0  0  0  0
  -11.6277  -22.9569   33.8033 H   0  0  0  0  0  0  0  0  0  0  0  0
  -12.7428  -23.6164   32.6039 H   0  0  0  0  0  0  0  0  0  0  0  0
  -14.1405  -23.0438   34.9552 H   0  0  0  0  0  0  0  0  0  0  0  0
  -15.6314  -21.7125   33.7901 H   0  0  0  0  0  0  0  0  0  0  0  0
  -15.5135  -23.2656   33.0954 H   0  0  0  0  0  0  0  0  0  0  0  0
  -15.2117  -22.0506   31.0980 H   0  0  0  0  0  0  0  0  0  0  0  0
  -15.0189  -20.6370   32.0276 H   0  0  0  0  0  0  0  0  0  0  0  0
  -13.4881  -24.0932   28.0071 H   0  0  0  0  0  0  0  0  0  0  0  0
  -11.3676  -23.2382   27.0330 H   0  0  0  0  0  0  0  0  0  0  0  0
  -10.1820  -21.5769   28.4315 H   0  0  0  0  0  0  0  0  0  0  0  0
  -11.3095  -21.6428   32.6395 H   0  0  0  0  0  0  0  0  0  0  0  0
  -11.8529  -20.0988   32.6421 H   0  0  0  0  0  0  0  0  0  0  0  0
  -13.7119  -20.3756   34.1946 H   0  0  0  0  0  0  0  0  0  0  0  0
  -12.2796  -21.0840   34.8882 H   0  0  0  0  0  0  0  0  0  0  0  0
  1  2  1  0
  2  3  1  0
  3  4  1  0
  4  5  2  0
  5  6  1  0
  6  7  2  0
  7  8  1  0
  2  9  1  0
  9 10  2  0
  9 11  1  0
 11 12  1  0
 12 13  1  0
 13 14  1  0
 14 15  1  0
 15 16  1  0
 16 17  1  0
 17 18  1  0
 18 19  2  0
 19 20  1  0
 20 21  2  0
 21 22  1  0
 22 23  2  0
 17 24  1  0
 24 25  1  0
  8  4  1  0
 25 14  1  0
 23 18  1  0
  1 26  1  0
  1 27  1  0
  1 28  1  0
  2 29  1  0
  3 30  1  0
  3 31  1  0
  5 32  1  0
  7 33  1  0
  8 34  1  0
 11 35  1  0
 12 36  1  0
 12 37  1  0
 13 38  1  0
 13 39  1  0
 14 40  1  0
 15 41  1  0
 15 42  1  0
 16 43  1  0
 16 44  1  0
 20 45  1  0
 21 46  1  0
 22 47  1  0
 24 48  1  0
 24 49  1  0
 25 50  1  0
 25 51  1  0
M  END
>  <Energy>  (235) 
39.080644371281061

>  <compound_id>  (235) 
18257

>  <target_id>  (235) 
1

>  <reference_id>  (235) 
46

>  <inspiration_ids>  (235) 
[46, 64]

>  <energy_score>  (235) 
76.04984189368565

>  <distance_score>  (235) 
2.39474581099427

>  <path>  (235) 
/opt/xchem-fragalysis-2/maxwin/BulkDock/SCRATCH/511013/C18257-P46/C18257-P46.minimised.mol

>  <scratch_subdir>  (235) 
/opt/xchem-fragalysis-2/maxwin/BulkDock/SCRATCH/511013/C18257-P46

>  <fragmenstein_runtime>  (235) 
8.091696977615356

>  <fragmenstein_outcome>  (235) 
too moved

>  <fragmenstein_mode>  (235) 
expansion

>  <fragmenstein_error>  (235) 


$$$$
C18257-P64
     RDKit          3D

 51 53  0  0  0  0  0  0  0  0999 V2000
   -8.4196  -25.1066   31.9655 C   0  0  0  0  0  0  0  0  0  0  0  0
   -9.4700  -25.2810   30.9164 C   0  0  0  0  0  0  0  0  0  0  0  0
   -9.9871  -26.4485   30.1213 C   0  0  0  0  0  0  0  0  0  0  0  0
  -10.2431  -26.2192   28.6465 C   0  0  0  0  0  0  0  0  0  0  0  0
   -9.9718  -25.1759   27.8029 C   0  0  0  0  0  0  0  0  0  0  0  0
  -10.6157  -25.3004   26.5950 N   0  0  0  0  0  0  0  0  0  0  0  0
  -11.2482  -26.4396   26.6612 C   0  0  0  0  0  0  0  0  0  0  0  0
  -11.0599  -27.0152   27.8782 N   0  0  0  0  0  0  0  0  0  0  0  0
  -10.5102  -24.7082   31.7692 C   0  0  0  0  0  0  0  0  0  0  0  0
  -10.8451  -23.6300   31.4056 O   0  0  0  0  0  0  0  0  0  0  0  0
  -10.8868  -25.4679   32.9351 N   0  0  0  0  0  0  0  0  0  0  0  0
  -11.7167  -25.1117   34.0728 C   0  0  0  0  0  0  0  0  0  0  0  0
  -12.3611  -23.8439   33.5951 C   0  0  0  0  0  0  0  0  0  0  0  0
  -13.4441  -22.8964   34.0067 C   0  0  0  0  0  0  0  0  0  0  0  0
  -14.6613  -22.7999   33.1139 C   0  0  0  0  0  0  0  0  0  0  0  0
  -14.3835  -21.9501   31.8956 C   0  0  0  0  0  0  0  0  0  0  0  0
  -12.9925  -21.7261   31.5791 N   0  0  0  0  0  0  0  0  0  0  0  0
  -12.4489  -22.1409   30.3793 C   0  0  0  0  0  0  0  0  0  0  0  0
  -13.0616  -23.0905   29.6530 N   0  0  0  0  0  0  0  0  0  0  0  0
  -12.5810  -23.4659   28.4674 C   0  0  0  0  0  0  0  0  0  0  0  0
  -11.6106  -22.7926   27.8565 C   0  0  0  0  0  0  0  0  0  0  0  0
  -11.0444  -21.8592   28.6478 C   0  0  0  0  0  0  0  0  0  0  0  0
  -11.4232  -21.4721   29.8764 N   0  0  0  0  0  0  0  0  0  0  0  0
  -12.0887  -21.3052   32.6120 C   0  0  0  0  0  0  0  0  0  0  0  0
  -12.8146  -21.4663   33.9403 C   0  0  0  0  0  0  0  0  0  0  0  0
   -7.5423  -25.6819   31.8486 H   0  0  0  0  0  0  0  0  0  0  0  0
   -8.7549  -25.1487   32.9948 H   0  0  0  0  0  0  0  0  0  0  0  0
   -8.1452  -24.0631   32.0583 H   0  0  0  0  0  0  0  0  0  0  0  0
   -9.2036  -24.5805   30.1469 H   0  0  0  0  0  0  0  0  0  0  0  0
  -11.0026  -26.5085   30.4239 H   0  0  0  0  0  0  0  0  0  0  0  0
   -9.4878  -27.3916   30.3361 H   0  0  0  0  0  0  0  0  0  0  0  0
   -9.4128  -24.2825   28.0326 H   0  0  0  0  0  0  0  0  0  0  0  0
  -11.8501  -26.8849   25.8802 H   0  0  0  0  0  0  0  0  0  0  0  0
  -11.4975  -27.8718   28.1635 H   0  0  0  0  0  0  0  0  0  0  0  0
  -10.3378  -26.3210   32.9668 H   0  0  0  0  0  0  0  0  0  0  0  0
  -11.0193  -24.9733   34.8885 H   0  0  0  0  0  0  0  0  0  0  0  0
  -12.3636  -25.9259   34.3906 H   0  0  0  0  0  0  0  0  0  0  0  0
  -12.6049  -24.0059   32.5749 H   0  0  0  0  0  0  0  0  0  0  0  0
  -11.4681  -23.2462   33.6293 H   0  0  0  0  0  0  0  0  0  0  0  0
  -13.8970  -23.2598   34.9032 H   0  0  0  0  0  0  0  0  0  0  0  0
  -15.0653  -23.7869   32.8750 H   0  0  0  0  0  0  0  0  0  0  0  0
  -15.4778  -22.3165   33.6706 H   0  0  0  0  0  0  0  0  0  0  0  0
  -14.8517  -22.4202   31.0764 H   0  0  0  0  0  0  0  0  0  0  0  0
  -14.8934  -20.9853   32.0100 H   0  0  0  0  0  0  0  0  0  0  0  0
  -13.0700  -24.2780   27.9546 H   0  0  0  0  0  0  0  0  0  0  0  0
  -11.3067  -23.0100   26.8508 H   0  0  0  0  0  0  0  0  0  0  0  0
  -10.1753  -21.3779   28.2667 H   0  0  0  0  0  0  0  0  0  0  0  0
  -11.6938  -20.3016   32.5630 H   0  0  0  0  0  0  0  0  0  0  0  0
  -11.1613  -21.8521   32.5285 H   0  0  0  0  0  0  0  0  0  0  0  0
  -12.1182  -21.2796   34.7478 H   0  0  0  0  0  0  0  0  0  0  0  0
  -13.5891  -20.6933   34.0476 H   0  0  0  0  0  0  0  0  0  0  0  0
  1  2  1  0
  2  3  1  0
  3  4  1  0
  4  5  2  0
  5  6  1  0
  6  7  2  0
  7  8  1  0
  2  9  1  0
  9 10  2  0
  9 11  1  0
 11 12  1  0
 12 13  1  0
 13 14  1  0
 14 15  1  0
 15 16  1  0
 16 17  1  0
 17 18  1  0
 18 19  2  0
 19 20  1  0
 20 21  2  0
 21 22  1  0
 22 23  2  0
 17 24  1  0
 24 25  1  0
  8  4  1  0
 25 14  1  0
 23 18  1  0
  1 26  1  0
  1 27  1  0
  1 28  1  0
  2 29  1  0
  3 30  1  0
  3 31  1  0
  5 32  1  0
  7 33  1  0
  8 34  1  0
 11 35  1  0
 12 36  1  0
 12 37  1  0
 13 38  1  0
 13 39  1  0
 14 40  1  0
 15 41  1  0
 15 42  1  0
 16 43  1  0
 16 44  1  0
 20 45  1  0
 21 46  1  0
 22 47  1  0
 24 48  1  0
 24 49  1  0
 25 50  1  0
 25 51  1  0
M  END
>  <Energy>  (236) 
75.597779585559664

>  <compound_id>  (236) 
18257

>  <target_id>  (236) 
1

>  <reference_id>  (236) 
64

>  <inspiration_ids>  (236) 
[46, 64]

>  <energy_score>  (236) 
112.5669771079643

>  <distance_score>  (236) 
2.235763168774222

>  <path>  (236) 
/opt/xchem-fragalysis-2/maxwin/BulkDock/SCRATCH/511013/C18257-P64/C18257-P64.minimised.mol

>  <scratch_subdir>  (236) 
/opt/xchem-fragalysis-2/maxwin/BulkDock/SCRATCH/511013/C18257-P64

>  <fragmenstein_runtime>  (236) 
6.182959794998169

>  <fragmenstein_outcome>  (236) 
too moved

>  <fragmenstein_mode>  (236) 
expansion

>  <fragmenstein_error>  (236) 


$$$$
C18258-P46
     RDKit          3D

 54 55  0  0  0  0  0  0  0  0999 V2000
  -10.7971  -23.5162   27.8843 C   0  0  0  0  0  0  0  0  0  0  0  0
  -11.8659  -22.4651   27.9733 C   0  0  0  0  0  0  0  0  0  0  0  0
  -11.8852  -21.6883   29.2845 C   0  0  0  0  0  0  0  0  0  0  0  0
  -12.3483  -22.5415   30.4263 C   0  0  0  0  0  0  0  0  0  0  0  0
  -12.3340  -23.7308   30.2570 O   0  0  0  0  0  0  0  0  0  0  0  0
  -12.6537  -21.7666   31.6009 N   0  0  0  0  0  0  0  0  0  0  0  0
  -13.1798  -22.2083   33.0125 C   0  0  0  0  0  0  0  0  0  0  0  0
  -12.4852  -23.3351   33.8727 C   0  0  0  0  0  0  0  0  0  0  0  0
  -11.3292  -23.9221   33.1133 C   0  0  0  0  0  0  0  0  0  0  0  0
  -10.3104  -24.9652   33.6209 C   0  0  0  0  0  0  0  0  0  0  0  0
   -9.3381  -25.2663   32.4605 C   0  0  0  0  0  0  0  0  0  0  0  0
  -10.1424  -25.9649   31.5339 N   0  0  0  0  0  0  0  0  0  0  0  0
  -10.0459  -26.0929   30.1241 C   0  0  0  0  0  0  0  0  0  0  0  0
   -9.2156  -25.7086   29.3639 O   0  0  0  0  0  0  0  0  0  0  0  0
  -11.3240  -26.7681   29.6475 C   0  0  0  0  0  0  0  0  0  0  0  0
  -11.6996  -27.9670   30.5399 C   0  0  0  0  0  0  0  0  0  0  0  0
  -11.4111  -27.0943   28.1613 C   0  0  0  0  0  0  0  0  0  0  0  0
  -12.6293  -26.6094   27.4415 C   0  0  0  0  0  0  0  0  0  0  0  0
  -13.9576  -26.9777   27.5025 C   0  0  0  0  0  0  0  0  0  0  0  0
  -14.6726  -26.4274   26.4753 N   0  0  0  0  0  0  0  0  0  0  0  0
  -13.8173  -25.6786   25.8249 C   0  0  0  0  0  0  0  0  0  0  0  0
  -12.5643  -25.7856   26.3464 N   0  0  0  0  0  0  0  0  0  0  0  0
  -10.5866  -22.7510   32.5397 C   0  0  0  0  0  0  0  0  0  0  0  0
  -11.4303  -21.5129   32.3722 C   0  0  0  0  0  0  0  0  0  0  0  0
  -11.0750  -24.3925   28.4470 H   0  0  0  0  0  0  0  0  0  0  0  0
   -9.8437  -23.1516   28.2582 H   0  0  0  0  0  0  0  0  0  0  0  0
  -10.6649  -23.8333   26.8494 H   0  0  0  0  0  0  0  0  0  0  0  0
  -12.8338  -22.9425   27.7909 H   0  0  0  0  0  0  0  0  0  0  0  0
  -11.6696  -21.7674   27.1637 H   0  0  0  0  0  0  0  0  0  0  0  0
  -12.5517  -20.8398   29.1899 H   0  0  0  0  0  0  0  0  0  0  0  0
  -10.8838  -21.3228   29.5140 H   0  0  0  0  0  0  0  0  0  0  0  0
  -14.2068  -22.5323   32.8222 H   0  0  0  0  0  0  0  0  0  0  0  0
  -13.3805  -21.3147   33.6310 H   0  0  0  0  0  0  0  0  0  0  0  0
  -13.2142  -24.0984   34.1455 H   0  0  0  0  0  0  0  0  0  0  0  0
  -12.1518  -22.8945   34.8100 H   0  0  0  0  0  0  0  0  0  0  0  0
  -11.8380  -24.4522   32.3093 H   0  0  0  0  0  0  0  0  0  0  0  0
   -9.7027  -24.7219   34.4819 H   0  0  0  0  0  0  0  0  0  0  0  0
  -10.8571  -25.8603   33.9304 H   0  0  0  0  0  0  0  0  0  0  0  0
   -8.8937  -24.4009   31.9854 H   0  0  0  0  0  0  0  0  0  0  0  0
   -8.4703  -25.8482   32.7374 H   0  0  0  0  0  0  0  0  0  0  0  0
  -10.9364  -26.4820   31.8551 H   0  0  0  0  0  0  0  0  0  0  0  0
  -11.9930  -25.9407   29.8024 H   0  0  0  0  0  0  0  0  0  0  0  0
  -12.3948  -28.6536   30.0490 H   0  0  0  0  0  0  0  0  0  0  0  0
  -12.1735  -27.6991   31.4857 H   0  0  0  0  0  0  0  0  0  0  0  0
  -10.8084  -28.4627   30.9161 H   0  0  0  0  0  0  0  0  0  0  0  0
  -11.5112  -28.1723   28.0591 H   0  0  0  0  0  0  0  0  0  0  0  0
  -10.5157  -26.7891   27.6155 H   0  0  0  0  0  0  0  0  0  0  0  0
  -14.4316  -27.6613   28.1935 H   0  0  0  0  0  0  0  0  0  0  0  0
  -14.0433  -25.0608   24.9691 H   0  0  0  0  0  0  0  0  0  0  0  0
  -11.7316  -25.3761   25.9524 H   0  0  0  0  0  0  0  0  0  0  0  0
   -9.6572  -22.5468   33.0633 H   0  0  0  0  0  0  0  0  0  0  0  0
  -10.3118  -23.0752   31.5508 H   0  0  0  0  0  0  0  0  0  0  0  0
  -10.8198  -20.8763   31.7212 H   0  0  0  0  0  0  0  0  0  0  0  0
  -11.5592  -20.8459   33.2352 H   0  0  0  0  0  0  0  0  0  0  0  0
  1  2  1  0
  2  3  1  0
  3  4  1  0
  4  5  2  0
  4  6  1  0
  6  7  1  0
  7  8  1  0
  8  9  1  0
  9 10  1  0
 10 11  1  0
 11 12  1  0
 12 13  1  0
 13 14  2  0
 13 15  1  0
 15 16  1  0
 15 17  1  0
 17 18  1  0
 18 19  2  0
 19 20  1  0
 20 21  2  0
 21 22  1  0
  9 23  1  0
 23 24  1  0
 24  6  1  0
 22 18  1  0
  1 25  1  0
  1 26  1  0
  1 27  1  0
  2 28  1  0
  2 29  1  0
  3 30  1  0
  3 31  1  0
  7 32  1  0
  7 33  1  0
  8 34  1  0
  8 35  1  0
  9 36  1  0
 10 37  1  0
 10 38  1  0
 11 39  1  0
 11 40  1  0
 12 41  1  0
 15 42  1  0
 16 43  1  0
 16 44  1  0
 16 45  1  0
 17 46  1  0
 17 47  1  0
 19 48  1  0
 21 49  1  0
 22 50  1  0
 23 51  1  0
 23 52  1  0
 24 53  1  0
 24 54  1  0
M  END
>  <Energy>  (237) 
108.88503813940486

>  <compound_id>  (237) 
18258

>  <target_id>  (237) 
1

>  <reference_id>  (237) 
46

>  <inspiration_ids>  (237) 
[46, 64]

>  <energy_score>  (237) 
83.94841601563098

>  <distance_score>  (237) 
2.346604361727197

>  <path>  (237) 
/opt/xchem-fragalysis-2/maxwin/BulkDock/SCRATCH/511013/C18258-P46/C18258-P46.minimised.mol

>  <scratch_subdir>  (237) 
/opt/xchem-fragalysis-2/maxwin/BulkDock/SCRATCH/511013/C18258-P46

>  <fragmenstein_runtime>  (237) 
8.362990140914917

>  <fragmenstein_outcome>  (237) 
too moved

>  <fragmenstein_mode>  (237) 
expansion

>  <fragmenstein_error>  (237) 


$$$$
C18258-P64
     RDKit          3D

 54 55  0  0  0  0  0  0  0  0999 V2000
  -11.7340  -23.1420   26.8519 C   0  0  0  0  0  0  0  0  0  0  0  0
  -11.0559  -23.4142   28.1404 C   0  0  0  0  0  0  0  0  0  0  0  0
  -11.4620  -22.7042   29.4056 C   0  0  0  0  0  0  0  0  0  0  0  0
  -12.8294  -22.8314   29.9454 C   0  0  0  0  0  0  0  0  0  0  0  0
  -13.5633  -23.3672   29.1678 O   0  0  0  0  0  0  0  0  0  0  0  0
  -13.1048  -22.2222   31.2367 N   0  0  0  0  0  0  0  0  0  0  0  0
  -14.3547  -21.9813   31.9253 C   0  0  0  0  0  0  0  0  0  0  0  0
  -13.8441  -21.2109   33.1505 C   0  0  0  0  0  0  0  0  0  0  0  0
  -12.2257  -21.5340   33.4059 C   0  0  0  0  0  0  0  0  0  0  0  0
  -10.9203  -21.9515   32.2251 C   0  0  0  0  0  0  0  0  0  0  0  0
  -10.1014  -23.5390   32.2949 C   0  0  0  0  0  0  0  0  0  0  0  0
  -10.2557  -24.8136   31.4595 N   0  0  0  0  0  0  0  0  0  0  0  0
   -9.6489  -25.2085   30.1852 C   0  0  0  0  0  0  0  0  0  0  0  0
   -8.9454  -24.6030   29.4403 O   0  0  0  0  0  0  0  0  0  0  0  0
   -9.7989  -26.6351   29.7064 C   0  0  0  0  0  0  0  0  0  0  0  0
   -9.4823  -27.4934   30.9171 C   0  0  0  0  0  0  0  0  0  0  0  0
  -11.0260  -26.7726   28.9202 C   0  0  0  0  0  0  0  0  0  0  0  0
  -11.2596  -26.6155   27.4631 C   0  0  0  0  0  0  0  0  0  0  0  0
  -12.3722  -26.2142   26.7333 C   0  0  0  0  0  0  0  0  0  0  0  0
  -12.2124  -26.4530   25.4067 N   0  0  0  0  0  0  0  0  0  0  0  0
  -11.0710  -27.0823   25.3595 C   0  0  0  0  0  0  0  0  0  0  0  0
  -10.3651  -26.9298   26.5074 N   0  0  0  0  0  0  0  0  0  0  0  0
  -12.5233  -22.8961   33.8481 C   0  0  0  0  0  0  0  0  0  0  0  0
  -12.9399  -23.3820   32.5096 C   0  0  0  0  0  0  0  0  0  0  0  0
  -12.7768  -23.4391   26.8546 H   0  0  0  0  0  0  0  0  0  0  0  0
  -11.2667  -23.7080   26.0403 H   0  0  0  0  0  0  0  0  0  0  0  0
  -11.6055  -22.0875   26.6565 H   0  0  0  0  0  0  0  0  0  0  0  0
   -9.9906  -23.2613   27.9798 H   0  0  0  0  0  0  0  0  0  0  0  0
  -11.1965  -24.4488   28.3071 H   0  0  0  0  0  0  0  0  0  0  0  0
  -11.2226  -21.6435   29.2952 H   0  0  0  0  0  0  0  0  0  0  0  0
  -10.9308  -23.1825   30.1767 H   0  0  0  0  0  0  0  0  0  0  0  0
  -14.9098  -21.2579   31.3216 H   0  0  0  0  0  0  0  0  0  0  0  0
  -15.0885  -22.7779   32.0837 H   0  0  0  0  0  0  0  0  0  0  0  0
  -14.4580  -21.5483   33.9985 H   0  0  0  0  0  0  0  0  0  0  0  0
  -14.1550  -20.1764   33.1948 H   0  0  0  0  0  0  0  0  0  0  0  0
  -11.9156  -20.8304   34.1705 H   0  0  0  0  0  0  0  0  0  0  0  0
  -11.1906  -21.5959   31.2532 H   0  0  0  0  0  0  0  0  0  0  0  0
  -10.1430  -21.1807   32.1948 H   0  0  0  0  0  0  0  0  0  0  0  0
   -9.0504  -23.4413   32.5583 H   0  0  0  0  0  0  0  0  0  0  0  0
  -10.4288  -23.9874   33.2178 H   0  0  0  0  0  0  0  0  0  0  0  0
  -10.8656  -25.5557   31.7818 H   0  0  0  0  0  0  0  0  0  0  0  0
   -9.1114  -26.8673   28.8932 H   0  0  0  0  0  0  0  0  0  0  0  0
   -9.8717  -28.4815   30.8755 H   0  0  0  0  0  0  0  0  0  0  0  0
   -8.4357  -27.6457   31.1419 H   0  0  0  0  0  0  0  0  0  0  0  0
   -9.9155  -27.0876   31.8170 H   0  0  0  0  0  0  0  0  0  0  0  0
  -11.5256  -25.9189   29.3146 H   0  0  0  0  0  0  0  0  0  0  0  0
  -11.3943  -27.7651   29.1281 H   0  0  0  0  0  0  0  0  0  0  0  0
  -13.3057  -25.7897   27.0689 H   0  0  0  0  0  0  0  0  0  0  0  0
  -10.7168  -27.7043   24.5626 H   0  0  0  0  0  0  0  0  0  0  0  0
   -9.4131  -27.2247   26.6633 H   0  0  0  0  0  0  0  0  0  0  0  0
  -11.7887  -23.5179   34.3156 H   0  0  0  0  0  0  0  0  0  0  0  0
  -13.3773  -23.0453   34.5011 H   0  0  0  0  0  0  0  0  0  0  0  0
  -13.8638  -23.9002   32.8340 H   0  0  0  0  0  0  0  0  0  0  0  0
  -12.2234  -24.1040   32.1790 H   0  0  0  0  0  0  0  0  0  0  0  0
  1  2  1  0
  2  3  1  0
  3  4  1  0
  4  5  2  0
  4  6  1  0
  6  7  1  0
  7  8  1  0
  8  9  1  0
  9 10  1  0
 10 11  1  0
 11 12  1  0
 12 13  1  0
 13 14  2  0
 13 15  1  0
 15 16  1  0
 15 17  1  0
 17 18  1  0
 18 19  2  0
 19 20  1  0
 20 21  2  0
 21 22  1  0
  9 23  1  0
 23 24  1  0
 24  6  1  0
 22 18  1  0
  1 25  1  0
  1 26  1  0
  1 27  1  0
  2 28  1  0
  2 29  1  0
  3 30  1  0
  3 31  1  0
  7 32  1  0
  7 33  1  0
  8 34  1  0
  8 35  1  0
  9 36  1  0
 10 37  1  0
 10 38  1  0
 11 39  1  0
 11 40  1  0
 12 41  1  0
 15 42  1  0
 16 43  1  0
 16 44  1  0
 16 45  1  0
 17 46  1  0
 17 47  1  0
 19 48  1  0
 21 49  1  0
 22 50  1  0
 23 51  1  0
 23 52  1  0
 24 53  1  0
 24 54  1  0
M  END
>  <Energy>  (238) 
334.17105167478792

>  <compound_id>  (238) 
18258

>  <target_id>  (238) 
1

>  <reference_id>  (238) 
64

>  <inspiration_ids>  (238) 
[46, 64]

>  <energy_score>  (238) 
309.2344295510187

>  <distance_score>  (238) 
2.486739285497175

>  <path>  (238) 
/opt/xchem-fragalysis-2/maxwin/BulkDock/SCRATCH/511013/C18258-P64/C18258-P64.minimised.mol

>  <scratch_subdir>  (238) 
/opt/xchem-fragalysis-2/maxwin/BulkDock/SCRATCH/511013/C18258-P64

>  <fragmenstein_runtime>  (238) 
12.214820146560669

>  <fragmenstein_outcome>  (238) 
too moved

>  <fragmenstein_mode>  (238) 
expansion

>  <fragmenstein_error>  (238) 


$$$$
C18259-P46
     RDKit          3D

 56 57  0  0  0  0  0  0  0  0999 V2000
  -14.8340  -25.9951   26.0484 C   0  0  0  0  0  0  0  0  0  0  0  0
  -14.2828  -24.7872   25.2926 C   0  0  0  0  0  0  0  0  0  0  0  0
  -12.9591  -24.1292   25.7826 C   0  0  0  0  0  0  0  0  0  0  0  0
  -11.6639  -24.8769   25.5371 C   0  0  0  0  0  0  0  0  0  0  0  0
  -11.8558  -26.3530   25.3133 C   0  0  0  0  0  0  0  0  0  0  0  0
  -13.0410  -23.7816   27.1807 N   0  0  0  0  0  0  0  0  0  0  0  0
  -12.2097  -22.9018   27.9980 C   0  0  0  0  0  0  0  0  0  0  0  0
  -11.2990  -22.1942   27.6993 O   0  0  0  0  0  0  0  0  0  0  0  0
  -12.7893  -22.9477   29.3893 C   0  0  0  0  0  0  0  0  0  0  0  0
  -12.6503  -21.8255   30.3769 N   0  0  0  0  0  0  0  0  0  0  0  0
  -13.5217  -22.0425   31.5554 C   0  0  0  0  0  0  0  0  0  0  0  0
  -13.4634  -21.3578   32.8986 C   0  0  0  0  0  0  0  0  0  0  0  0
  -12.0323  -21.0254   33.1961 C   0  0  0  0  0  0  0  0  0  0  0  0
  -11.0468  -21.8536   32.3365 C   0  0  0  0  0  0  0  0  0  0  0  0
  -10.8896  -23.2237   32.9985 C   0  0  0  0  0  0  0  0  0  0  0  0
  -10.9163  -24.4844   32.3610 N   0  0  0  0  0  0  0  0  0  0  0  0
   -9.8592  -25.3378   31.9389 C   0  0  0  0  0  0  0  0  0  0  0  0
   -8.6788  -25.1733   31.9417 O   0  0  0  0  0  0  0  0  0  0  0  0
  -10.4091  -26.6923   31.5234 C   0  0  0  0  0  0  0  0  0  0  0  0
  -10.9508  -26.6765   30.1731 C   0  0  0  0  0  0  0  0  0  0  0  0
  -10.8509  -25.8172   29.1193 C   0  0  0  0  0  0  0  0  0  0  0  0
  -11.7522  -26.1847   28.1729 N   0  0  0  0  0  0  0  0  0  0  0  0
  -12.2242  -27.3499   28.5321 C   0  0  0  0  0  0  0  0  0  0  0  0
  -11.7436  -27.6957   29.7444 N   0  0  0  0  0  0  0  0  0  0  0  0
  -11.2877  -21.8760   30.8402 C   0  0  0  0  0  0  0  0  0  0  0  0
  -14.5404  -26.0362   27.0970 H   0  0  0  0  0  0  0  0  0  0  0  0
  -14.5153  -26.9232   25.5771 H   0  0  0  0  0  0  0  0  0  0  0  0
  -15.9277  -26.0054   25.9858 H   0  0  0  0  0  0  0  0  0  0  0  0
  -14.2014  -25.0754   24.2436 H   0  0  0  0  0  0  0  0  0  0  0  0
  -15.0736  -24.0347   25.2661 H   0  0  0  0  0  0  0  0  0  0  0  0
  -12.8466  -23.1899   25.2350 H   0  0  0  0  0  0  0  0  0  0  0  0
  -10.9829  -24.7090   26.3756 H   0  0  0  0  0  0  0  0  0  0  0  0
  -11.1408  -24.4289   24.6881 H   0  0  0  0  0  0  0  0  0  0  0  0
  -10.9267  -26.9176   25.2945 H   0  0  0  0  0  0  0  0  0  0  0  0
  -12.3933  -26.5788   24.3978 H   0  0  0  0  0  0  0  0  0  0  0  0
  -12.4531  -26.7644   26.1095 H   0  0  0  0  0  0  0  0  0  0  0  0
  -13.6685  -24.2975   27.7812 H   0  0  0  0  0  0  0  0  0  0  0  0
  -12.4418  -23.8930   29.8149 H   0  0  0  0  0  0  0  0  0  0  0  0
  -13.8478  -23.0033   29.1686 H   0  0  0  0  0  0  0  0  0  0  0  0
  -14.5711  -22.0277   31.2430 H   0  0  0  0  0  0  0  0  0  0  0  0
  -13.1336  -22.9778   31.9277 H   0  0  0  0  0  0  0  0  0  0  0  0
  -14.1714  -20.5377   33.0164 H   0  0  0  0  0  0  0  0  0  0  0  0
  -13.8174  -22.0771   33.6541 H   0  0  0  0  0  0  0  0  0  0  0  0
  -11.9316  -21.2095   34.2662 H   0  0  0  0  0  0  0  0  0  0  0  0
  -11.7960  -19.9705   33.0922 H   0  0  0  0  0  0  0  0  0  0  0  0
  -10.0808  -21.3518   32.3978 H   0  0  0  0  0  0  0  0  0  0  0  0
  -11.5598  -23.3409   33.8550 H   0  0  0  0  0  0  0  0  0  0  0  0
   -9.8482  -23.2075   33.3231 H   0  0  0  0  0  0  0  0  0  0  0  0
  -11.7966  -24.9878   32.2891 H   0  0  0  0  0  0  0  0  0  0  0  0
  -11.1681  -27.0080   32.2462 H   0  0  0  0  0  0  0  0  0  0  0  0
   -9.6344  -27.4568   31.5525 H   0  0  0  0  0  0  0  0  0  0  0  0
  -10.2625  -24.9127   29.0343 H   0  0  0  0  0  0  0  0  0  0  0  0
  -12.9565  -27.9361   28.0019 H   0  0  0  0  0  0  0  0  0  0  0  0
  -12.0250  -28.4908   30.2966 H   0  0  0  0  0  0  0  0  0  0  0  0
  -10.8727  -22.8130   30.4931 H   0  0  0  0  0  0  0  0  0  0  0  0
  -10.7435  -21.0771   30.3418 H   0  0  0  0  0  0  0  0  0  0  0  0
  1  2  1  0
  2  3  1  0
  3  4  1  0
  4  5  1  0
  3  6  1  0
  6  7  1  0
  7  8  2  0
  7  9  1  0
  9 10  1  0
 10 11  1  0
 11 12  1  0
 12 13  1  0
 13 14  1  0
 14 15  1  0
 15 16  1  0
 16 17  1  0
 17 18  2  0
 17 19  1  0
 19 20  1  0
 20 21  2  0
 21 22  1  0
 22 23  2  0
 23 24  1  0
 14 25  1  0
 25 10  1  0
 24 20  1  0
  1 26  1  0
  1 27  1  0
  1 28  1  0
  2 29  1  0
  2 30  1  0
  3 31  1  0
  4 32  1  0
  4 33  1  0
  5 34  1  0
  5 35  1  0
  5 36  1  0
  6 37  1  0
  9 38  1  0
  9 39  1  0
 11 40  1  0
 11 41  1  0
 12 42  1  0
 12 43  1  0
 13 44  1  0
 13 45  1  0
 14 46  1  0
 15 47  1  0
 15 48  1  0
 16 49  1  0
 19 50  1  0
 19 51  1  0
 21 52  1  0
 23 53  1  0
 24 54  1  0
 25 55  1  0
 25 56  1  0
M  END
>  <Energy>  (239) 
124.84165280997055

>  <compound_id>  (239) 
18259

>  <target_id>  (239) 
1

>  <reference_id>  (239) 
46

>  <inspiration_ids>  (239) 
[46, 64]

>  <energy_score>  (239) 
45.73948915579041

>  <distance_score>  (239) 
3.1942212742365728

>  <path>  (239) 
/opt/xchem-fragalysis-2/maxwin/BulkDock/SCRATCH/511013/C18259-P46/C18259-P46.minimised.mol

>  <scratch_subdir>  (239) 
/opt/xchem-fragalysis-2/maxwin/BulkDock/SCRATCH/511013/C18259-P46

>  <fragmenstein_runtime>  (239) 
12.209697484970093

>  <fragmenstein_outcome>  (239) 
too moved

>  <fragmenstein_mode>  (239) 
expansion

>  <fragmenstein_error>  (239) 


$$$$
C18259-P64
     RDKit          3D

 56 57  0  0  0  0  0  0  0  0999 V2000
  -17.1814  -26.1370   30.6312 C   0  0  0  0  0  0  0  0  0  0  0  0
  -18.0552  -26.2719   31.8486 C   0  0  0  0  0  0  0  0  0  0  0  0
  -18.1103  -25.0927   32.8271 C   0  0  0  0  0  0  0  0  0  0  0  0
  -18.9344  -23.9146   32.2964 C   0  0  0  0  0  0  0  0  0  0  0  0
  -18.9066  -22.6843   33.1908 C   0  0  0  0  0  0  0  0  0  0  0  0
  -16.7813  -24.7989   33.2877 N   0  0  0  0  0  0  0  0  0  0  0  0
  -15.5637  -25.7345   33.5140 C   0  0  0  0  0  0  0  0  0  0  0  0
  -15.4317  -26.8740   33.2874 O   0  0  0  0  0  0  0  0  0  0  0  0
  -14.4778  -24.9392   34.2351 C   0  0  0  0  0  0  0  0  0  0  0  0
  -13.6117  -24.0376   33.4709 N   0  0  0  0  0  0  0  0  0  0  0  0
  -14.1389  -22.7332   33.2105 C   0  0  0  0  0  0  0  0  0  0  0  0
  -13.0765  -21.7887   32.6815 C   0  0  0  0  0  0  0  0  0  0  0  0
  -11.9967  -22.4160   31.7780 C   0  0  0  0  0  0  0  0  0  0  0  0
  -11.2777  -23.5112   32.5430 C   0  0  0  0  0  0  0  0  0  0  0  0
  -10.3062  -24.5324   31.8863 C   0  0  0  0  0  0  0  0  0  0  0  0
  -10.6078  -25.2817   30.6992 N   0  0  0  0  0  0  0  0  0  0  0  0
  -10.0615  -25.1452   29.2595 C   0  0  0  0  0  0  0  0  0  0  0  0
   -9.3406  -24.3551   28.7971 O   0  0  0  0  0  0  0  0  0  0  0  0
  -10.5025  -26.3117   28.4076 C   0  0  0  0  0  0  0  0  0  0  0  0
  -11.4358  -25.8374   27.3659 C   0  0  0  0  0  0  0  0  0  0  0  0
  -11.9703  -24.5940   27.0924 C   0  0  0  0  0  0  0  0  0  0  0  0
  -12.8711  -24.6751   26.0711 N   0  0  0  0  0  0  0  0  0  0  0  0
  -12.8434  -25.9255   25.6853 C   0  0  0  0  0  0  0  0  0  0  0  0
  -11.9617  -26.6653   26.4128 N   0  0  0  0  0  0  0  0  0  0  0  0
  -12.1697  -24.0679   33.6905 C   0  0  0  0  0  0  0  0  0  0  0  0
  -17.1901  -27.0721   30.0605 H   0  0  0  0  0  0  0  0  0  0  0  0
  -16.1515  -25.9380   30.9029 H   0  0  0  0  0  0  0  0  0  0  0  0
  -17.5933  -25.3650   29.9799 H   0  0  0  0  0  0  0  0  0  0  0  0
  -19.0779  -26.4905   31.5128 H   0  0  0  0  0  0  0  0  0  0  0  0
  -17.7471  -27.1741   32.3923 H   0  0  0  0  0  0  0  0  0  0  0  0
  -18.6302  -25.4558   33.7239 H   0  0  0  0  0  0  0  0  0  0  0  0
  -19.9780  -24.2441   32.2046 H   0  0  0  0  0  0  0  0  0  0  0  0
  -18.6365  -23.6378   31.2849 H   0  0  0  0  0  0  0  0  0  0  0  0
  -19.6177  -21.9374   32.8230 H   0  0  0  0  0  0  0  0  0  0  0  0
  -17.9165  -22.2186   33.1997 H   0  0  0  0  0  0  0  0  0  0  0  0
  -19.1834  -22.9376   34.2190 H   0  0  0  0  0  0  0  0  0  0  0  0
  -16.5823  -23.8873   33.6734 H   0  0  0  0  0  0  0  0  0  0  0  0
  -13.8936  -25.7418   34.6911 H   0  0  0  0  0  0  0  0  0  0  0  0
  -14.9994  -24.4133   35.0209 H   0  0  0  0  0  0  0  0  0  0  0  0
  -14.9438  -22.8035   32.4695 H   0  0  0  0  0  0  0  0  0  0  0  0
  -14.6031  -22.2847   34.0932 H   0  0  0  0  0  0  0  0  0  0  0  0
  -13.6685  -21.0913   32.1131 H   0  0  0  0  0  0  0  0  0  0  0  0
  -12.5989  -21.2470   33.5061 H   0  0  0  0  0  0  0  0  0  0  0  0
  -12.4380  -22.7917   30.8525 H   0  0  0  0  0  0  0  0  0  0  0  0
  -11.2863  -21.6402   31.4677 H   0  0  0  0  0  0  0  0  0  0  0  0
  -10.5320  -22.9304   33.0648 H   0  0  0  0  0  0  0  0  0  0  0  0
  -10.1153  -25.3015   32.6391 H   0  0  0  0  0  0  0  0  0  0  0  0
   -9.3304  -24.0866   31.7364 H   0  0  0  0  0  0  0  0  0  0  0  0
  -11.2733  -26.0321   30.7356 H   0  0  0  0  0  0  0  0  0  0  0  0
  -10.9156  -27.1210   29.0047 H   0  0  0  0  0  0  0  0  0  0  0  0
   -9.5981  -26.7074   27.9334 H   0  0  0  0  0  0  0  0  0  0  0  0
  -11.7778  -23.6507   27.5907 H   0  0  0  0  0  0  0  0  0  0  0  0
  -13.4261  -26.3496   24.8810 H   0  0  0  0  0  0  0  0  0  0  0  0
  -11.7860  -27.6537   26.2608 H   0  0  0  0  0  0  0  0  0  0  0  0
  -12.0102  -23.4188   34.5494 H   0  0  0  0  0  0  0  0  0  0  0  0
  -11.8135  -25.0623   33.9785 H   0  0  0  0  0  0  0  0  0  0  0  0
  1  2  1  0
  2  3  1  0
  3  4  1  0
  4  5  1  0
  3  6  1  0
  6  7  1  0
  7  8  2  0
  7  9  1  0
  9 10  1  0
 10 11  1  0
 11 12  1  0
 12 13  1  0
 13 14  1  0
 14 15  1  0
 15 16  1  0
 16 17  1  0
 17 18  2  0
 17 19  1  0
 19 20  1  0
 20 21  2  0
 21 22  1  0
 22 23  2  0
 23 24  1  0
 14 25  1  0
 25 10  1  0
 24 20  1  0
  1 26  1  0
  1 27  1  0
  1 28  1  0
  2 29  1  0
  2 30  1  0
  3 31  1  0
  4 32  1  0
  4 33  1  0
  5 34  1  0
  5 35  1  0
  5 36  1  0
  6 37  1  0
  9 38  1  0
  9 39  1  0
 11 40  1  0
 11 41  1  0
 12 42  1  0
 12 43  1  0
 13 44  1  0
 13 45  1  0
 14 46  1  0
 15 47  1  0
 15 48  1  0
 16 49  1  0
 19 50  1  0
 19 51  1  0
 21 52  1  0
 23 53  1  0
 24 54  1  0
 25 55  1  0
 25 56  1  0
M  END
>  <Energy>  (240) 
106.2362488300371

>  <compound_id>  (240) 
18259

>  <target_id>  (240) 
1

>  <reference_id>  (240) 
64

>  <inspiration_ids>  (240) 
[46, 64]

>  <energy_score>  (240) 
17.74511100134771

>  <distance_score>  (240) 
3.5334420856677986

>  <path>  (240) 
/opt/xchem-fragalysis-2/maxwin/BulkDock/SCRATCH/511013/C18259-P64/C18259-P64.minimised.mol

>  <scratch_subdir>  (240) 
/opt/xchem-fragalysis-2/maxwin/BulkDock/SCRATCH/511013/C18259-P64

>  <fragmenstein_runtime>  (240) 
11.392307043075562

>  <fragmenstein_outcome>  (240) 
too moved

>  <fragmenstein_mode>  (240) 
expansion

>  <fragmenstein_error>  (240) 


$$$$
C18260-P46
     RDKit          3D

 53 54  0  0  0  0  0  0  0  0999 V2000
  -11.4697  -26.3227   26.9845 C   0  0  0  0  0  0  0  0  0  0  0  0
  -11.9656  -25.6281   25.7298 C   0  0  0  0  0  0  0  0  0  0  0  0
  -13.2143  -24.7976   25.9611 C   0  0  0  0  0  0  0  0  0  0  0  0
  -14.3540  -25.7625   26.3105 C   0  0  0  0  0  0  0  0  0  0  0  0
  -15.5839  -25.5498   25.4340 C   0  0  0  0  0  0  0  0  0  0  0  0
  -12.8242  -23.7091   26.8546 N   0  0  0  0  0  0  0  0  0  0  0  0
  -12.7316  -23.6517   28.2921 C   0  0  0  0  0  0  0  0  0  0  0  0
  -13.0280  -24.4553   29.1223 O   0  0  0  0  0  0  0  0  0  0  0  0
  -12.0203  -22.3125   28.7077 C   0  0  0  0  0  0  0  0  0  0  0  0
  -12.3024  -21.5680   30.0127 N   0  0  0  0  0  0  0  0  0  0  0  0
  -13.1553  -22.2326   30.9672 C   0  0  0  0  0  0  0  0  0  0  0  0
  -13.2645  -21.8585   32.4488 C   0  0  0  0  0  0  0  0  0  0  0  0
  -11.8911  -21.8280   33.0481 C   0  0  0  0  0  0  0  0  0  0  0  0
  -11.2857  -23.1141   33.1948 N   0  0  0  0  0  0  0  0  0  0  0  0
  -11.7995  -24.3280   33.6966 C   0  0  0  0  0  0  0  0  0  0  0  0
  -12.8442  -24.5781   34.1999 O   0  0  0  0  0  0  0  0  0  0  0  0
  -10.7065  -25.3794   33.5518 C   0  0  0  0  0  0  0  0  0  0  0  0
  -10.5230  -25.7121   32.1205 C   0  0  0  0  0  0  0  0  0  0  0  0
   -9.6385  -25.2353   31.1946 C   0  0  0  0  0  0  0  0  0  0  0  0
   -9.8418  -25.7666   29.9595 N   0  0  0  0  0  0  0  0  0  0  0  0
  -10.7792  -26.6634   30.1577 C   0  0  0  0  0  0  0  0  0  0  0  0
  -11.2224  -26.6618   31.4457 N   0  0  0  0  0  0  0  0  0  0  0  0
  -10.9624  -21.0529   32.1547 C   0  0  0  0  0  0  0  0  0  0  0  0
  -11.0493  -21.5185   30.7175 C   0  0  0  0  0  0  0  0  0  0  0  0
  -10.7411  -27.0940   26.7274 H   0  0  0  0  0  0  0  0  0  0  0  0
  -10.9674  -25.6022   27.6303 H   0  0  0  0  0  0  0  0  0  0  0  0
  -12.2743  -26.8086   27.5405 H   0  0  0  0  0  0  0  0  0  0  0  0
  -11.2048  -24.9526   25.3325 H   0  0  0  0  0  0  0  0  0  0  0  0
  -12.1506  -26.3794   24.9557 H   0  0  0  0  0  0  0  0  0  0  0  0
  -13.4661  -24.2851   25.0271 H   0  0  0  0  0  0  0  0  0  0  0  0
  -14.5597  -25.7667   27.3783 H   0  0  0  0  0  0  0  0  0  0  0  0
  -14.0612  -26.7987   26.1030 H   0  0  0  0  0  0  0  0  0  0  0  0
  -15.9160  -24.5095   25.4204 H   0  0  0  0  0  0  0  0  0  0  0  0
  -15.3634  -25.8416   24.4016 H   0  0  0  0  0  0  0  0  0  0  0  0
  -16.4110  -26.1769   25.7816 H   0  0  0  0  0  0  0  0  0  0  0  0
  -12.4014  -22.8710   26.4604 H   0  0  0  0  0  0  0  0  0  0  0  0
  -12.1195  -21.5749   27.9242 H   0  0  0  0  0  0  0  0  0  0  0  0
  -10.9565  -22.5883   28.6460 H   0  0  0  0  0  0  0  0  0  0  0  0
  -14.1704  -22.1649   30.5832 H   0  0  0  0  0  0  0  0  0  0  0  0
  -12.6779  -23.2113   31.0115 H   0  0  0  0  0  0  0  0  0  0  0  0
  -13.7906  -20.9213   32.5986 H   0  0  0  0  0  0  0  0  0  0  0  0
  -13.8897  -22.5729   32.9931 H   0  0  0  0  0  0  0  0  0  0  0  0
  -11.9871  -21.3955   34.0459 H   0  0  0  0  0  0  0  0  0  0  0  0
  -10.3904  -23.2911   32.7612 H   0  0  0  0  0  0  0  0  0  0  0  0
   -9.7694  -24.9820   33.9587 H   0  0  0  0  0  0  0  0  0  0  0  0
  -10.9276  -26.2378   34.1801 H   0  0  0  0  0  0  0  0  0  0  0  0
   -8.8476  -24.5487   31.4089 H   0  0  0  0  0  0  0  0  0  0  0  0
  -11.1899  -27.3351   29.4234 H   0  0  0  0  0  0  0  0  0  0  0  0
  -11.9897  -27.2021   31.8108 H   0  0  0  0  0  0  0  0  0  0  0  0
   -9.9159  -21.2116   32.3996 H   0  0  0  0  0  0  0  0  0  0  0  0
  -11.1327  -20.0193   32.3739 H   0  0  0  0  0  0  0  0  0  0  0  0
  -10.7560  -22.5630   30.7804 H   0  0  0  0  0  0  0  0  0  0  0  0
  -10.3745  -20.9689   30.0875 H   0  0  0  0  0  0  0  0  0  0  0  0
  1  2  1  0
  2  3  1  0
  3  4  1  0
  4  5  1  0
  3  6  1  0
  6  7  1  0
  7  8  2  0
  7  9  1  0
  9 10  1  0
 10 11  1  0
 11 12  1  0
 12 13  1  0
 13 14  1  0
 14 15  1  0
 15 16  2  0
 15 17  1  0
 17 18  1  0
 18 19  2  0
 19 20  1  0
 20 21  2  0
 21 22  1  0
 13 23  1  0
 23 24  1  0
 24 10  1  0
 22 18  1  0
  1 25  1  0
  1 26  1  0
  1 27  1  0
  2 28  1  0
  2 29  1  0
  3 30  1  0
  4 31  1  0
  4 32  1  0
  5 33  1  0
  5 34  1  0
  5 35  1  0
  6 36  1  0
  9 37  1  0
  9 38  1  0
 11 39  1  0
 11 40  1  0
 12 41  1  0
 12 42  1  0
 13 43  1  0
 14 44  1  0
 17 45  1  0
 17 46  1  0
 19 47  1  0
 21 48  1  0
 22 49  1  0
 23 50  1  0
 23 51  1  0
 24 52  1  0
 24 53  1  0
M  END
>  <Energy>  (241) 
91.815304000835837

>  <compound_id>  (241) 
18260

>  <target_id>  (241) 
1

>  <reference_id>  (241) 
46

>  <inspiration_ids>  (241) 
[46, 64]

>  <energy_score>  (241) 
10.345833715735864

>  <distance_score>  (241) 
3.870797841393849

>  <path>  (241) 
/opt/xchem-fragalysis-2/maxwin/BulkDock/SCRATCH/511013/C18260-P46/C18260-P46.minimised.mol

>  <scratch_subdir>  (241) 
/opt/xchem-fragalysis-2/maxwin/BulkDock/SCRATCH/511013/C18260-P46

>  <fragmenstein_runtime>  (241) 
9.298999071121216

>  <fragmenstein_outcome>  (241) 
too moved

>  <fragmenstein_mode>  (241) 
expansion

>  <fragmenstein_error>  (241) 


$$$$
C18260-P64
     RDKit          3D

 53 54  0  0  0  0  0  0  0  0999 V2000
  -15.5129  -23.4591   32.0373 C   0  0  0  0  0  0  0  0  0  0  0  0
  -14.4524  -22.5575   30.9415 C   0  0  0  0  0  0  0  0  0  0  0  0
  -12.9995  -22.8548   29.8280 C   0  0  0  0  0  0  0  0  0  0  0  0
  -12.6366  -23.8359   28.7044 C   0  0  0  0  0  0  0  0  0  0  0  0
  -11.6167  -23.3854   27.6484 C   0  0  0  0  0  0  0  0  0  0  0  0
  -12.1618  -22.2886   30.7466 N   0  0  0  0  0  0  0  0  0  0  0  0
  -11.2795  -21.2685   30.6368 C   0  0  0  0  0  0  0  0  0  0  0  0
  -10.9325  -20.6508   29.7069 O   0  0  0  0  0  0  0  0  0  0  0  0
  -10.8710  -20.9624   31.9858 C   0  0  0  0  0  0  0  0  0  0  0  0
  -12.0646  -20.6627   32.8500 N   0  0  0  0  0  0  0  0  0  0  0  0
  -13.4930  -21.1041   33.0662 C   0  0  0  0  0  0  0  0  0  0  0  0
  -13.6328  -22.4209   33.7959 C   0  0  0  0  0  0  0  0  0  0  0  0
  -12.3552  -22.4494   34.4761 C   0  0  0  0  0  0  0  0  0  0  0  0
  -11.4410  -23.1999   33.6404 N   0  0  0  0  0  0  0  0  0  0  0  0
  -11.2345  -24.6186   33.4988 C   0  0  0  0  0  0  0  0  0  0  0  0
  -11.8212  -25.5443   33.9735 O   0  0  0  0  0  0  0  0  0  0  0  0
   -9.9732  -24.7391   32.6552 C   0  0  0  0  0  0  0  0  0  0  0  0
  -10.0362  -25.3527   31.3488 C   0  0  0  0  0  0  0  0  0  0  0  0
  -10.2706  -24.8042   30.1321 C   0  0  0  0  0  0  0  0  0  0  0  0
  -10.1174  -25.6454   29.0949 N   0  0  0  0  0  0  0  0  0  0  0  0
   -9.8584  -26.7601   29.6993 C   0  0  0  0  0  0  0  0  0  0  0  0
   -9.6803  -26.6194   31.0427 N   0  0  0  0  0  0  0  0  0  0  0  0
  -12.1473  -20.7837   34.9804 C   0  0  0  0  0  0  0  0  0  0  0  0
  -11.8048  -19.7892   33.9425 C   0  0  0  0  0  0  0  0  0  0  0  0
  -16.1491  -22.7198   32.5456 H   0  0  0  0  0  0  0  0  0  0  0  0
  -15.0805  -24.0441   32.8488 H   0  0  0  0  0  0  0  0  0  0  0  0
  -16.1104  -24.2564   31.5730 H   0  0  0  0  0  0  0  0  0  0  0  0
  -13.8271  -22.4918   31.7500 H   0  0  0  0  0  0  0  0  0  0  0  0
  -14.8715  -21.5554   30.8304 H   0  0  0  0  0  0  0  0  0  0  0  0
  -12.8388  -22.0403   29.1436 H   0  0  0  0  0  0  0  0  0  0  0  0
  -12.1929  -24.6939   29.1328 H   0  0  0  0  0  0  0  0  0  0  0  0
  -13.4880  -24.2048   28.1509 H   0  0  0  0  0  0  0  0  0  0  0  0
  -10.8632  -22.7101   28.0541 H   0  0  0  0  0  0  0  0  0  0  0  0
  -12.0963  -22.9081   26.8033 H   0  0  0  0  0  0  0  0  0  0  0  0
  -11.1058  -24.2538   27.2188 H   0  0  0  0  0  0  0  0  0  0  0  0
  -12.1458  -22.6355   31.7014 H   0  0  0  0  0  0  0  0  0  0  0  0
  -10.1391  -21.7341   32.1382 H   0  0  0  0  0  0  0  0  0  0  0  0
  -10.2270  -20.1052   32.0266 H   0  0  0  0  0  0  0  0  0  0  0  0
  -14.0286  -20.3929   33.7272 H   0  0  0  0  0  0  0  0  0  0  0  0
  -14.1816  -20.8537   32.2802 H   0  0  0  0  0  0  0  0  0  0  0  0
  -14.5457  -22.4332   34.3954 H   0  0  0  0  0  0  0  0  0  0  0  0
  -13.5820  -23.3568   33.2705 H   0  0  0  0  0  0  0  0  0  0  0  0
  -12.2599  -23.0036   35.3787 H   0  0  0  0  0  0  0  0  0  0  0  0
  -10.8311  -22.7317   33.0522 H   0  0  0  0  0  0  0  0  0  0  0  0
   -9.4924  -23.7723   32.5013 H   0  0  0  0  0  0  0  0  0  0  0  0
   -9.2579  -25.1587   33.3411 H   0  0  0  0  0  0  0  0  0  0  0  0
  -10.5969  -23.8118   29.9705 H   0  0  0  0  0  0  0  0  0  0  0  0
   -9.6302  -27.6534   29.1908 H   0  0  0  0  0  0  0  0  0  0  0  0
   -9.2994  -27.2969   31.6939 H   0  0  0  0  0  0  0  0  0  0  0  0
  -11.6038  -20.7499   35.8886 H   0  0  0  0  0  0  0  0  0  0  0  0
  -13.0702  -20.3142   35.3431 H   0  0  0  0  0  0  0  0  0  0  0  0
  -12.4698  -18.9214   34.0663 H   0  0  0  0  0  0  0  0  0  0  0  0
  -10.8420  -19.3221   33.8637 H   0  0  0  0  0  0  0  0  0  0  0  0
  1  2  1  0
  2  3  1  0
  3  4  1  0
  4  5  1  0
  3  6  1  0
  6  7  1  0
  7  8  2  0
  7  9  1  0
  9 10  1  0
 10 11  1  0
 11 12  1  0
 12 13  1  0
 13 14  1  0
 14 15  1  0
 15 16  2  0
 15 17  1  0
 17 18  1  0
 18 19  2  0
 19 20  1  0
 20 21  2  0
 21 22  1  0
 13 23  1  0
 23 24  1  0
 24 10  1  0
 22 18  1  0
  1 25  1  0
  1 26  1  0
  1 27  1  0
  2 28  1  0
  2 29  1  0
  3 30  1  0
  4 31  1  0
  4 32  1  0
  5 33  1  0
  5 34  1  0
  5 35  1  0
  6 36  1  0
  9 37  1  0
  9 38  1  0
 11 39  1  0
 11 40  1  0
 12 41  1  0
 12 42  1  0
 13 43  1  0
 14 44  1  0
 17 45  1  0
 17 46  1  0
 19 47  1  0
 21 48  1  0
 22 49  1  0
 23 50  1  0
 23 51  1  0
 24 52  1  0
 24 53  1  0
M  END
>  <Energy>  (242) 
396.99363501811655

>  <compound_id>  (242) 
18260

>  <target_id>  (242) 
1

>  <reference_id>  (242) 
64

>  <inspiration_ids>  (242) 
[46, 64]

>  <energy_score>  (242) 
315.5241647330231

>  <distance_score>  (242) 
2.3630553504673055

>  <path>  (242) 
/opt/xchem-fragalysis-2/maxwin/BulkDock/SCRATCH/511013/C18260-P64/C18260-P64.minimised.mol

>  <scratch_subdir>  (242) 
/opt/xchem-fragalysis-2/maxwin/BulkDock/SCRATCH/511013/C18260-P64

>  <fragmenstein_runtime>  (242) 
9.600697040557861

>  <fragmenstein_outcome>  (242) 
too moved

>  <fragmenstein_mode>  (242) 
expansion

>  <fragmenstein_error>  (242) 


$$$$
C18261-P46
     RDKit          3D

 43 44  0  0  0  0  0  0  0  0999 V2000
  -12.7205  -20.8095   23.5676 C   0  0  0  0  0  0  0  0  0  0  0  0
  -12.0369  -22.1039   23.2176 C   0  0  0  0  0  0  0  0  0  0  0  0
  -10.7542  -21.7175   22.6094 C   0  0  0  0  0  0  0  0  0  0  0  0
   -9.8137  -21.2675   22.1007 N   0  0  0  0  0  0  0  0  0  0  0  0
  -11.8199  -23.2109   24.3165 C   0  0  0  0  0  0  0  0  0  0  0  0
  -10.7605  -23.7615   24.3115 O   0  0  0  0  0  0  0  0  0  0  0  0
  -12.9775  -23.4466   25.0962 N   0  0  0  0  0  0  0  0  0  0  0  0
  -13.2776  -24.4793   26.0593 C   0  0  0  0  0  0  0  0  0  0  0  0
  -12.6493  -24.1603   27.4180 C   0  0  0  0  0  0  0  0  0  0  0  0
  -11.2587  -24.7741   27.6535 C   0  0  0  0  0  0  0  0  0  0  0  0
  -10.7426  -24.4183   29.0274 C   0  0  0  0  0  0  0  0  0  0  0  0
  -11.2388  -25.4496   29.9854 C   0  0  0  0  0  0  0  0  0  0  0  0
  -11.2861  -26.8717   29.3722 C   0  0  0  0  0  0  0  0  0  0  0  0
  -11.9819  -27.3291   28.0356 N   0  0  0  0  0  0  0  0  0  0  0  0
  -13.3868  -27.3288   28.1848 C   0  0  0  0  0  0  0  0  0  0  0  0
  -14.1892  -26.4694   27.9734 O   0  0  0  0  0  0  0  0  0  0  0  0
  -13.9073  -28.5854   28.6756 C   0  0  0  0  0  0  0  0  0  0  0  0
  -15.1653  -28.8179   29.1980 C   0  0  0  0  0  0  0  0  0  0  0  0
  -15.2706  -30.0934   29.6755 N   0  0  0  0  0  0  0  0  0  0  0  0
  -14.1357  -30.6694   29.3619 C   0  0  0  0  0  0  0  0  0  0  0  0
  -13.2987  -29.8047   28.7266 N   0  0  0  0  0  0  0  0  0  0  0  0
  -11.0688  -26.3093   27.4674 C   0  0  0  0  0  0  0  0  0  0  0  0
  -13.7657  -20.9377   23.8472 H   0  0  0  0  0  0  0  0  0  0  0  0
  -12.7087  -20.0960   22.7342 H   0  0  0  0  0  0  0  0  0  0  0  0
  -12.1591  -20.3688   24.3777 H   0  0  0  0  0  0  0  0  0  0  0  0
  -12.6524  -22.5551   22.4443 H   0  0  0  0  0  0  0  0  0  0  0  0
  -13.6641  -22.7298   24.8908 H   0  0  0  0  0  0  0  0  0  0  0  0
  -12.9163  -25.4241   25.6488 H   0  0  0  0  0  0  0  0  0  0  0  0
  -14.3630  -24.5598   26.1163 H   0  0  0  0  0  0  0  0  0  0  0  0
  -13.3231  -24.4430   28.2268 H   0  0  0  0  0  0  0  0  0  0  0  0
  -12.5553  -23.0725   27.5287 H   0  0  0  0  0  0  0  0  0  0  0  0
  -10.6062  -24.2737   26.9316 H   0  0  0  0  0  0  0  0  0  0  0  0
   -9.6554  -24.4551   29.0505 H   0  0  0  0  0  0  0  0  0  0  0  0
  -11.0448  -23.4100   29.3288 H   0  0  0  0  0  0  0  0  0  0  0  0
  -10.5958  -25.4720   30.8746 H   0  0  0  0  0  0  0  0  0  0  0  0
  -12.1831  -25.0775   30.3387 H   0  0  0  0  0  0  0  0  0  0  0  0
  -10.2576  -27.2639   29.3852 H   0  0  0  0  0  0  0  0  0  0  0  0
  -11.7565  -27.5040   30.1379 H   0  0  0  0  0  0  0  0  0  0  0  0
  -15.9758  -28.1036   29.2977 H   0  0  0  0  0  0  0  0  0  0  0  0
  -13.8755  -31.7026   29.5529 H   0  0  0  0  0  0  0  0  0  0  0  0
  -12.4046  -30.0301   28.3175 H   0  0  0  0  0  0  0  0  0  0  0  0
  -10.0270  -26.6302   27.5715 H   0  0  0  0  0  0  0  0  0  0  0  0
  -11.2440  -26.4703   26.3955 H   0  0  0  0  0  0  0  0  0  0  0  0
  1  2  1  0
  2  3  1  0
  3  4  3  0
  2  5  1  0
  5  6  2  0
  5  7  1  0
  7  8  1  0
  8  9  1  0
  9 10  1  0
 10 11  1  0
 11 12  1  0
 12 13  1  0
 13 14  1  0
 14 15  1  0
 15 16  2  0
 15 17  1  0
 17 18  2  0
 18 19  1  0
 19 20  2  0
 20 21  1  0
 14 22  1  0
 22 10  1  0
 21 17  1  0
  1 23  1  0
  1 24  1  0
  1 25  1  0
  2 26  1  0
  7 27  1  0
  8 28  1  0
  8 29  1  0
  9 30  1  0
  9 31  1  0
 10 32  1  0
 11 33  1  0
 11 34  1  0
 12 35  1  0
 12 36  1  0
 13 37  1  0
 13 38  1  0
 18 39  1  0
 20 40  1  0
 21 41  1  0
 22 42  1  0
 22 43  1  0
M  END
>  <Energy>  (243) 
59.311196130224403

>  <compound_id>  (243) 
18261

>  <target_id>  (243) 
1

>  <reference_id>  (243) 
46

>  <inspiration_ids>  (243) 
[46, 64]

>  <energy_score>  (243) 
54.3365490326463

>  <distance_score>  (243) 
6.661397157518868

>  <path>  (243) 
/opt/xchem-fragalysis-2/maxwin/BulkDock/SCRATCH/511013/C18261-P46/C18261-P46.minimised.mol

>  <scratch_subdir>  (243) 
/opt/xchem-fragalysis-2/maxwin/BulkDock/SCRATCH/511013/C18261-P46

>  <fragmenstein_runtime>  (243) 
6.095607757568359

>  <fragmenstein_outcome>  (243) 
too moved

>  <fragmenstein_mode>  (243) 
expansion

>  <fragmenstein_error>  (243) 


$$$$
C18261-P64
     RDKit          3D

 43 44  0  0  0  0  0  0  0  0999 V2000
  -11.1152  -26.7065   26.4845 C   0  0  0  0  0  0  0  0  0  0  0  0
  -10.1092  -26.2159   27.5184 C   0  0  0  0  0  0  0  0  0  0  0  0
   -9.8577  -24.8092   27.4378 C   0  0  0  0  0  0  0  0  0  0  0  0
   -9.4316  -23.7931   27.7892 N   0  0  0  0  0  0  0  0  0  0  0  0
  -10.4092  -26.4825   28.9858 C   0  0  0  0  0  0  0  0  0  0  0  0
  -11.1073  -27.4278   29.2162 O   0  0  0  0  0  0  0  0  0  0  0  0
   -9.7035  -25.5768   29.8887 N   0  0  0  0  0  0  0  0  0  0  0  0
   -9.5540  -25.5990   31.3103 C   0  0  0  0  0  0  0  0  0  0  0  0
  -10.7634  -25.1129   32.0408 C   0  0  0  0  0  0  0  0  0  0  0  0
  -10.8753  -23.8546   32.8744 C   0  0  0  0  0  0  0  0  0  0  0  0
  -12.1464  -23.8899   33.7205 C   0  0  0  0  0  0  0  0  0  0  0  0
  -13.3060  -23.0996   33.1038 C   0  0  0  0  0  0  0  0  0  0  0  0
  -12.9433  -22.3923   31.7537 C   0  0  0  0  0  0  0  0  0  0  0  0
  -11.6199  -22.7020   30.9807 N   0  0  0  0  0  0  0  0  0  0  0  0
  -11.5383  -21.9402   29.8443 C   0  0  0  0  0  0  0  0  0  0  0  0
  -11.0608  -20.8701   29.6686 O   0  0  0  0  0  0  0  0  0  0  0  0
  -12.0487  -22.6772   28.7333 C   0  0  0  0  0  0  0  0  0  0  0  0
  -11.7590  -22.4996   27.4078 C   0  0  0  0  0  0  0  0  0  0  0  0
  -12.2211  -23.5115   26.6031 N   0  0  0  0  0  0  0  0  0  0  0  0
  -12.7895  -24.3252   27.4433 C   0  0  0  0  0  0  0  0  0  0  0  0
  -12.5369  -23.9365   28.7224 N   0  0  0  0  0  0  0  0  0  0  0  0
  -11.0750  -22.5055   32.2605 C   0  0  0  0  0  0  0  0  0  0  0  0
  -10.6646  -27.4743   25.8490 H   0  0  0  0  0  0  0  0  0  0  0  0
  -12.0108  -27.1398   26.9360 H   0  0  0  0  0  0  0  0  0  0  0  0
  -11.4162  -25.9271   25.7770 H   0  0  0  0  0  0  0  0  0  0  0  0
   -9.1794  -26.7668   27.3613 H   0  0  0  0  0  0  0  0  0  0  0  0
   -9.1394  -24.9374   29.3441 H   0  0  0  0  0  0  0  0  0  0  0  0
   -9.4415  -26.6689   31.4773 H   0  0  0  0  0  0  0  0  0  0  0  0
   -8.6496  -25.0732   31.6064 H   0  0  0  0  0  0  0  0  0  0  0  0
  -11.4899  -25.0145   31.2716 H   0  0  0  0  0  0  0  0  0  0  0  0
  -10.9500  -25.9125   32.7585 H   0  0  0  0  0  0  0  0  0  0  0  0
   -9.9059  -23.8864   33.3504 H   0  0  0  0  0  0  0  0  0  0  0  0
  -12.4403  -24.9017   33.9829 H   0  0  0  0  0  0  0  0  0  0  0  0
  -11.9668  -23.3688   34.6542 H   0  0  0  0  0  0  0  0  0  0  0  0
  -13.5993  -22.2992   33.7945 H   0  0  0  0  0  0  0  0  0  0  0  0
  -14.2208  -23.6972   33.0635 H   0  0  0  0  0  0  0  0  0  0  0  0
  -12.9865  -21.3215   31.9654 H   0  0  0  0  0  0  0  0  0  0  0  0
  -13.7771  -22.4495   31.0517 H   0  0  0  0  0  0  0  0  0  0  0  0
  -11.2455  -21.6490   27.0091 H   0  0  0  0  0  0  0  0  0  0  0  0
  -13.3352  -25.2115   27.1513 H   0  0  0  0  0  0  0  0  0  0  0  0
  -12.5621  -24.4977   29.5575 H   0  0  0  0  0  0  0  0  0  0  0  0
  -10.0983  -22.1197   32.0316 H   0  0  0  0  0  0  0  0  0  0  0  0
  -11.4123  -21.6645   32.8891 H   0  0  0  0  0  0  0  0  0  0  0  0
  1  2  1  0
  2  3  1  0
  3  4  3  0
  2  5  1  0
  5  6  2  0
  5  7  1  0
  7  8  1  0
  8  9  1  0
  9 10  1  0
 10 11  1  0
 11 12  1  0
 12 13  1  0
 13 14  1  0
 14 15  1  0
 15 16  2  0
 15 17  1  0
 17 18  2  0
 18 19  1  0
 19 20  2  0
 20 21  1  0
 14 22  1  0
 22 10  1  0
 21 17  1  0
  1 23  1  0
  1 24  1  0
  1 25  1  0
  2 26  1  0
  7 27  1  0
  8 28  1  0
  8 29  1  0
  9 30  1  0
  9 31  1  0
 10 32  1  0
 11 33  1  0
 11 34  1  0
 12 35  1  0
 12 36  1  0
 13 37  1  0
 13 38  1  0
 18 39  1  0
 20 40  1  0
 21 41  1  0
 22 42  1  0
 22 43  1  0
M  END
>  <Energy>  (244) 
124.46135318148222

>  <compound_id>  (244) 
18261

>  <target_id>  (244) 
1

>  <reference_id>  (244) 
64

>  <inspiration_ids>  (244) 
[46, 64]

>  <energy_score>  (244) 
119.48670608390631

>  <distance_score>  (244) 
2.844249031449842

>  <path>  (244) 
/opt/xchem-fragalysis-2/maxwin/BulkDock/SCRATCH/511013/C18261-P64/C18261-P64.minimised.mol

>  <scratch_subdir>  (244) 
/opt/xchem-fragalysis-2/maxwin/BulkDock/SCRATCH/511013/C18261-P64

>  <fragmenstein_runtime>  (244) 
7.937737226486206

>  <fragmenstein_outcome>  (244) 
too moved

>  <fragmenstein_mode>  (244) 
expansion

>  <fragmenstein_error>  (244) 


$$$$
C18262-P46
     RDKit          3D

 49 50  0  0  0  0  0  0  0  0999 V2000
  -12.6965  -25.4538   27.7342 C   0  0  0  0  0  0  0  0  0  0  0  0
  -12.9587  -24.1456   28.5045 C   0  0  0  0  0  0  0  0  0  0  0  0
  -12.1533  -23.8067   29.8075 C   0  0  0  0  0  0  0  0  0  0  0  0
  -10.5200  -24.3941   29.4841 S   0  0  0  0  0  0  0  0  0  0  0  0
  -10.2251  -23.3406   28.0753 C   0  0  0  0  0  0  0  0  0  0  0  0
  -12.4379  -22.2969   30.2235 C   0  0  0  0  0  0  0  0  0  0  0  0
  -12.0171  -21.3552   29.5476 O   0  0  0  0  0  0  0  0  0  0  0  0
  -13.2766  -21.9694   31.3155 N   0  0  0  0  0  0  0  0  0  0  0  0
  -14.7313  -21.8867   31.1307 C   0  0  0  0  0  0  0  0  0  0  0  0
  -12.7474  -21.7009   32.6581 C   0  0  0  0  0  0  0  0  0  0  0  0
  -13.6932  -21.0595   33.7517 C   0  0  0  0  0  0  0  0  0  0  0  0
  -12.9586  -20.1164   34.7097 C   0  0  0  0  0  0  0  0  0  0  0  0
  -13.9586  -19.2072   35.4646 C   0  0  0  0  0  0  0  0  0  0  0  0
  -15.5063  -19.5168   35.2387 C   0  0  0  0  0  0  0  0  0  0  0  0
  -16.0244  -20.6989   34.3592 N   0  0  0  0  0  0  0  0  0  0  0  0
  -17.4284  -20.6294   34.2255 C   0  0  0  0  0  0  0  0  0  0  0  0
  -18.1077  -20.0879   33.3979 O   0  0  0  0  0  0  0  0  0  0  0  0
  -18.0366  -21.4451   35.2336 C   0  0  0  0  0  0  0  0  0  0  0  0
  -17.5288  -22.5903   35.8118 C   0  0  0  0  0  0  0  0  0  0  0  0
  -18.4698  -23.2222   36.5680 N   0  0  0  0  0  0  0  0  0  0  0  0
  -19.5604  -22.5086   36.4110 C   0  0  0  0  0  0  0  0  0  0  0  0
  -19.3502  -21.4279   35.6048 N   0  0  0  0  0  0  0  0  0  0  0  0
  -14.9727  -20.2374   33.4907 C   0  0  0  0  0  0  0  0  0  0  0  0
  -11.9289  -25.3316   26.9660 H   0  0  0  0  0  0  0  0  0  0  0  0
  -13.6073  -25.7482   27.2001 H   0  0  0  0  0  0  0  0  0  0  0  0
  -12.4031  -26.2921   28.3706 H   0  0  0  0  0  0  0  0  0  0  0  0
  -14.0133  -24.1472   28.7365 H   0  0  0  0  0  0  0  0  0  0  0  0
  -12.8678  -23.3202   27.7873 H   0  0  0  0  0  0  0  0  0  0  0  0
  -12.3506  -24.4361   30.6601 H   0  0  0  0  0  0  0  0  0  0  0  0
  -10.4152  -23.8713   27.1422 H   0  0  0  0  0  0  0  0  0  0  0  0
  -10.8028  -22.4216   28.0591 H   0  0  0  0  0  0  0  0  0  0  0  0
   -9.1815  -23.0451   28.1274 H   0  0  0  0  0  0  0  0  0  0  0  0
  -15.2753  -22.2803   31.9949 H   0  0  0  0  0  0  0  0  0  0  0  0
  -15.0287  -22.4724   30.2854 H   0  0  0  0  0  0  0  0  0  0  0  0
  -15.0903  -20.8980   30.8708 H   0  0  0  0  0  0  0  0  0  0  0  0
  -11.8505  -21.0852   32.5239 H   0  0  0  0  0  0  0  0  0  0  0  0
  -12.3713  -22.6587   33.0413 H   0  0  0  0  0  0  0  0  0  0  0  0
  -14.0290  -21.9499   34.2949 H   0  0  0  0  0  0  0  0  0  0  0  0
  -12.2580  -19.4723   34.1663 H   0  0  0  0  0  0  0  0  0  0  0  0
  -12.3453  -20.6812   35.4026 H   0  0  0  0  0  0  0  0  0  0  0  0
  -13.7236  -19.1503   36.5319 H   0  0  0  0  0  0  0  0  0  0  0  0
  -13.7915  -18.1748   35.1220 H   0  0  0  0  0  0  0  0  0  0  0  0
  -16.0108  -18.5895   34.9030 H   0  0  0  0  0  0  0  0  0  0  0  0
  -15.9802  -19.6556   36.2210 H   0  0  0  0  0  0  0  0  0  0  0  0
  -16.5475  -23.0157   35.6595 H   0  0  0  0  0  0  0  0  0  0  0  0
  -20.5270  -22.7286   36.8449 H   0  0  0  0  0  0  0  0  0  0  0  0
  -20.0475  -20.7722   35.2785 H   0  0  0  0  0  0  0  0  0  0  0  0
  -15.4470  -20.4155   32.5475 H   0  0  0  0  0  0  0  0  0  0  0  0
  -14.8559  -19.1754   33.3650 H   0  0  0  0  0  0  0  0  0  0  0  0
  1  2  1  0
  2  3  1  0
  3  4  1  0
  4  5  1  0
  3  6  1  0
  6  7  2  0
  6  8  1  0
  8  9  1  0
  8 10  1  0
 10 11  1  0
 11 12  1  0
 12 13  1  0
 13 14  1  0
 14 15  1  0
 15 16  1  0
 16 17  2  0
 16 18  1  0
 18 19  2  0
 19 20  1  0
 20 21  2  0
 21 22  1  0
 15 23  1  0
 23 11  1  0
 22 18  1  0
  1 24  1  0
  1 25  1  0
  1 26  1  0
  2 27  1  0
  2 28  1  0
  3 29  1  0
  5 30  1  0
  5 31  1  0
  5 32  1  0
  9 33  1  0
  9 34  1  0
  9 35  1  0
 10 36  1  0
 10 37  1  0
 11 38  1  0
 12 39  1  0
 12 40  1  0
 13 41  1  0
 13 42  1  0
 14 43  1  0
 14 44  1  0
 19 45  1  0
 21 46  1  0
 22 47  1  0
 23 48  1  0
 23 49  1  0
M  END
>  <Energy>  (245) 
157.73485125810873

>  <compound_id>  (245) 
18262

>  <target_id>  (245) 
1

>  <reference_id>  (245) 
46

>  <inspiration_ids>  (245) 
[46, 64]

>  <energy_score>  (245) 
71.33618897071801

>  <distance_score>  (245) 
6.08603348866874

>  <path>  (245) 
/opt/xchem-fragalysis-2/maxwin/BulkDock/SCRATCH/511013/C18262-P46/C18262-P46.minimised.mol

>  <scratch_subdir>  (245) 
/opt/xchem-fragalysis-2/maxwin/BulkDock/SCRATCH/511013/C18262-P46

>  <fragmenstein_runtime>  (245) 
8.880606174468994

>  <fragmenstein_outcome>  (245) 
too moved

>  <fragmenstein_mode>  (245) 
expansion

>  <fragmenstein_error>  (245) 


$$$$
C18262-P64
     RDKit          3D

 49 50  0  0  0  0  0  0  0  0999 V2000
   -9.4816  -27.5970   31.1979 C   0  0  0  0  0  0  0  0  0  0  0  0
   -9.9304  -26.8520   29.9835 C   0  0  0  0  0  0  0  0  0  0  0  0
   -9.7059  -25.3634   30.1141 C   0  0  0  0  0  0  0  0  0  0  0  0
   -9.7939  -24.6332   28.5101 S   0  0  0  0  0  0  0  0  0  0  0  0
  -10.3614  -25.9537   27.3877 C   0  0  0  0  0  0  0  0  0  0  0  0
   -9.6499  -24.8034   31.5435 C   0  0  0  0  0  0  0  0  0  0  0  0
   -8.6967  -25.2260   32.2046 O   0  0  0  0  0  0  0  0  0  0  0  0
  -10.4429  -24.0447   32.3156 N   0  0  0  0  0  0  0  0  0  0  0  0
  -10.1283  -22.7334   32.3453 C   0  0  0  0  0  0  0  0  0  0  0  0
  -11.5909  -24.4131   33.1339 C   0  0  0  0  0  0  0  0  0  0  0  0
  -12.6042  -23.2656   33.6910 C   0  0  0  0  0  0  0  0  0  0  0  0
  -14.0872  -23.6914   33.7278 C   0  0  0  0  0  0  0  0  0  0  0  0
  -14.9758  -22.8815   32.7490 C   0  0  0  0  0  0  0  0  0  0  0  0
  -14.1778  -22.0341   31.6612 C   0  0  0  0  0  0  0  0  0  0  0  0
  -12.7373  -22.4227   31.5001 N   0  0  0  0  0  0  0  0  0  0  0  0
  -12.1694  -21.8456   30.2946 C   0  0  0  0  0  0  0  0  0  0  0  0
  -11.6052  -20.8040   30.1257 O   0  0  0  0  0  0  0  0  0  0  0  0
  -12.1798  -22.6389   29.0929 C   0  0  0  0  0  0  0  0  0  0  0  0
  -11.6297  -22.3597   27.8578 C   0  0  0  0  0  0  0  0  0  0  0  0
  -11.9746  -23.2726   26.8897 N   0  0  0  0  0  0  0  0  0  0  0  0
  -12.6798  -24.1526   27.5380 C   0  0  0  0  0  0  0  0  0  0  0  0
  -12.6271  -23.8834   28.8712 N   0  0  0  0  0  0  0  0  0  0  0  0
  -12.6994  -21.9546   32.9064 C   0  0  0  0  0  0  0  0  0  0  0  0
  -10.0013  -27.1326   32.0268 H   0  0  0  0  0  0  0  0  0  0  0  0
   -9.7865  -28.6223   31.2852 H   0  0  0  0  0  0  0  0  0  0  0  0
   -8.4099  -27.6333   31.3169 H   0  0  0  0  0  0  0  0  0  0  0  0
  -10.9610  -27.0306   29.7216 H   0  0  0  0  0  0  0  0  0  0  0  0
   -9.3846  -27.2862   29.1519 H   0  0  0  0  0  0  0  0  0  0  0  0
   -8.6408  -25.2280   30.0281 H   0  0  0  0  0  0  0  0  0  0  0  0
  -11.2636  -26.4592   27.7338 H   0  0  0  0  0  0  0  0  0  0  0  0
   -9.5774  -26.6888   27.2205 H   0  0  0  0  0  0  0  0  0  0  0  0
  -10.6067  -25.5107   26.4200 H   0  0  0  0  0  0  0  0  0  0  0  0
   -9.1492  -22.7160   32.8369 H   0  0  0  0  0  0  0  0  0  0  0  0
  -10.3031  -22.0969   31.5071 H   0  0  0  0  0  0  0  0  0  0  0  0
  -10.7180  -22.4219   33.1358 H   0  0  0  0  0  0  0  0  0  0  0  0
  -11.3124  -25.1431   33.8987 H   0  0  0  0  0  0  0  0  0  0  0  0
  -12.1132  -24.8745   32.3690 H   0  0  0  0  0  0  0  0  0  0  0  0
  -12.2634  -23.0157   34.6894 H   0  0  0  0  0  0  0  0  0  0  0  0
  -14.5074  -23.4888   34.7058 H   0  0  0  0  0  0  0  0  0  0  0  0
  -14.2201  -24.7681   33.6040 H   0  0  0  0  0  0  0  0  0  0  0  0
  -15.6893  -23.5682   32.2876 H   0  0  0  0  0  0  0  0  0  0  0  0
  -15.6011  -22.1806   33.3196 H   0  0  0  0  0  0  0  0  0  0  0  0
  -14.4387  -20.9765   31.7576 H   0  0  0  0  0  0  0  0  0  0  0  0
  -14.5955  -22.2960   30.7269 H   0  0  0  0  0  0  0  0  0  0  0  0
  -11.0268  -21.5179   27.6065 H   0  0  0  0  0  0  0  0  0  0  0  0
  -13.1412  -25.0258   27.0988 H   0  0  0  0  0  0  0  0  0  0  0  0
  -12.6660  -24.5445   29.6195 H   0  0  0  0  0  0  0  0  0  0  0  0
  -13.4348  -21.2724   33.3877 H   0  0  0  0  0  0  0  0  0  0  0  0
  -11.8927  -21.2183   32.9583 H   0  0  0  0  0  0  0  0  0  0  0  0
  1  2  1  0
  2  3  1  0
  3  4  1  0
  4  5  1  0
  3  6  1  0
  6  7  2  0
  6  8  1  0
  8  9  1  0
  8 10  1  0
 10 11  1  0
 11 12  1  0
 12 13  1  0
 13 14  1  0
 14 15  1  0
 15 16  1  0
 16 17  2  0
 16 18  1  0
 18 19  2  0
 19 20  1  0
 20 21  2  0
 21 22  1  0
 15 23  1  0
 23 11  1  0
 22 18  1  0
  1 24  1  0
  1 25  1  0
  1 26  1  0
  2 27  1  0
  2 28  1  0
  3 29  1  0
  5 30  1  0
  5 31  1  0
  5 32  1  0
  9 33  1  0
  9 34  1  0
  9 35  1  0
 10 36  1  0
 10 37  1  0
 11 38  1  0
 12 39  1  0
 12 40  1  0
 13 41  1  0
 13 42  1  0
 14 43  1  0
 14 44  1  0
 19 45  1  0
 21 46  1  0
 22 47  1  0
 23 48  1  0
 23 49  1  0
M  END
>  <Energy>  (246) 
276.183799673137

>  <compound_id>  (246) 
18262

>  <target_id>  (246) 
1

>  <reference_id>  (246) 
64

>  <inspiration_ids>  (246) 
[46, 64]

>  <energy_score>  (246) 
189.78513738574838

>  <distance_score>  (246) 
3.387407261200008

>  <path>  (246) 
/opt/xchem-fragalysis-2/maxwin/BulkDock/SCRATCH/511013/C18262-P64/C18262-P64.minimised.mol

>  <scratch_subdir>  (246) 
/opt/xchem-fragalysis-2/maxwin/BulkDock/SCRATCH/511013/C18262-P64

>  <fragmenstein_runtime>  (246) 
10.36818790435791

>  <fragmenstein_outcome>  (246) 
too moved

>  <fragmenstein_mode>  (246) 
expansion

>  <fragmenstein_error>  (246) 


$$$$
C18263-P46
     RDKit          3D

 40 41  0  0  0  0  0  0  0  0999 V2000
  -12.4604  -24.4084   27.9262 C   0  0  0  0  0  0  0  0  0  0  0  0
  -11.8839  -23.5435   29.3752 S   0  0  0  0  0  0  0  0  0  0  0  0
  -10.9205  -22.3250   28.5762 C   0  0  0  0  0  0  0  0  0  0  0  0
  -10.9866  -24.4384   30.0717 O   0  0  0  0  0  0  0  0  0  0  0  0
  -13.0759  -22.7961   29.9912 N   0  0  0  0  0  0  0  0  0  0  0  0
  -13.1260  -22.0532   31.3074 C   0  0  0  0  0  0  0  0  0  0  0  0
  -12.5850  -22.5396   32.6314 C   0  0  0  0  0  0  0  0  0  0  0  0
  -13.1209  -21.5462   33.7194 C   0  0  0  0  0  0  0  0  0  0  0  0
  -14.5732  -21.6585   34.2346 N   0  0  0  0  0  0  0  0  0  0  0  0
  -15.3892  -22.7929   34.4544 C   0  0  0  0  0  0  0  0  0  0  0  0
  -15.1957  -23.9497   34.2133 O   0  0  0  0  0  0  0  0  0  0  0  0
  -16.7695  -22.4285   34.9938 C   0  0  0  0  0  0  0  0  0  0  0  0
  -17.1352  -21.1523   34.7212 F   0  0  0  0  0  0  0  0  0  0  0  0
  -17.6427  -23.4319   34.7545 C   0  0  0  0  0  0  0  0  0  0  0  0
  -18.0018  -23.7000   33.3928 C   0  0  0  0  0  0  0  0  0  0  0  0
  -18.4476  -22.9905   32.2999 C   0  0  0  0  0  0  0  0  0  0  0  0
  -18.4545  -23.7779   31.1671 N   0  0  0  0  0  0  0  0  0  0  0  0
  -18.0506  -24.9626   31.5679 C   0  0  0  0  0  0  0  0  0  0  0  0
  -17.7666  -24.9655   32.8998 N   0  0  0  0  0  0  0  0  0  0  0  0
  -14.8627  -21.0706   32.9182 C   0  0  0  0  0  0  0  0  0  0  0  0
  -14.6135  -21.6773   31.5681 C   0  0  0  0  0  0  0  0  0  0  0  0
  -11.5938  -24.8221   27.4046 H   0  0  0  0  0  0  0  0  0  0  0  0
  -12.9864  -23.7101   27.2747 H   0  0  0  0  0  0  0  0  0  0  0  0
  -13.1296  -25.2157   28.2044 H   0  0  0  0  0  0  0  0  0  0  0  0
  -10.0085  -22.8163   28.2467 H   0  0  0  0  0  0  0  0  0  0  0  0
  -10.7161  -21.5275   29.2887 H   0  0  0  0  0  0  0  0  0  0  0  0
  -11.4777  -21.9325   27.7267 H   0  0  0  0  0  0  0  0  0  0  0  0
  -12.4666  -21.2117   31.1140 H   0  0  0  0  0  0  0  0  0  0  0  0
  -11.4882  -22.4972   32.6127 H   0  0  0  0  0  0  0  0  0  0  0  0
  -12.8284  -23.5631   32.9127 H   0  0  0  0  0  0  0  0  0  0  0  0
  -12.5400  -21.8603   34.5916 H   0  0  0  0  0  0  0  0  0  0  0  0
  -12.7752  -20.5102   33.6028 H   0  0  0  0  0  0  0  0  0  0  0  0
  -17.3973  -24.3538   35.2904 H   0  0  0  0  0  0  0  0  0  0  0  0
  -18.7276  -21.9460   32.2561 H   0  0  0  0  0  0  0  0  0  0  0  0
  -17.9049  -25.8347   30.9433 H   0  0  0  0  0  0  0  0  0  0  0  0
  -17.3091  -25.7224   33.3887 H   0  0  0  0  0  0  0  0  0  0  0  0
  -14.6924  -19.9982   32.9993 H   0  0  0  0  0  0  0  0  0  0  0  0
  -15.9626  -21.0087   32.9008 H   0  0  0  0  0  0  0  0  0  0  0  0
  -15.3443  -22.4777   31.4744 H   0  0  0  0  0  0  0  0  0  0  0  0
  -15.0233  -21.0011   30.8177 H   0  0  0  0  0  0  0  0  0  0  0  0
  1  2  1  0
  2  3  1  0
  2  4  2  0
  2  5  2  0
  5  6  1  0
  6  7  1  0
  7  8  1  0
  8  9  1  0
  9 10  1  0
 10 11  2  0
 10 12  1  0
 12 13  1  0
 12 14  2  3
 14 15  1  0
 15 16  2  0
 16 17  1  0
 17 18  2  0
 18 19  1  0
  9 20  1  0
 20 21  1  0
 21  6  1  0
 19 15  1  0
  1 22  1  0
  1 23  1  0
  1 24  1  0
  3 25  1  0
  3 26  1  0
  3 27  1  0
  6 28  1  0
  7 29  1  0
  7 30  1  0
  8 31  1  0
  8 32  1  0
 14 33  1  0
 16 34  1  0
 18 35  1  0
 19 36  1  0
 20 37  1  0
 20 38  1  0
 21 39  1  0
 21 40  1  0
M  END
>  <Energy>  (247) 
127.9373060648113

>  <compound_id>  (247) 
18263

>  <target_id>  (247) 
1

>  <reference_id>  (247) 
46

>  <inspiration_ids>  (247) 
[46, 64]

>  <energy_score>  (247) 
64.16690369202627

>  <distance_score>  (247) 
4.5657534278140295

>  <path>  (247) 
/opt/xchem-fragalysis-2/maxwin/BulkDock/SCRATCH/511013/C18263-P46/C18263-P46.minimised.mol

>  <scratch_subdir>  (247) 
/opt/xchem-fragalysis-2/maxwin/BulkDock/SCRATCH/511013/C18263-P46

>  <fragmenstein_runtime>  (247) 
5.899390697479248

>  <fragmenstein_outcome>  (247) 
too moved

>  <fragmenstein_mode>  (247) 
expansion

>  <fragmenstein_error>  (247) 


$$$$
C18263-P64
     RDKit          3D

 40 41  0  0  0  0  0  0  0  0999 V2000
  -11.8284  -24.5598   27.1511 C   0  0  0  0  0  0  0  0  0  0  0  0
  -10.8795  -24.2871   28.6295 S   0  0  0  0  0  0  0  0  0  0  0  0
  -10.3732  -25.9157   29.0904 C   0  0  0  0  0  0  0  0  0  0  0  0
   -9.6683  -23.6698   28.1355 O   0  0  0  0  0  0  0  0  0  0  0  0
  -11.8290  -23.6581   29.6659 N   0  0  0  0  0  0  0  0  0  0  0  0
  -11.5291  -23.1403   31.0293 C   0  0  0  0  0  0  0  0  0  0  0  0
  -11.4297  -24.0064   32.2554 C   0  0  0  0  0  0  0  0  0  0  0  0
  -12.5059  -23.7219   33.3844 C   0  0  0  0  0  0  0  0  0  0  0  0
  -13.5242  -22.5981   33.5988 N   0  0  0  0  0  0  0  0  0  0  0  0
  -14.8238  -22.4041   33.0521 C   0  0  0  0  0  0  0  0  0  0  0  0
  -15.4187  -23.0233   32.2153 O   0  0  0  0  0  0  0  0  0  0  0  0
  -15.4995  -21.1928   33.6321 C   0  0  0  0  0  0  0  0  0  0  0  0
  -14.6831  -20.2413   34.1402 F   0  0  0  0  0  0  0  0  0  0  0  0
  -16.8135  -20.9337   33.5937 C   0  0  0  0  0  0  0  0  0  0  0  0
  -17.7970  -21.8323   33.1239 C   0  0  0  0  0  0  0  0  0  0  0  0
  -18.0085  -23.1978   33.1784 C   0  0  0  0  0  0  0  0  0  0  0  0
  -19.1059  -23.5531   32.4391 N   0  0  0  0  0  0  0  0  0  0  0  0
  -19.6016  -22.4259   31.9912 C   0  0  0  0  0  0  0  0  0  0  0  0
  -18.8663  -21.3528   32.4081 N   0  0  0  0  0  0  0  0  0  0  0  0
  -12.5349  -21.8430   32.8314 C   0  0  0  0  0  0  0  0  0  0  0  0
  -12.4675  -22.0303   31.3315 C   0  0  0  0  0  0  0  0  0  0  0  0
  -11.9693  -23.5958   26.6578 H   0  0  0  0  0  0  0  0  0  0  0  0
  -11.2613  -25.2194   26.4901 H   0  0  0  0  0  0  0  0  0  0  0  0
  -12.7959  -24.9984   27.3741 H   0  0  0  0  0  0  0  0  0  0  0  0
   -9.4581  -26.1403   28.5392 H   0  0  0  0  0  0  0  0  0  0  0  0
  -11.1076  -26.6529   28.7858 H   0  0  0  0  0  0  0  0  0  0  0  0
  -10.1762  -25.9534   30.1611 H   0  0  0  0  0  0  0  0  0  0  0  0
  -10.6033  -22.6078   31.0261 H   0  0  0  0  0  0  0  0  0  0  0  0
  -10.4622  -23.7575   32.7206 H   0  0  0  0  0  0  0  0  0  0  0  0
  -11.2653  -25.0605   32.0515 H   0  0  0  0  0  0  0  0  0  0  0  0
  -11.9462  -23.7408   34.3195 H   0  0  0  0  0  0  0  0  0  0  0  0
  -13.1468  -24.5948   33.4875 H   0  0  0  0  0  0  0  0  0  0  0  0
  -17.1414  -19.9731   33.9814 H   0  0  0  0  0  0  0  0  0  0  0  0
  -17.4005  -23.9504   33.6688 H   0  0  0  0  0  0  0  0  0  0  0  0
  -20.4811  -22.3234   31.3693 H   0  0  0  0  0  0  0  0  0  0  0  0
  -19.0544  -20.3898   32.1705 H   0  0  0  0  0  0  0  0  0  0  0  0
  -11.5668  -21.8012   33.3067 H   0  0  0  0  0  0  0  0  0  0  0  0
  -12.8494  -20.8239   33.0065 H   0  0  0  0  0  0  0  0  0  0  0  0
  -11.9889  -21.1754   30.8575 H   0  0  0  0  0  0  0  0  0  0  0  0
  -13.4541  -22.1626   30.8968 H   0  0  0  0  0  0  0  0  0  0  0  0
  1  2  1  0
  2  3  1  0
  2  4  2  0
  2  5  2  0
  5  6  1  0
  6  7  1  0
  7  8  1  0
  8  9  1  0
  9 10  1  0
 10 11  2  0
 10 12  1  0
 12 13  1  0
 12 14  2  3
 14 15  1  0
 15 16  2  0
 16 17  1  0
 17 18  2  0
 18 19  1  0
  9 20  1  0
 20 21  1  0
 21  6  1  0
 19 15  1  0
  1 22  1  0
  1 23  1  0
  1 24  1  0
  3 25  1  0
  3 26  1  0
  3 27  1  0
  6 28  1  0
  7 29  1  0
  7 30  1  0
  8 31  1  0
  8 32  1  0
 14 33  1  0
 16 34  1  0
 18 35  1  0
 19 36  1  0
 20 37  1  0
 20 38  1  0
 21 39  1  0
 21 40  1  0
M  END
>  <Energy>  (248) 
113.13299186189241

>  <compound_id>  (248) 
18263

>  <target_id>  (248) 
1

>  <reference_id>  (248) 
64

>  <inspiration_ids>  (248) 
[46, 64]

>  <energy_score>  (248) 
49.362589489105915

>  <distance_score>  (248) 
4.055470591831945

>  <path>  (248) 
/opt/xchem-fragalysis-2/maxwin/BulkDock/SCRATCH/511013/C18263-P64/C18263-P64.minimised.mol

>  <scratch_subdir>  (248) 
/opt/xchem-fragalysis-2/maxwin/BulkDock/SCRATCH/511013/C18263-P64

>  <fragmenstein_runtime>  (248) 
6.021215200424194

>  <fragmenstein_outcome>  (248) 
too moved

>  <fragmenstein_mode>  (248) 
expansion

>  <fragmenstein_error>  (248) 


$$$$
C18267-P46
     RDKit          3D

 49 50  0  0  0  0  0  0  0  0999 V2000
  -10.3653  -26.7446   29.3093 C   0  0  0  0  0  0  0  0  0  0  0  0
  -10.4033  -27.0523   30.7971 C   0  0  0  0  0  0  0  0  0  0  0  0
  -11.6439  -27.5448   31.0686 F   0  0  0  0  0  0  0  0  0  0  0  0
  -10.0499  -25.8328   31.6703 C   0  0  0  0  0  0  0  0  0  0  0  0
  -11.0436  -25.6946   32.8198 C   0  0  0  0  0  0  0  0  0  0  0  0
  -10.9951  -24.6654   33.8719 N   0  0  0  0  0  0  0  0  0  0  0  0
  -11.4886  -23.3401   33.4792 C   0  0  0  0  0  0  0  0  0  0  0  0
  -12.9412  -23.0844   33.3163 C   0  0  0  0  0  0  0  0  0  0  0  0
  -13.1800  -22.0377   32.2467 C   0  0  0  0  0  0  0  0  0  0  0  0
  -12.4805  -22.1796   30.8921 N   0  0  0  0  0  0  0  0  0  0  0  0
  -12.0764  -23.3516   30.1625 C   0  0  0  0  0  0  0  0  0  0  0  0
  -12.1048  -24.5095   30.4718 O   0  0  0  0  0  0  0  0  0  0  0  0
  -11.6367  -23.1889   28.7386 C   0  0  0  0  0  0  0  0  0  0  0  0
  -11.3120  -21.7913   28.4153 C   0  0  0  0  0  0  0  0  0  0  0  0
  -12.8418  -23.5680   27.9059 C   0  0  0  0  0  0  0  0  0  0  0  0
  -12.9428  -24.8842   27.2689 C   0  0  0  0  0  0  0  0  0  0  0  0
  -12.3287  -25.3573   26.1394 C   0  0  0  0  0  0  0  0  0  0  0  0
  -13.0612  -26.3664   25.5930 N   0  0  0  0  0  0  0  0  0  0  0  0
  -14.0655  -26.5650   26.4101 C   0  0  0  0  0  0  0  0  0  0  0  0
  -14.0030  -25.7260   27.4718 N   0  0  0  0  0  0  0  0  0  0  0  0
  -11.3182  -21.6319   31.6827 C   0  0  0  0  0  0  0  0  0  0  0  0
  -10.5950  -22.6933   32.4727 C   0  0  0  0  0  0  0  0  0  0  0  0
   -9.3418  -26.7097   28.9373 H   0  0  0  0  0  0  0  0  0  0  0  0
  -10.9488  -27.4783   28.7507 H   0  0  0  0  0  0  0  0  0  0  0  0
  -10.8266  -25.7971   29.0701 H   0  0  0  0  0  0  0  0  0  0  0  0
   -9.7211  -27.8647   31.0412 H   0  0  0  0  0  0  0  0  0  0  0  0
   -9.9602  -24.9858   31.0018 H   0  0  0  0  0  0  0  0  0  0  0  0
   -9.0413  -25.9062   32.0813 H   0  0  0  0  0  0  0  0  0  0  0  0
  -12.0445  -25.7087   32.4223 H   0  0  0  0  0  0  0  0  0  0  0  0
  -10.9320  -26.6276   33.3657 H   0  0  0  0  0  0  0  0  0  0  0  0
  -11.6290  -24.9873   34.6138 H   0  0  0  0  0  0  0  0  0  0  0  0
  -11.4394  -22.7121   34.3498 H   0  0  0  0  0  0  0  0  0  0  0  0
  -13.3964  -22.7040   34.2364 H   0  0  0  0  0  0  0  0  0  0  0  0
  -13.4248  -24.0261   33.2332 H   0  0  0  0  0  0  0  0  0  0  0  0
  -14.2450  -22.0750   31.9787 H   0  0  0  0  0  0  0  0  0  0  0  0
  -13.1759  -21.0398   32.7018 H   0  0  0  0  0  0  0  0  0  0  0  0
  -10.7632  -23.8094   28.5254 H   0  0  0  0  0  0  0  0  0  0  0  0
  -11.2439  -21.6820   27.3356 H   0  0  0  0  0  0  0  0  0  0  0  0
  -10.3618  -21.5199   28.8514 H   0  0  0  0  0  0  0  0  0  0  0  0
  -12.0826  -21.1112   28.7838 H   0  0  0  0  0  0  0  0  0  0  0  0
  -12.8580  -22.9256   27.0364 H   0  0  0  0  0  0  0  0  0  0  0  0
  -13.7516  -23.3757   28.4693 H   0  0  0  0  0  0  0  0  0  0  0  0
  -11.4961  -24.9194   25.6108 H   0  0  0  0  0  0  0  0  0  0  0  0
  -14.8774  -27.2634   26.2720 H   0  0  0  0  0  0  0  0  0  0  0  0
  -14.7898  -25.5541   28.0875 H   0  0  0  0  0  0  0  0  0  0  0  0
  -11.4501  -20.7107   32.2648 H   0  0  0  0  0  0  0  0  0  0  0  0
  -10.6256  -21.2844   30.9189 H   0  0  0  0  0  0  0  0  0  0  0  0
   -9.6902  -22.3231   32.9391 H   0  0  0  0  0  0  0  0  0  0  0  0
  -10.2186  -23.4151   31.7821 H   0  0  0  0  0  0  0  0  0  0  0  0
  1  2  1  0
  2  3  1  0
  2  4  1  0
  4  5  1  0
  5  6  1  0
  6  7  1  0
  7  8  1  0
  8  9  1  0
  9 10  1  0
 10 11  1  0
 11 12  2  0
 11 13  1  0
 13 14  1  0
 13 15  1  0
 15 16  1  0
 16 17  2  0
 17 18  1  0
 18 19  2  0
 19 20  1  0
 10 21  1  0
 21 22  1  0
 22  7  1  0
 20 16  1  0
  1 23  1  0
  1 24  1  0
  1 25  1  0
  2 26  1  0
  4 27  1  0
  4 28  1  0
  5 29  1  0
  5 30  1  0
  6 31  1  0
  7 32  1  0
  8 33  1  0
  8 34  1  0
  9 35  1  0
  9 36  1  0
 13 37  1  0
 14 38  1  0
 14 39  1  0
 14 40  1  0
 15 41  1  0
 15 42  1  0
 17 43  1  0
 19 44  1  0
 20 45  1  0
 21 46  1  0
 21 47  1  0
 22 48  1  0
 22 49  1  0
M  END
>  <Energy>  (249) 
128.59662666185702

>  <compound_id>  (249) 
18267

>  <target_id>  (249) 
1

>  <reference_id>  (249) 
46

>  <inspiration_ids>  (249) 
[46, 64]

>  <energy_score>  (249) 
96.53411050457044

>  <distance_score>  (249) 
3.2780334046555066

>  <path>  (249) 
/opt/xchem-fragalysis-2/maxwin/BulkDock/SCRATCH/511013/C18267-P46/C18267-P46.minimised.mol

>  <scratch_subdir>  (249) 
/opt/xchem-fragalysis-2/maxwin/BulkDock/SCRATCH/511013/C18267-P46

>  <fragmenstein_runtime>  (249) 
6.295835733413696

>  <fragmenstein_outcome>  (249) 
too moved

>  <fragmenstein_mode>  (249) 
expansion

>  <fragmenstein_error>  (249) 


$$$$
C18267-P64
     RDKit          3D

 49 50  0  0  0  0  0  0  0  0999 V2000
  -10.8763  -24.6879   28.8507 C   0  0  0  0  0  0  0  0  0  0  0  0
   -9.9258  -25.6424   29.5430 C   0  0  0  0  0  0  0  0  0  0  0  0
  -10.4463  -26.8942   29.4870 F   0  0  0  0  0  0  0  0  0  0  0  0
   -9.4580  -25.3105   30.9793 C   0  0  0  0  0  0  0  0  0  0  0  0
  -10.4074  -25.5864   32.1124 C   0  0  0  0  0  0  0  0  0  0  0  0
  -10.2539  -24.6961   33.2782 N   0  0  0  0  0  0  0  0  0  0  0  0
  -11.3801  -24.6003   34.2723 C   0  0  0  0  0  0  0  0  0  0  0  0
  -12.4521  -25.5736   34.2919 C   0  0  0  0  0  0  0  0  0  0  0  0
  -13.8111  -24.8827   33.8097 C   0  0  0  0  0  0  0  0  0  0  0  0
  -13.7235  -23.5164   33.0192 N   0  0  0  0  0  0  0  0  0  0  0  0
  -12.7331  -23.0192   32.1158 C   0  0  0  0  0  0  0  0  0  0  0  0
  -11.6716  -23.4715   31.7924 O   0  0  0  0  0  0  0  0  0  0  0  0
  -13.0765  -21.7073   31.6102 C   0  0  0  0  0  0  0  0  0  0  0  0
  -12.2217  -21.7006   30.2646 C   0  0  0  0  0  0  0  0  0  0  0  0
  -14.6065  -21.5566   31.5643 C   0  0  0  0  0  0  0  0  0  0  0  0
  -15.5079  -21.3558   32.7484 C   0  0  0  0  0  0  0  0  0  0  0  0
  -15.8939  -20.2744   33.5026 C   0  0  0  0  0  0  0  0  0  0  0  0
  -16.8290  -20.6315   34.4400 N   0  0  0  0  0  0  0  0  0  0  0  0
  -17.0228  -21.9176   34.2768 C   0  0  0  0  0  0  0  0  0  0  0  0
  -16.2608  -22.3981   33.2596 N   0  0  0  0  0  0  0  0  0  0  0  0
  -13.4948  -23.0343   34.2663 C   0  0  0  0  0  0  0  0  0  0  0  0
  -12.0381  -23.1850   34.5311 C   0  0  0  0  0  0  0  0  0  0  0  0
  -10.3835  -23.7572   28.5634 H   0  0  0  0  0  0  0  0  0  0  0  0
  -11.2681  -25.1456   27.9360 H   0  0  0  0  0  0  0  0  0  0  0  0
  -11.7213  -24.4467   29.4791 H   0  0  0  0  0  0  0  0  0  0  0  0
   -9.0656  -25.6378   28.8728 H   0  0  0  0  0  0  0  0  0  0  0  0
   -8.5353  -25.8127   31.2429 H   0  0  0  0  0  0  0  0  0  0  0  0
   -9.2380  -24.2692   31.0339 H   0  0  0  0  0  0  0  0  0  0  0  0
  -10.3718  -26.6269   32.3826 H   0  0  0  0  0  0  0  0  0  0  0  0
  -11.3361  -25.4032   31.6510 H   0  0  0  0  0  0  0  0  0  0  0  0
  -10.2244  -23.7715   32.8345 H   0  0  0  0  0  0  0  0  0  0  0  0
  -10.8401  -24.8853   35.1706 H   0  0  0  0  0  0  0  0  0  0  0  0
  -11.9022  -26.4273   33.9136 H   0  0  0  0  0  0  0  0  0  0  0  0
  -12.7183  -26.1510   35.1685 H   0  0  0  0  0  0  0  0  0  0  0  0
  -14.5596  -24.9030   34.6294 H   0  0  0  0  0  0  0  0  0  0  0  0
  -14.4613  -25.5200   33.1952 H   0  0  0  0  0  0  0  0  0  0  0  0
  -12.6122  -21.0406   32.3414 H   0  0  0  0  0  0  0  0  0  0  0  0
  -12.4801  -22.5576   29.6385 H   0  0  0  0  0  0  0  0  0  0  0  0
  -11.1544  -21.7415   30.5030 H   0  0  0  0  0  0  0  0  0  0  0  0
  -12.2721  -20.8405   29.6010 H   0  0  0  0  0  0  0  0  0  0  0  0
  -14.8981  -22.4993   31.1550 H   0  0  0  0  0  0  0  0  0  0  0  0
  -14.9397  -20.7657   30.9118 H   0  0  0  0  0  0  0  0  0  0  0  0
  -15.5672  -19.2513   33.4340 H   0  0  0  0  0  0  0  0  0  0  0  0
  -17.6775  -22.5454   34.8668 H   0  0  0  0  0  0  0  0  0  0  0  0
  -16.1310  -23.3740   33.0170 H   0  0  0  0  0  0  0  0  0  0  0  0
  -14.3166  -23.2028   34.9471 H   0  0  0  0  0  0  0  0  0  0  0  0
  -13.5887  -21.9465   34.1243 H   0  0  0  0  0  0  0  0  0  0  0  0
  -11.9180  -22.8741   35.5620 H   0  0  0  0  0  0  0  0  0  0  0  0
  -11.5594  -22.4264   33.9160 H   0  0  0  0  0  0  0  0  0  0  0  0
  1  2  1  0
  2  3  1  0
  2  4  1  0
  4  5  1  0
  5  6  1  0
  6  7  1  0
  7  8  1  0
  8  9  1  0
  9 10  1  0
 10 11  1  0
 11 12  2  0
 11 13  1  0
 13 14  1  0
 13 15  1  0
 15 16  1  0
 16 17  2  0
 17 18  1  0
 18 19  2  0
 19 20  1  0
 10 21  1  0
 21 22  1  0
 22  7  1  0
 20 16  1  0
  1 23  1  0
  1 24  1  0
  1 25  1  0
  2 26  1  0
  4 27  1  0
  4 28  1  0
  5 29  1  0
  5 30  1  0
  6 31  1  0
  7 32  1  0
  8 33  1  0
  8 34  1  0
  9 35  1  0
  9 36  1  0
 13 37  1  0
 14 38  1  0
 14 39  1  0
 14 40  1  0
 15 41  1  0
 15 42  1  0
 17 43  1  0
 19 44  1  0
 20 45  1  0
 21 46  1  0
 21 47  1  0
 22 48  1  0
 22 49  1  0
M  END
>  <Energy>  (250) 
198.62185336626848

>  <compound_id>  (250) 
18267

>  <target_id>  (250) 
1

>  <reference_id>  (250) 
64

>  <inspiration_ids>  (250) 
[46, 64]

>  <energy_score>  (250) 
166.5593372089824

>  <distance_score>  (250) 
3.133110418529969

>  <path>  (250) 
/opt/xchem-fragalysis-2/maxwin/BulkDock/SCRATCH/511013/C18267-P64/C18267-P64.minimised.mol

>  <scratch_subdir>  (250) 
/opt/xchem-fragalysis-2/maxwin/BulkDock/SCRATCH/511013/C18267-P64

>  <fragmenstein_runtime>  (250) 
6.772907972335815

>  <fragmenstein_outcome>  (250) 
too moved

>  <fragmenstein_mode>  (250) 
expansion

>  <fragmenstein_error>  (250) 


$$$$
C18269-P46
     RDKit          3D

 53 54  0  0  0  0  0  0  0  0999 V2000
  -12.4040  -24.8246   26.1617 C   0  0  0  0  0  0  0  0  0  0  0  0
  -12.6664  -24.2400   27.5393 C   0  0  0  0  0  0  0  0  0  0  0  0
  -11.4135  -23.8456   28.1812 N   0  0  0  0  0  0  0  0  0  0  0  0
  -10.9893  -24.7819   29.2315 C   0  0  0  0  0  0  0  0  0  0  0  0
  -10.8810  -26.2479   28.8173 C   0  0  0  0  0  0  0  0  0  0  0  0
  -11.4269  -22.4024   28.5956 C   0  0  0  0  0  0  0  0  0  0  0  0
  -12.0775  -22.1133   29.9915 C   0  0  0  0  0  0  0  0  0  0  0  0
  -13.2139  -22.4312   30.1787 O   0  0  0  0  0  0  0  0  0  0  0  0
  -11.0960  -21.5614   30.8890 N   0  0  0  0  0  0  0  0  0  0  0  0
  -11.1420  -21.3065   32.3382 C   0  0  0  0  0  0  0  0  0  0  0  0
  -12.2418  -20.6075   33.1439 C   0  0  0  0  0  0  0  0  0  0  0  0
  -12.1797  -19.8979   34.5163 C   0  0  0  0  0  0  0  0  0  0  0  0
  -13.4818  -19.1465   34.7985 C   0  0  0  0  0  0  0  0  0  0  0  0
  -14.6241  -20.0136   34.2926 C   0  0  0  0  0  0  0  0  0  0  0  0
  -14.2014  -21.4415   34.3270 N   0  0  0  0  0  0  0  0  0  0  0  0
  -14.9354  -22.5983   34.2711 C   0  0  0  0  0  0  0  0  0  0  0  0
  -16.1091  -22.7730   34.0885 O   0  0  0  0  0  0  0  0  0  0  0  0
  -13.9430  -23.7169   34.3831 C   0  0  0  0  0  0  0  0  0  0  0  0
  -12.5024  -23.9958   33.9403 C   0  0  0  0  0  0  0  0  0  0  0  0
  -11.8896  -24.0881   32.7021 C   0  0  0  0  0  0  0  0  0  0  0  0
  -10.6418  -24.6233   32.7148 N   0  0  0  0  0  0  0  0  0  0  0  0
  -10.5228  -25.0350   33.9411 C   0  0  0  0  0  0  0  0  0  0  0  0
  -11.6194  -24.7268   34.6802 N   0  0  0  0  0  0  0  0  0  0  0  0
  -13.6865  -21.1061   32.9860 C   0  0  0  0  0  0  0  0  0  0  0  0
  -13.3542  -25.0434   25.6633 H   0  0  0  0  0  0  0  0  0  0  0  0
  -11.8516  -24.1178   25.5337 H   0  0  0  0  0  0  0  0  0  0  0  0
  -11.8352  -25.7567   26.2114 H   0  0  0  0  0  0  0  0  0  0  0  0
  -13.3084  -23.3752   27.4100 H   0  0  0  0  0  0  0  0  0  0  0  0
  -13.2544  -24.9364   28.1412 H   0  0  0  0  0  0  0  0  0  0  0  0
  -10.0040  -24.4947   29.5994 H   0  0  0  0  0  0  0  0  0  0  0  0
  -11.6836  -24.7466   30.0657 H   0  0  0  0  0  0  0  0  0  0  0  0
  -10.2298  -26.3786   27.9537 H   0  0  0  0  0  0  0  0  0  0  0  0
  -11.8531  -26.6857   28.5749 H   0  0  0  0  0  0  0  0  0  0  0  0
  -10.4607  -26.8294   29.6445 H   0  0  0  0  0  0  0  0  0  0  0  0
  -10.3919  -22.0676   28.5780 H   0  0  0  0  0  0  0  0  0  0  0  0
  -11.9259  -21.7925   27.8459 H   0  0  0  0  0  0  0  0  0  0  0  0
  -10.2722  -21.3393   30.3733 H   0  0  0  0  0  0  0  0  0  0  0  0
  -10.2870  -20.6195   32.3782 H   0  0  0  0  0  0  0  0  0  0  0  0
  -10.7430  -22.1722   32.8428 H   0  0  0  0  0  0  0  0  0  0  0  0
  -11.9665  -19.7023   32.6910 H   0  0  0  0  0  0  0  0  0  0  0  0
  -12.0628  -20.6290   35.3116 H   0  0  0  0  0  0  0  0  0  0  0  0
  -11.3933  -19.1431   34.5370 H   0  0  0  0  0  0  0  0  0  0  0  0
  -13.4979  -18.1629   34.3195 H   0  0  0  0  0  0  0  0  0  0  0  0
  -13.5679  -18.9632   35.8760 H   0  0  0  0  0  0  0  0  0  0  0  0
  -15.2367  -19.6303   33.4617 H   0  0  0  0  0  0  0  0  0  0  0  0
  -15.3954  -19.9647   35.0773 H   0  0  0  0  0  0  0  0  0  0  0  0
  -14.3717  -24.4688   35.0402 H   0  0  0  0  0  0  0  0  0  0  0  0
  -14.2459  -23.8859   33.3812 H   0  0  0  0  0  0  0  0  0  0  0  0
  -12.2981  -23.7721   31.7743 H   0  0  0  0  0  0  0  0  0  0  0  0
   -9.6498  -25.5055   34.3508 H   0  0  0  0  0  0  0  0  0  0  0  0
  -11.8079  -24.9957   35.6299 H   0  0  0  0  0  0  0  0  0  0  0  0
  -13.5466  -22.0595   32.4857 H   0  0  0  0  0  0  0  0  0  0  0  0
  -14.4245  -20.7398   32.2599 H   0  0  0  0  0  0  0  0  0  0  0  0
  1  2  1  0
  2  3  1  0
  3  4  1  0
  4  5  1  0
  3  6  1  0
  6  7  1  0
  7  8  2  0
  7  9  1  0
  9 10  1  0
 10 11  1  0
 11 12  1  0
 12 13  1  0
 13 14  1  0
 14 15  1  0
 15 16  1  0
 16 17  2  0
 16 18  1  0
 18 19  1  0
 19 20  2  0
 20 21  1  0
 21 22  2  0
 22 23  1  0
 15 24  1  0
 24 11  1  0
 23 19  1  0
  1 25  1  0
  1 26  1  0
  1 27  1  0
  2 28  1  0
  2 29  1  0
  4 30  1  0
  4 31  1  0
  5 32  1  0
  5 33  1  0
  5 34  1  0
  6 35  1  0
  6 36  1  0
  9 37  1  0
 10 38  1  0
 10 39  1  0
 11 40  1  0
 12 41  1  0
 12 42  1  0
 13 43  1  0
 13 44  1  0
 14 45  1  0
 14 46  1  0
 18 47  1  0
 18 48  1  0
 20 49  1  0
 22 50  1  0
 23 51  1  0
 24 52  1  0
 24 53  1  0
M  END
>  <Energy>  (251) 
227.75084036515432

>  <compound_id>  (251) 
18269

>  <target_id>  (251) 
1

>  <reference_id>  (251) 
46

>  <inspiration_ids>  (251) 
[46, 64]

>  <energy_score>  (251) 
131.48221100947416

>  <distance_score>  (251) 
3.7163928087589184

>  <path>  (251) 
/opt/xchem-fragalysis-2/maxwin/BulkDock/SCRATCH/511013/C18269-P46/C18269-P46.minimised.mol

>  <scratch_subdir>  (251) 
/opt/xchem-fragalysis-2/maxwin/BulkDock/SCRATCH/511013/C18269-P46

>  <fragmenstein_runtime>  (251) 
18.057807683944702

>  <fragmenstein_outcome>  (251) 
too moved

>  <fragmenstein_mode>  (251) 
expansion

>  <fragmenstein_error>  (251) 


$$$$
C18269-P64
     RDKit          3D

 53 54  0  0  0  0  0  0  0  0999 V2000
  -10.9826  -26.1558   26.2688 C   0  0  0  0  0  0  0  0  0  0  0  0
  -10.4078  -26.6958   27.5454 C   0  0  0  0  0  0  0  0  0  0  0  0
  -10.4702  -26.2135   28.9481 N   0  0  0  0  0  0  0  0  0  0  0  0
   -9.9747  -27.3518   29.7094 C   0  0  0  0  0  0  0  0  0  0  0  0
   -9.4979  -27.5564   31.1412 C   0  0  0  0  0  0  0  0  0  0  0  0
   -9.6155  -25.1100   29.2806 C   0  0  0  0  0  0  0  0  0  0  0  0
   -9.5365  -24.9425   30.8389 C   0  0  0  0  0  0  0  0  0  0  0  0
   -8.4831  -25.0221   31.3740 O   0  0  0  0  0  0  0  0  0  0  0  0
  -10.8028  -24.7424   31.3623 N   0  0  0  0  0  0  0  0  0  0  0  0
  -11.2275  -24.4798   32.6741 C   0  0  0  0  0  0  0  0  0  0  0  0
  -11.2474  -23.0198   32.8635 C   0  0  0  0  0  0  0  0  0  0  0  0
  -12.3059  -22.6101   33.8457 C   0  0  0  0  0  0  0  0  0  0  0  0
  -13.6122  -22.7261   33.1314 C   0  0  0  0  0  0  0  0  0  0  0  0
  -13.4058  -22.0189   31.7902 C   0  0  0  0  0  0  0  0  0  0  0  0
  -12.3915  -22.3234   30.6244 N   0  0  0  0  0  0  0  0  0  0  0  0
  -12.0203  -21.5527   29.4920 C   0  0  0  0  0  0  0  0  0  0  0  0
  -12.3188  -20.4388   29.1875 O   0  0  0  0  0  0  0  0  0  0  0  0
  -11.1929  -22.2037   28.3598 C   0  0  0  0  0  0  0  0  0  0  0  0
  -11.9382  -23.2183   27.6085 C   0  0  0  0  0  0  0  0  0  0  0  0
  -12.6461  -24.2263   28.1327 C   0  0  0  0  0  0  0  0  0  0  0  0
  -13.4329  -24.8822   27.2447 N   0  0  0  0  0  0  0  0  0  0  0  0
  -13.2148  -24.2468   26.1148 C   0  0  0  0  0  0  0  0  0  0  0  0
  -12.2433  -23.2880   26.2717 N   0  0  0  0  0  0  0  0  0  0  0  0
  -11.4288  -22.1290   31.6906 C   0  0  0  0  0  0  0  0  0  0  0  0
  -10.6159  -26.7574   25.4274 H   0  0  0  0  0  0  0  0  0  0  0  0
  -10.6873  -25.1288   26.0863 H   0  0  0  0  0  0  0  0  0  0  0  0
  -12.0509  -26.3433   26.2208 H   0  0  0  0  0  0  0  0  0  0  0  0
  -10.9855  -27.6226   27.5794 H   0  0  0  0  0  0  0  0  0  0  0  0
   -9.3628  -26.9124   27.3118 H   0  0  0  0  0  0  0  0  0  0  0  0
   -9.1165  -27.6988   29.1595 H   0  0  0  0  0  0  0  0  0  0  0  0
  -10.8396  -27.9767   29.5903 H   0  0  0  0  0  0  0  0  0  0  0  0
   -9.6644  -28.5642   31.5190 H   0  0  0  0  0  0  0  0  0  0  0  0
  -10.0315  -26.9261   31.8413 H   0  0  0  0  0  0  0  0  0  0  0  0
   -8.4344  -27.4523   31.2587 H   0  0  0  0  0  0  0  0  0  0  0  0
  -10.0071  -24.2292   28.8323 H   0  0  0  0  0  0  0  0  0  0  0  0
   -8.6267  -25.2196   28.8582 H   0  0  0  0  0  0  0  0  0  0  0  0
  -11.4794  -24.8132   30.6155 H   0  0  0  0  0  0  0  0  0  0  0  0
  -10.5279  -24.9628   33.3659 H   0  0  0  0  0  0  0  0  0  0  0  0
  -12.1897  -24.8477   32.9319 H   0  0  0  0  0  0  0  0  0  0  0  0
  -10.2150  -22.8490   33.1224 H   0  0  0  0  0  0  0  0  0  0  0  0
  -12.1893  -21.5654   34.1534 H   0  0  0  0  0  0  0  0  0  0  0  0
  -12.2754  -23.2236   34.7272 H   0  0  0  0  0  0  0  0  0  0  0  0
  -14.3897  -22.1939   33.6950 H   0  0  0  0  0  0  0  0  0  0  0  0
  -13.9714  -23.7495   33.0926 H   0  0  0  0  0  0  0  0  0  0  0  0
  -13.3667  -20.9973   32.1096 H   0  0  0  0  0  0  0  0  0  0  0  0
  -14.3705  -22.0709   31.2777 H   0  0  0  0  0  0  0  0  0  0  0  0
  -10.1806  -22.4304   28.5822 H   0  0  0  0  0  0  0  0  0  0  0  0
  -11.0641  -21.4534   27.5930 H   0  0  0  0  0  0  0  0  0  0  0  0
  -12.6138  -24.3855   29.1786 H   0  0  0  0  0  0  0  0  0  0  0  0
  -13.7267  -24.4085   25.1777 H   0  0  0  0  0  0  0  0  0  0  0  0
  -12.1258  -22.5278   25.6194 H   0  0  0  0  0  0  0  0  0  0  0  0
  -10.4930  -22.1526   31.1778 H   0  0  0  0  0  0  0  0  0  0  0  0
  -11.3745  -21.0673   31.9950 H   0  0  0  0  0  0  0  0  0  0  0  0
  1  2  1  0
  2  3  1  0
  3  4  1  0
  4  5  1  0
  3  6  1  0
  6  7  1  0
  7  8  2  0
  7  9  1  0
  9 10  1  0
 10 11  1  0
 11 12  1  0
 12 13  1  0
 13 14  1  0
 14 15  1  0
 15 16  1  0
 16 17  2  0
 16 18  1  0
 18 19  1  0
 19 20  2  0
 20 21  1  0
 21 22  2  0
 22 23  1  0
 15 24  1  0
 24 11  1  0
 23 19  1  0
  1 25  1  0
  1 26  1  0
  1 27  1  0
  2 28  1  0
  2 29  1  0
  4 30  1  0
  4 31  1  0
  5 32  1  0
  5 33  1  0
  5 34  1  0
  6 35  1  0
  6 36  1  0
  9 37  1  0
 10 38  1  0
 10 39  1  0
 11 40  1  0
 12 41  1  0
 12 42  1  0
 13 43  1  0
 13 44  1  0
 14 45  1  0
 14 46  1  0
 18 47  1  0
 18 48  1  0
 20 49  1  0
 22 50  1  0
 23 51  1  0
 24 52  1  0
 24 53  1  0
M  END
>  <Energy>  (252) 
230.48240881013638

>  <compound_id>  (252) 
18269

>  <target_id>  (252) 
1

>  <reference_id>  (252) 
64

>  <inspiration_ids>  (252) 
[46, 64]

>  <energy_score>  (252) 
134.21377945445516

>  <distance_score>  (252) 
2.906039124044688

>  <path>  (252) 
/opt/xchem-fragalysis-2/maxwin/BulkDock/SCRATCH/511013/C18269-P64/C18269-P64.minimised.mol

>  <scratch_subdir>  (252) 
/opt/xchem-fragalysis-2/maxwin/BulkDock/SCRATCH/511013/C18269-P64

>  <fragmenstein_runtime>  (252) 
14.075718879699707

>  <fragmenstein_outcome>  (252) 
too moved

>  <fragmenstein_mode>  (252) 
expansion

>  <fragmenstein_error>  (252) 


$$$$
C18271-P46
     RDKit          3D

 45 46  0  0  0  0  0  0  0  0999 V2000
  -11.0609  -27.8869   31.3444 C   0  0  0  0  0  0  0  0  0  0  0  0
  -11.4605  -27.5272   29.9490 C   0  0  0  0  0  0  0  0  0  0  0  0
  -12.4080  -28.0236   29.3524 O   0  0  0  0  0  0  0  0  0  0  0  0
  -10.6721  -26.5378   29.4931 O   0  0  0  0  0  0  0  0  0  0  0  0
  -11.2888  -25.6451   28.5796 C   0  0  0  0  0  0  0  0  0  0  0  0
  -11.0665  -24.2282   29.1138 C   0  0  0  0  0  0  0  0  0  0  0  0
  -10.4705  -23.4568   28.4052 O   0  0  0  0  0  0  0  0  0  0  0  0
  -11.6597  -24.0381   30.4176 N   0  0  0  0  0  0  0  0  0  0  0  0
  -10.6628  -24.3712   31.4964 C   0  0  0  0  0  0  0  0  0  0  0  0
  -11.8190  -22.7919   31.2505 C   0  0  0  0  0  0  0  0  0  0  0  0
  -12.0377  -22.5099   32.7826 C   0  0  0  0  0  0  0  0  0  0  0  0
  -11.9483  -21.0265   32.9278 C   0  0  0  0  0  0  0  0  0  0  0  0
  -12.6916  -20.5849   34.1543 C   0  0  0  0  0  0  0  0  0  0  0  0
  -14.1360  -21.1068   34.0471 C   0  0  0  0  0  0  0  0  0  0  0  0
  -14.7058  -22.2869   33.2940 N   0  0  0  0  0  0  0  0  0  0  0  0
  -15.3147  -21.8440   32.0969 C   0  0  0  0  0  0  0  0  0  0  0  0
  -14.8655  -21.7159   30.9973 O   0  0  0  0  0  0  0  0  0  0  0  0
  -16.7183  -21.6302   32.3496 C   0  0  0  0  0  0  0  0  0  0  0  0
  -17.6889  -21.0034   31.6032 C   0  0  0  0  0  0  0  0  0  0  0  0
  -18.9172  -21.1211   32.1989 N   0  0  0  0  0  0  0  0  0  0  0  0
  -18.7134  -21.8399   33.2769 C   0  0  0  0  0  0  0  0  0  0  0  0
  -17.4014  -22.1637   33.4148 N   0  0  0  0  0  0  0  0  0  0  0  0
  -13.3132  -22.8569   33.5551 C   0  0  0  0  0  0  0  0  0  0  0  0
  -11.4345  -27.1381   32.0400 H   0  0  0  0  0  0  0  0  0  0  0  0
   -9.9753  -27.9511   31.4149 H   0  0  0  0  0  0  0  0  0  0  0  0
  -11.4859  -28.8593   31.5977 H   0  0  0  0  0  0  0  0  0  0  0  0
  -10.7878  -25.7478   27.6140 H   0  0  0  0  0  0  0  0  0  0  0  0
  -12.3557  -25.8054   28.4116 H   0  0  0  0  0  0  0  0  0  0  0  0
   -9.9851  -25.1442   31.1210 H   0  0  0  0  0  0  0  0  0  0  0  0
  -11.1879  -24.8539   32.3322 H   0  0  0  0  0  0  0  0  0  0  0  0
   -9.9458  -23.6210   31.8447 H   0  0  0  0  0  0  0  0  0  0  0  0
  -11.0274  -22.1054   30.9024 H   0  0  0  0  0  0  0  0  0  0  0  0
  -12.6712  -22.3395   30.7339 H   0  0  0  0  0  0  0  0  0  0  0  0
  -11.2167  -22.9440   33.3550 H   0  0  0  0  0  0  0  0  0  0  0  0
  -10.9635  -20.5981   32.7702 H   0  0  0  0  0  0  0  0  0  0  0  0
  -12.4903  -20.7128   32.0713 H   0  0  0  0  0  0  0  0  0  0  0  0
  -12.6833  -19.4957   34.2709 H   0  0  0  0  0  0  0  0  0  0  0  0
  -12.2343  -20.9726   35.0608 H   0  0  0  0  0  0  0  0  0  0  0  0
  -14.6375  -20.2442   33.5748 H   0  0  0  0  0  0  0  0  0  0  0  0
  -14.6826  -21.0807   34.9779 H   0  0  0  0  0  0  0  0  0  0  0  0
  -17.5870  -20.4925   30.6580 H   0  0  0  0  0  0  0  0  0  0  0  0
  -19.4718  -22.1522   33.9825 H   0  0  0  0  0  0  0  0  0  0  0  0
  -16.9827  -22.7410   34.1312 H   0  0  0  0  0  0  0  0  0  0  0  0
  -13.4255  -23.9162   33.3656 H   0  0  0  0  0  0  0  0  0  0  0  0
  -13.1068  -22.9756   34.6222 H   0  0  0  0  0  0  0  0  0  0  0  0
  1  2  1  0
  2  3  2  0
  2  4  1  0
  4  5  1  0
  5  6  1  0
  6  7  2  0
  6  8  1  0
  8  9  1  0
  8 10  1  0
 10 11  1  0
 11 12  1  0
 12 13  1  0
 13 14  1  0
 14 15  1  0
 15 16  1  0
 16 17  2  0
 16 18  1  0
 18 19  2  0
 19 20  1  0
 20 21  2  0
 21 22  1  0
 15 23  1  0
 23 11  1  0
 22 18  1  0
  1 24  1  0
  1 25  1  0
  1 26  1  0
  5 27  1  0
  5 28  1  0
  9 29  1  0
  9 30  1  0
  9 31  1  0
 10 32  1  0
 10 33  1  0
 11 34  1  0
 12 35  1  0
 12 36  1  0
 13 37  1  0
 13 38  1  0
 14 39  1  0
 14 40  1  0
 19 41  1  0
 21 42  1  0
 22 43  1  0
 23 44  1  0
 23 45  1  0
M  END
>  <Energy>  (253) 
170.89654222498069

>  <compound_id>  (253) 
18271

>  <target_id>  (253) 
1

>  <reference_id>  (253) 
46

>  <inspiration_ids>  (253) 
[46, 64]

>  <energy_score>  (253) 
146.54543775699472

>  <distance_score>  (253) 
3.9592846528011907

>  <path>  (253) 
/opt/xchem-fragalysis-2/maxwin/BulkDock/SCRATCH/511013/C18271-P46/C18271-P46.minimised.mol

>  <scratch_subdir>  (253) 
/opt/xchem-fragalysis-2/maxwin/BulkDock/SCRATCH/511013/C18271-P46

>  <fragmenstein_runtime>  (253) 
6.686057090759277

>  <fragmenstein_outcome>  (253) 
too moved

>  <fragmenstein_mode>  (253) 
expansion

>  <fragmenstein_error>  (253) 


$$$$
C18271-P64
     RDKit          3D

 45 46  0  0  0  0  0  0  0  0999 V2000
  -10.2117  -25.9469   31.1452 C   0  0  0  0  0  0  0  0  0  0  0  0
  -10.1962  -27.0585   30.1083 C   0  0  0  0  0  0  0  0  0  0  0  0
   -9.2705  -27.8361   30.2485 O   0  0  0  0  0  0  0  0  0  0  0  0
  -11.2294  -27.1687   29.1894 O   0  0  0  0  0  0  0  0  0  0  0  0
  -11.7085  -27.7026   27.7311 C   0  0  0  0  0  0  0  0  0  0  0  0
  -11.1103  -26.9003   26.5778 C   0  0  0  0  0  0  0  0  0  0  0  0
  -11.1291  -27.1111   25.4036 O   0  0  0  0  0  0  0  0  0  0  0  0
  -10.6288  -25.8271   27.2908 N   0  0  0  0  0  0  0  0  0  0  0  0
   -9.2413  -26.0595   27.6582 C   0  0  0  0  0  0  0  0  0  0  0  0
  -10.0728  -24.5181   26.8375 C   0  0  0  0  0  0  0  0  0  0  0  0
  -10.2791  -23.5035   27.9810 C   0  0  0  0  0  0  0  0  0  0  0  0
  -10.9336  -22.1491   27.8858 C   0  0  0  0  0  0  0  0  0  0  0  0
  -11.8453  -21.8994   29.0380 C   0  0  0  0  0  0  0  0  0  0  0  0
  -12.7422  -23.1381   29.1983 C   0  0  0  0  0  0  0  0  0  0  0  0
  -12.4555  -24.4179   28.4695 N   0  0  0  0  0  0  0  0  0  0  0  0
  -12.9804  -24.3655   27.0490 C   0  0  0  0  0  0  0  0  0  0  0  0
  -12.4425  -24.0007   26.0352 O   0  0  0  0  0  0  0  0  0  0  0  0
  -14.3217  -24.9389   26.7337 C   0  0  0  0  0  0  0  0  0  0  0  0
  -14.8858  -24.8952   25.4577 C   0  0  0  0  0  0  0  0  0  0  0  0
  -16.0581  -25.5920   25.3708 N   0  0  0  0  0  0  0  0  0  0  0  0
  -16.2464  -26.0652   26.5737 C   0  0  0  0  0  0  0  0  0  0  0  0
  -15.2191  -25.7353   27.4081 N   0  0  0  0  0  0  0  0  0  0  0  0
  -11.1186  -24.1454   29.0035 C   0  0  0  0  0  0  0  0  0  0  0  0
   -9.3181  -25.3275   31.0368 H   0  0  0  0  0  0  0  0  0  0  0  0
  -11.0799  -25.3126   31.1458 H   0  0  0  0  0  0  0  0  0  0  0  0
  -10.2293  -26.3830   32.1372 H   0  0  0  0  0  0  0  0  0  0  0  0
  -11.6890  -28.7696   27.6436 H   0  0  0  0  0  0  0  0  0  0  0  0
  -12.7752  -27.4666   27.6753 H   0  0  0  0  0  0  0  0  0  0  0  0
   -8.7347  -26.7300   26.9828 H   0  0  0  0  0  0  0  0  0  0  0  0
   -8.7446  -25.3969   28.3714 H   0  0  0  0  0  0  0  0  0  0  0  0
   -9.2628  -26.9259   28.2840 H   0  0  0  0  0  0  0  0  0  0  0  0
   -9.1144  -24.3290   26.4470 H   0  0  0  0  0  0  0  0  0  0  0  0
  -10.5676  -24.2806   25.9022 H   0  0  0  0  0  0  0  0  0  0  0  0
   -9.2671  -23.3505   28.3258 H   0  0  0  0  0  0  0  0  0  0  0  0
  -11.4335  -21.9951   26.9407 H   0  0  0  0  0  0  0  0  0  0  0  0
  -10.1655  -21.4134   28.0290 H   0  0  0  0  0  0  0  0  0  0  0  0
  -12.3305  -20.9408   28.9930 H   0  0  0  0  0  0  0  0  0  0  0  0
  -11.2547  -21.7555   29.9566 H   0  0  0  0  0  0  0  0  0  0  0  0
  -13.7436  -22.9750   29.0349 H   0  0  0  0  0  0  0  0  0  0  0  0
  -12.7045  -23.2356   30.2886 H   0  0  0  0  0  0  0  0  0  0  0  0
  -14.4743  -24.3869   24.5933 H   0  0  0  0  0  0  0  0  0  0  0  0
  -17.1042  -26.6319   26.9101 H   0  0  0  0  0  0  0  0  0  0  0  0
  -15.2838  -25.8540   28.4120 H   0  0  0  0  0  0  0  0  0  0  0  0
  -10.7112  -25.0927   29.1997 H   0  0  0  0  0  0  0  0  0  0  0  0
  -10.9678  -23.7674   30.0278 H   0  0  0  0  0  0  0  0  0  0  0  0
  1  2  1  0
  2  3  2  0
  2  4  1  0
  4  5  1  0
  5  6  1  0
  6  7  2  0
  6  8  1  0
  8  9  1  0
  8 10  1  0
 10 11  1  0
 11 12  1  0
 12 13  1  0
 13 14  1  0
 14 15  1  0
 15 16  1  0
 16 17  2  0
 16 18  1  0
 18 19  2  0
 19 20  1  0
 20 21  2  0
 21 22  1  0
 15 23  1  0
 23 11  1  0
 22 18  1  0
  1 24  1  0
  1 25  1  0
  1 26  1  0
  5 27  1  0
  5 28  1  0
  9 29  1  0
  9 30  1  0
  9 31  1  0
 10 32  1  0
 10 33  1  0
 11 34  1  0
 12 35  1  0
 12 36  1  0
 13 37  1  0
 13 38  1  0
 14 39  1  0
 14 40  1  0
 19 41  1  0
 21 42  1  0
 22 43  1  0
 23 44  1  0
 23 45  1  0
M  END
>  <Energy>  (254) 
320.55993005792266

>  <compound_id>  (254) 
18271

>  <target_id>  (254) 
1

>  <reference_id>  (254) 
64

>  <inspiration_ids>  (254) 
[46, 64]

>  <energy_score>  (254) 
296.20882558994236

>  <distance_score>  (254) 
4.649011432936163

>  <path>  (254) 
/opt/xchem-fragalysis-2/maxwin/BulkDock/SCRATCH/511013/C18271-P64/C18271-P64.minimised.mol

>  <scratch_subdir>  (254) 
/opt/xchem-fragalysis-2/maxwin/BulkDock/SCRATCH/511013/C18271-P64

>  <fragmenstein_runtime>  (254) 
7.334889888763428

>  <fragmenstein_outcome>  (254) 
too moved

>  <fragmenstein_mode>  (254) 
expansion

>  <fragmenstein_error>  (254) 


$$$$
C18272-P46
     RDKit          3D

 43 44  0  0  0  0  0  0  0  0999 V2000
   -9.2112  -25.3604   31.1147 O   0  0  0  0  0  0  0  0  0  0  0  0
  -10.3494  -25.6981   31.2801 C   0  0  0  0  0  0  0  0  0  0  0  0
  -10.8800  -26.8359   30.3540 C   0  0  0  0  0  0  0  0  0  0  0  0
  -11.8452  -26.3936   29.4175 O   0  0  0  0  0  0  0  0  0  0  0  0
  -11.9653  -27.1281   28.1944 C   0  0  0  0  0  0  0  0  0  0  0  0
  -13.1820  -26.5935   27.4228 C   0  0  0  0  0  0  0  0  0  0  0  0
  -14.2231  -27.4576   27.6270 F   0  0  0  0  0  0  0  0  0  0  0  0
  -12.9899  -26.5485   26.0853 F   0  0  0  0  0  0  0  0  0  0  0  0
  -11.3431  -25.2213   32.2021 N   0  0  0  0  0  0  0  0  0  0  0  0
  -11.3110  -24.1223   33.1522 C   0  0  0  0  0  0  0  0  0  0  0  0
  -12.5817  -23.4581   33.6492 C   0  0  0  0  0  0  0  0  0  0  0  0
  -13.0639  -22.1975   32.8672 C   0  0  0  0  0  0  0  0  0  0  0  0
  -12.4928  -21.8373   31.4979 N   0  0  0  0  0  0  0  0  0  0  0  0
  -12.2724  -22.6368   30.3455 C   0  0  0  0  0  0  0  0  0  0  0  0
  -12.3958  -23.8189   30.1821 O   0  0  0  0  0  0  0  0  0  0  0  0
  -11.7055  -21.8475   29.1767 C   0  0  0  0  0  0  0  0  0  0  0  0
  -11.4274  -22.8256   28.0900 C   0  0  0  0  0  0  0  0  0  0  0  0
  -10.6941  -23.9847   28.1158 C   0  0  0  0  0  0  0  0  0  0  0  0
  -10.8929  -24.7229   26.9904 N   0  0  0  0  0  0  0  0  0  0  0  0
  -11.6871  -24.0121   26.2431 C   0  0  0  0  0  0  0  0  0  0  0  0
  -12.0013  -22.8523   26.8603 N   0  0  0  0  0  0  0  0  0  0  0  0
  -11.2473  -21.7217   32.2885 C   0  0  0  0  0  0  0  0  0  0  0  0
  -10.4830  -23.0070   32.5729 C   0  0  0  0  0  0  0  0  0  0  0  0
  -10.0126  -27.2303   29.8194 H   0  0  0  0  0  0  0  0  0  0  0  0
  -11.3002  -27.6335   30.9751 H   0  0  0  0  0  0  0  0  0  0  0  0
  -11.0453  -27.0346   27.6150 H   0  0  0  0  0  0  0  0  0  0  0  0
  -12.1302  -28.1802   28.4428 H   0  0  0  0  0  0  0  0  0  0  0  0
  -13.5052  -25.6050   27.7565 H   0  0  0  0  0  0  0  0  0  0  0  0
  -12.2214  -25.6797   32.0043 H   0  0  0  0  0  0  0  0  0  0  0  0
  -10.8023  -24.5855   34.0027 H   0  0  0  0  0  0  0  0  0  0  0  0
  -12.3536  -23.0826   34.6534 H   0  0  0  0  0  0  0  0  0  0  0  0
  -13.3824  -24.1587   33.8356 H   0  0  0  0  0  0  0  0  0  0  0  0
  -14.1298  -22.3503   32.6590 H   0  0  0  0  0  0  0  0  0  0  0  0
  -13.1439  -21.3123   33.5249 H   0  0  0  0  0  0  0  0  0  0  0  0
  -12.4336  -21.0977   28.8924 H   0  0  0  0  0  0  0  0  0  0  0  0
  -10.7829  -21.3560   29.4754 H   0  0  0  0  0  0  0  0  0  0  0  0
  -10.0998  -24.3651   28.9324 H   0  0  0  0  0  0  0  0  0  0  0  0
  -12.0542  -24.2757   25.2648 H   0  0  0  0  0  0  0  0  0  0  0  0
  -12.5505  -22.1362   26.4188 H   0  0  0  0  0  0  0  0  0  0  0  0
  -11.3406  -20.9980   33.1042 H   0  0  0  0  0  0  0  0  0  0  0  0
  -10.5779  -21.1536   31.6310 H   0  0  0  0  0  0  0  0  0  0  0  0
   -9.5772  -22.8296   33.1496 H   0  0  0  0  0  0  0  0  0  0  0  0
  -10.1266  -23.3435   31.6194 H   0  0  0  0  0  0  0  0  0  0  0  0
  1  2  2  0
  2  3  1  0
  3  4  1  0
  4  5  1  0
  5  6  1  0
  6  7  1  0
  6  8  1  0
  2  9  1  0
  9 10  1  0
 10 11  1  0
 11 12  1  0
 12 13  1  0
 13 14  1  0
 14 15  2  0
 14 16  1  0
 16 17  1  0
 17 18  2  0
 18 19  1  0
 19 20  2  0
 20 21  1  0
 13 22  1  0
 22 23  1  0
 23 10  1  0
 21 17  1  0
  3 24  1  0
  3 25  1  0
  5 26  1  0
  5 27  1  0
  6 28  1  0
  9 29  1  0
 10 30  1  0
 11 31  1  0
 11 32  1  0
 12 33  1  0
 12 34  1  0
 16 35  1  0
 16 36  1  0
 18 37  1  0
 20 38  1  0
 21 39  1  0
 22 40  1  0
 22 41  1  0
 23 42  1  0
 23 43  1  0
M  END
>  <Energy>  (255) 
172.5930415267151

>  <compound_id>  (255) 
18272

>  <target_id>  (255) 
1

>  <reference_id>  (255) 
46

>  <inspiration_ids>  (255) 
[46, 64]

>  <energy_score>  (255) 
-32.00035723460394

>  <distance_score>  (255) 
2.7241907090934236

>  <path>  (255) 
/opt/xchem-fragalysis-2/maxwin/BulkDock/SCRATCH/511013/C18272-P46/C18272-P46.minimised.mol

>  <scratch_subdir>  (255) 
/opt/xchem-fragalysis-2/maxwin/BulkDock/SCRATCH/511013/C18272-P46

>  <fragmenstein_runtime>  (255) 
5.234030246734619

>  <fragmenstein_outcome>  (255) 
too moved

>  <fragmenstein_mode>  (255) 
expansion

>  <fragmenstein_error>  (255) 


$$$$
C18272-P64
     RDKit          3D

 43 44  0  0  0  0  0  0  0  0999 V2000
   -9.4032  -24.8840   33.7617 O   0  0  0  0  0  0  0  0  0  0  0  0
  -10.1646  -24.9311   32.8464 C   0  0  0  0  0  0  0  0  0  0  0  0
   -9.5837  -25.4296   31.4383 C   0  0  0  0  0  0  0  0  0  0  0  0
   -9.8151  -26.6208   30.7221 O   0  0  0  0  0  0  0  0  0  0  0  0
  -10.4404  -26.4468   29.4561 C   0  0  0  0  0  0  0  0  0  0  0  0
   -9.6402  -26.0942   28.2350 C   0  0  0  0  0  0  0  0  0  0  0  0
   -9.3396  -24.7751   28.2824 F   0  0  0  0  0  0  0  0  0  0  0  0
  -10.4061  -26.3021   27.1327 F   0  0  0  0  0  0  0  0  0  0  0  0
  -11.5118  -24.5247   32.7499 N   0  0  0  0  0  0  0  0  0  0  0  0
  -12.3571  -23.8414   33.6813 C   0  0  0  0  0  0  0  0  0  0  0  0
  -13.8528  -23.8018   33.5694 C   0  0  0  0  0  0  0  0  0  0  0  0
  -14.3240  -22.6859   32.6094 C   0  0  0  0  0  0  0  0  0  0  0  0
  -13.3762  -22.0041   31.5812 N   0  0  0  0  0  0  0  0  0  0  0  0
  -12.3325  -22.5469   30.7630 C   0  0  0  0  0  0  0  0  0  0  0  0
  -11.8620  -23.6544   30.7278 O   0  0  0  0  0  0  0  0  0  0  0  0
  -11.7440  -21.7067   29.6702 C   0  0  0  0  0  0  0  0  0  0  0  0
  -11.7993  -22.6243   28.4598 C   0  0  0  0  0  0  0  0  0  0  0  0
  -11.4958  -22.4546   27.1553 C   0  0  0  0  0  0  0  0  0  0  0  0
  -11.7684  -23.5298   26.3551 N   0  0  0  0  0  0  0  0  0  0  0  0
  -12.3090  -24.3919   27.1624 C   0  0  0  0  0  0  0  0  0  0  0  0
  -12.3298  -23.8918   28.4194 N   0  0  0  0  0  0  0  0  0  0  0  0
  -12.8108  -21.4323   32.8093 C   0  0  0  0  0  0  0  0  0  0  0  0
  -11.9762  -22.3937   33.6029 C   0  0  0  0  0  0  0  0  0  0  0  0
   -9.7205  -24.5833   30.7676 H   0  0  0  0  0  0  0  0  0  0  0  0
   -8.5014  -25.4138   31.6027 H   0  0  0  0  0  0  0  0  0  0  0  0
  -10.9477  -27.3780   29.2204 H   0  0  0  0  0  0  0  0  0  0  0  0
  -11.1690  -25.6736   29.5788 H   0  0  0  0  0  0  0  0  0  0  0  0
   -8.7409  -26.6803   28.1020 H   0  0  0  0  0  0  0  0  0  0  0  0
  -11.8219  -24.6395   31.7905 H   0  0  0  0  0  0  0  0  0  0  0  0
  -11.9541  -24.2458   34.5837 H   0  0  0  0  0  0  0  0  0  0  0  0
  -14.2857  -23.5204   34.5317 H   0  0  0  0  0  0  0  0  0  0  0  0
  -14.3181  -24.7718   33.3841 H   0  0  0  0  0  0  0  0  0  0  0  0
  -15.1103  -23.1237   31.9904 H   0  0  0  0  0  0  0  0  0  0  0  0
  -14.9581  -21.9449   33.1329 H   0  0  0  0  0  0  0  0  0  0  0  0
  -12.2860  -20.8090   29.4380 H   0  0  0  0  0  0  0  0  0  0  0  0
  -10.7414  -21.3973   29.9342 H   0  0  0  0  0  0  0  0  0  0  0  0
  -11.2104  -21.5075   26.7609 H   0  0  0  0  0  0  0  0  0  0  0  0
  -12.6614  -25.3770   26.8905 H   0  0  0  0  0  0  0  0  0  0  0  0
  -12.5861  -24.3876   29.2590 H   0  0  0  0  0  0  0  0  0  0  0  0
  -12.0356  -20.7321   32.4818 H   0  0  0  0  0  0  0  0  0  0  0  0
  -13.4830  -20.8164   33.4286 H   0  0  0  0  0  0  0  0  0  0  0  0
  -11.9780  -21.9750   34.6009 H   0  0  0  0  0  0  0  0  0  0  0  0
  -11.0119  -22.3832   33.1014 H   0  0  0  0  0  0  0  0  0  0  0  0
  1  2  2  0
  2  3  1  0
  3  4  1  0
  4  5  1  0
  5  6  1  0
  6  7  1  0
  6  8  1  0
  2  9  1  0
  9 10  1  0
 10 11  1  0
 11 12  1  0
 12 13  1  0
 13 14  1  0
 14 15  2  0
 14 16  1  0
 16 17  1  0
 17 18  2  0
 18 19  1  0
 19 20  2  0
 20 21  1  0
 13 22  1  0
 22 23  1  0
 23 10  1  0
 21 17  1  0
  3 24  1  0
  3 25  1  0
  5 26  1  0
  5 27  1  0
  6 28  1  0
  9 29  1  0
 10 30  1  0
 11 31  1  0
 11 32  1  0
 12 33  1  0
 12 34  1  0
 16 35  1  0
 16 36  1  0
 18 37  1  0
 20 38  1  0
 21 39  1  0
 22 40  1  0
 22 41  1  0
 23 42  1  0
 23 43  1  0
M  END
>  <Energy>  (256) 
205.26535137115462

>  <compound_id>  (256) 
18272

>  <target_id>  (256) 
1

>  <reference_id>  (256) 
64

>  <inspiration_ids>  (256) 
[46, 64]

>  <energy_score>  (256) 
0.6719526098361825

>  <distance_score>  (256) 
3.00144485417516

>  <path>  (256) 
/opt/xchem-fragalysis-2/maxwin/BulkDock/SCRATCH/511013/C18272-P64/C18272-P64.minimised.mol

>  <scratch_subdir>  (256) 
/opt/xchem-fragalysis-2/maxwin/BulkDock/SCRATCH/511013/C18272-P64

>  <fragmenstein_runtime>  (256) 
6.599010467529297

>  <fragmenstein_outcome>  (256) 
too moved

>  <fragmenstein_mode>  (256) 
expansion

>  <fragmenstein_error>  (256) 


$$$$
C18274-P46
     RDKit          3D

 41 42  0  0  0  0  0  0  0  0999 V2000
  -12.2997  -28.0550   29.0108 C   0  0  0  0  0  0  0  0  0  0  0  0
  -11.5637  -26.9464   29.5657 N   0  0  0  0  0  0  0  0  0  0  0  0
  -10.9493  -27.1554   30.8782 C   0  0  0  0  0  0  0  0  0  0  0  0
  -10.7981  -25.8206   31.6380 C   0  0  0  0  0  0  0  0  0  0  0  0
  -11.0146  -24.6368   30.6967 C   0  0  0  0  0  0  0  0  0  0  0  0
  -10.9972  -23.2667   31.4401 C   0  0  0  0  0  0  0  0  0  0  0  0
  -11.3744  -21.9726   30.6172 C   0  0  0  0  0  0  0  0  0  0  0  0
  -12.6414  -22.3484   29.9355 C   0  0  0  0  0  0  0  0  0  0  0  0
  -13.6785  -22.1526   30.4259 O   0  0  0  0  0  0  0  0  0  0  0  0
  -12.2757  -23.0798   28.6235 N   0  0  0  0  0  0  0  0  0  0  0  0
  -13.0456  -23.7530   27.7604 N   0  0  0  0  0  0  0  0  0  0  0  0
  -12.7921  -24.1509   26.2893 C   0  0  0  0  0  0  0  0  0  0  0  0
  -11.9081  -23.8877   25.5774 O   0  0  0  0  0  0  0  0  0  0  0  0
  -13.8653  -25.0437   25.9591 C   0  0  0  0  0  0  0  0  0  0  0  0
  -13.9448  -26.3193   26.4673 C   0  0  0  0  0  0  0  0  0  0  0  0
  -15.2066  -26.8149   26.4183 N   0  0  0  0  0  0  0  0  0  0  0  0
  -15.8789  -25.8962   25.7651 C   0  0  0  0  0  0  0  0  0  0  0  0
  -15.0766  -24.8503   25.3635 N   0  0  0  0  0  0  0  0  0  0  0  0
  -10.1410  -24.9517   29.4657 C   0  0  0  0  0  0  0  0  0  0  0  0
  -10.7166  -26.1632   28.6851 C   0  0  0  0  0  0  0  0  0  0  0  0
  -13.2770  -27.7338   28.6526 H   0  0  0  0  0  0  0  0  0  0  0  0
  -12.5557  -28.8069   29.7639 H   0  0  0  0  0  0  0  0  0  0  0  0
  -11.8041  -28.5263   28.1706 H   0  0  0  0  0  0  0  0  0  0  0  0
   -9.9728  -27.6337   30.7785 H   0  0  0  0  0  0  0  0  0  0  0  0
  -11.5526  -27.8256   31.5022 H   0  0  0  0  0  0  0  0  0  0  0  0
  -11.5206  -25.7722   32.4572 H   0  0  0  0  0  0  0  0  0  0  0  0
   -9.8023  -25.7577   32.0900 H   0  0  0  0  0  0  0  0  0  0  0  0
  -12.0452  -24.7195   30.3637 H   0  0  0  0  0  0  0  0  0  0  0  0
  -11.7599  -23.3440   32.2314 H   0  0  0  0  0  0  0  0  0  0  0  0
  -10.0787  -23.1403   32.0139 H   0  0  0  0  0  0  0  0  0  0  0  0
  -10.6663  -21.6107   29.8774 H   0  0  0  0  0  0  0  0  0  0  0  0
  -11.5504  -21.1692   31.3329 H   0  0  0  0  0  0  0  0  0  0  0  0
  -11.2842  -22.9952   28.4551 H   0  0  0  0  0  0  0  0  0  0  0  0
  -13.8824  -24.2290   28.1035 H   0  0  0  0  0  0  0  0  0  0  0  0
  -13.1281  -26.8613   26.9023 H   0  0  0  0  0  0  0  0  0  0  0  0
  -16.9393  -25.9179   25.5523 H   0  0  0  0  0  0  0  0  0  0  0  0
  -15.3990  -23.9896   24.9474 H   0  0  0  0  0  0  0  0  0  0  0  0
   -9.9899  -24.1174   28.7915 H   0  0  0  0  0  0  0  0  0  0  0  0
   -9.1361  -25.2103   29.8169 H   0  0  0  0  0  0  0  0  0  0  0  0
   -9.8924  -26.7648   28.2957 H   0  0  0  0  0  0  0  0  0  0  0  0
  -11.2848  -25.8057   27.8279 H   0  0  0  0  0  0  0  0  0  0  0  0
  1  2  1  0
  2  3  1  0
  3  4  1  0
  4  5  1  0
  5  6  1  0
  6  7  1  0
  7  8  1  0
  8  9  2  0
  8 10  1  0
 10 11  1  0
 11 12  1  0
 12 13  2  0
 12 14  1  0
 14 15  2  0
 15 16  1  0
 16 17  2  0
 17 18  1  0
  5 19  1  0
 19 20  1  0
 20  2  1  0
 18 14  1  0
  1 21  1  0
  1 22  1  0
  1 23  1  0
  3 24  1  0
  3 25  1  0
  4 26  1  0
  4 27  1  0
  5 28  1  0
  6 29  1  0
  6 30  1  0
  7 31  1  0
  7 32  1  0
 10 33  1  0
 11 34  1  0
 15 35  1  0
 17 36  1  0
 18 37  1  0
 19 38  1  0
 19 39  1  0
 20 40  1  0
 20 41  1  0
M  END
>  <Energy>  (257) 
107.04784571988779

>  <compound_id>  (257) 
18274

>  <target_id>  (257) 
1

>  <reference_id>  (257) 
46

>  <inspiration_ids>  (257) 
[46, 64]

>  <energy_score>  (257) 
35.95030424389233

>  <distance_score>  (257) 
3.6303508738882226

>  <path>  (257) 
/opt/xchem-fragalysis-2/maxwin/BulkDock/SCRATCH/511013/C18274-P46/C18274-P46.minimised.mol

>  <scratch_subdir>  (257) 
/opt/xchem-fragalysis-2/maxwin/BulkDock/SCRATCH/511013/C18274-P46

>  <fragmenstein_runtime>  (257) 
4.555204391479492

>  <fragmenstein_outcome>  (257) 
too moved

>  <fragmenstein_mode>  (257) 
expansion

>  <fragmenstein_error>  (257) 


$$$$
C18274-P64
     RDKit          3D

 41 42  0  0  0  0  0  0  0  0999 V2000
  -12.8008  -25.3104   25.7361 C   0  0  0  0  0  0  0  0  0  0  0  0
  -11.5653  -25.1296   26.5043 N   0  0  0  0  0  0  0  0  0  0  0  0
  -11.2719  -26.3579   27.2337 C   0  0  0  0  0  0  0  0  0  0  0  0
  -10.3621  -26.2106   28.4515 C   0  0  0  0  0  0  0  0  0  0  0  0
  -10.6757  -24.9923   29.3365 C   0  0  0  0  0  0  0  0  0  0  0  0
   -9.8670  -25.1052   30.6396 C   0  0  0  0  0  0  0  0  0  0  0  0
  -10.2142  -24.3740   31.9558 C   0  0  0  0  0  0  0  0  0  0  0  0
  -11.4180  -23.4222   32.0117 C   0  0  0  0  0  0  0  0  0  0  0  0
  -11.6139  -22.6199   31.1436 O   0  0  0  0  0  0  0  0  0  0  0  0
  -12.2117  -23.7723   33.1769 N   0  0  0  0  0  0  0  0  0  0  0  0
  -13.4395  -23.3623   33.5682 N   0  0  0  0  0  0  0  0  0  0  0  0
  -14.2910  -22.3301   33.0605 C   0  0  0  0  0  0  0  0  0  0  0  0
  -14.1049  -21.5096   32.2118 O   0  0  0  0  0  0  0  0  0  0  0  0
  -15.6123  -22.4018   33.6429 C   0  0  0  0  0  0  0  0  0  0  0  0
  -16.3731  -23.4976   33.9988 C   0  0  0  0  0  0  0  0  0  0  0  0
  -17.6317  -23.1186   34.3787 N   0  0  0  0  0  0  0  0  0  0  0  0
  -17.6551  -21.8135   34.2436 C   0  0  0  0  0  0  0  0  0  0  0  0
  -16.4633  -21.3354   33.7861 N   0  0  0  0  0  0  0  0  0  0  0  0
  -10.6248  -23.7871   28.4068 C   0  0  0  0  0  0  0  0  0  0  0  0
  -11.7082  -23.9398   27.3413 C   0  0  0  0  0  0  0  0  0  0  0  0
  -13.0375  -24.4046   25.1691 H   0  0  0  0  0  0  0  0  0  0  0  0
  -13.6628  -25.5243   26.3802 H   0  0  0  0  0  0  0  0  0  0  0  0
  -12.6952  -26.1428   25.0332 H   0  0  0  0  0  0  0  0  0  0  0  0
  -10.7993  -27.0535   26.5316 H   0  0  0  0  0  0  0  0  0  0  0  0
  -12.1931  -26.8571   27.5439 H   0  0  0  0  0  0  0  0  0  0  0  0
  -10.4421  -27.1236   29.0458 H   0  0  0  0  0  0  0  0  0  0  0  0
   -9.3240  -26.1481   28.1098 H   0  0  0  0  0  0  0  0  0  0  0  0
  -11.6937  -24.9926   29.6569 H   0  0  0  0  0  0  0  0  0  0  0  0
   -8.8253  -24.9422   30.4093 H   0  0  0  0  0  0  0  0  0  0  0  0
   -9.8819  -26.1675   30.9235 H   0  0  0  0  0  0  0  0  0  0  0  0
   -9.3477  -23.8322   32.3372 H   0  0  0  0  0  0  0  0  0  0  0  0
  -10.3413  -25.1717   32.6974 H   0  0  0  0  0  0  0  0  0  0  0  0
  -11.7798  -24.5531   33.6490 H   0  0  0  0  0  0  0  0  0  0  0  0
  -13.9014  -23.8197   34.3491 H   0  0  0  0  0  0  0  0  0  0  0  0
  -16.0919  -24.5441   33.9635 H   0  0  0  0  0  0  0  0  0  0  0  0
  -18.5005  -21.1704   34.4509 H   0  0  0  0  0  0  0  0  0  0  0  0
  -16.2406  -20.3754   33.5613 H   0  0  0  0  0  0  0  0  0  0  0  0
  -10.8574  -22.8523   28.9169 H   0  0  0  0  0  0  0  0  0  0  0  0
   -9.6372  -23.6957   27.9487 H   0  0  0  0  0  0  0  0  0  0  0  0
  -11.6873  -23.0551   26.7009 H   0  0  0  0  0  0  0  0  0  0  0  0
  -12.6790  -23.9409   27.8505 H   0  0  0  0  0  0  0  0  0  0  0  0
  1  2  1  0
  2  3  1  0
  3  4  1  0
  4  5  1  0
  5  6  1  0
  6  7  1  0
  7  8  1  0
  8  9  2  0
  8 10  1  0
 10 11  1  0
 11 12  1  0
 12 13  2  0
 12 14  1  0
 14 15  2  0
 15 16  1  0
 16 17  2  0
 17 18  1  0
  5 19  1  0
 19 20  1  0
 20  2  1  0
 18 14  1  0
  1 21  1  0
  1 22  1  0
  1 23  1  0
  3 24  1  0
  3 25  1  0
  4 26  1  0
  4 27  1  0
  5 28  1  0
  6 29  1  0
  6 30  1  0
  7 31  1  0
  7 32  1  0
 10 33  1  0
 11 34  1  0
 15 35  1  0
 17 36  1  0
 18 37  1  0
 19 38  1  0
 19 39  1  0
 20 40  1  0
 20 41  1  0
M  END
>  <Energy>  (258) 
70.381902120040223

>  <compound_id>  (258) 
18274

>  <target_id>  (258) 
1

>  <reference_id>  (258) 
64

>  <inspiration_ids>  (258) 
[46, 64]

>  <energy_score>  (258) 
22.052842237883596

>  <distance_score>  (258) 
3.25982318945999

>  <path>  (258) 
/opt/xchem-fragalysis-2/maxwin/BulkDock/SCRATCH/511013/C18274-P64/C18274-P64.minimised.mol

>  <scratch_subdir>  (258) 
/opt/xchem-fragalysis-2/maxwin/BulkDock/SCRATCH/511013/C18274-P64

>  <fragmenstein_runtime>  (258) 
6.365365266799927

>  <fragmenstein_outcome>  (258) 
too moved

>  <fragmenstein_mode>  (258) 
expansion

>  <fragmenstein_error>  (258) 


$$$$
C18276-P46
     RDKit          3D

 54 55  0  0  0  0  0  0  0  0999 V2000
  -10.5749  -27.6906   26.1209 C   0  0  0  0  0  0  0  0  0  0  0  0
  -11.4371  -26.5216   25.9064 C   0  0  0  0  0  0  0  0  0  0  0  0
  -11.3329  -25.6546   27.1398 C   0  0  0  0  0  0  0  0  0  0  0  0
  -10.9954  -24.2427   26.6443 C   0  0  0  0  0  0  0  0  0  0  0  0
  -11.8484  -23.7685   25.4669 C   0  0  0  0  0  0  0  0  0  0  0  0
  -10.6871  -26.2620   28.4730 C   0  0  0  0  0  0  0  0  0  0  0  0
  -10.0408  -25.3314   29.4925 C   0  0  0  0  0  0  0  0  0  0  0  0
   -9.5703  -24.3293   29.0590 O   0  0  0  0  0  0  0  0  0  0  0  0
  -10.0363  -25.8641   30.8161 N   0  0  0  0  0  0  0  0  0  0  0  0
   -9.3843  -25.4074   32.0133 C   0  0  0  0  0  0  0  0  0  0  0  0
  -10.0985  -24.6575   33.1545 C   0  0  0  0  0  0  0  0  0  0  0  0
  -11.5371  -24.9636   33.4969 C   0  0  0  0  0  0  0  0  0  0  0  0
  -12.4166  -23.6980   33.5900 C   0  0  0  0  0  0  0  0  0  0  0  0
  -12.2202  -22.9212   32.3079 N   0  0  0  0  0  0  0  0  0  0  0  0
  -13.0030  -21.9258   31.7057 C   0  0  0  0  0  0  0  0  0  0  0  0
  -13.9890  -21.3663   32.0963 O   0  0  0  0  0  0  0  0  0  0  0  0
  -12.1890  -21.6244   30.3472 C   0  0  0  0  0  0  0  0  0  0  0  0
  -12.3436  -22.7748   29.4929 C   0  0  0  0  0  0  0  0  0  0  0  0
  -12.2971  -24.0871   29.8027 C   0  0  0  0  0  0  0  0  0  0  0  0
  -13.1677  -24.7613   29.0157 N   0  0  0  0  0  0  0  0  0  0  0  0
  -13.4470  -23.9352   28.0515 C   0  0  0  0  0  0  0  0  0  0  0  0
  -12.8162  -22.7574   28.2362 N   0  0  0  0  0  0  0  0  0  0  0  0
  -11.1770  -22.3280   33.0686 C   0  0  0  0  0  0  0  0  0  0  0  0
   -9.9689  -23.1899   32.8521 C   0  0  0  0  0  0  0  0  0  0  0  0
  -11.1371  -28.1981   26.8984 H   0  0  0  0  0  0  0  0  0  0  0  0
   -9.5847  -27.5511   26.5108 H   0  0  0  0  0  0  0  0  0  0  0  0
  -10.4200  -28.2758   25.2251 H   0  0  0  0  0  0  0  0  0  0  0  0
  -11.2061  -26.0427   24.9606 H   0  0  0  0  0  0  0  0  0  0  0  0
  -12.4913  -26.7895   25.7611 H   0  0  0  0  0  0  0  0  0  0  0  0
  -12.3803  -25.7149   27.3776 H   0  0  0  0  0  0  0  0  0  0  0  0
   -9.9866  -24.1713   26.2992 H   0  0  0  0  0  0  0  0  0  0  0  0
  -10.9451  -23.5011   27.4247 H   0  0  0  0  0  0  0  0  0  0  0  0
  -12.7927  -24.3051   25.3554 H   0  0  0  0  0  0  0  0  0  0  0  0
  -12.0874  -22.7166   25.5531 H   0  0  0  0  0  0  0  0  0  0  0  0
  -11.2719  -23.8605   24.5443 H   0  0  0  0  0  0  0  0  0  0  0  0
  -11.4420  -26.8914   28.9602 H   0  0  0  0  0  0  0  0  0  0  0  0
   -9.8444  -26.9119   28.2608 H   0  0  0  0  0  0  0  0  0  0  0  0
  -10.6075  -26.7011   30.8371 H   0  0  0  0  0  0  0  0  0  0  0  0
   -8.7968  -26.2190   32.3673 H   0  0  0  0  0  0  0  0  0  0  0  0
   -8.5872  -24.7583   31.6592 H   0  0  0  0  0  0  0  0  0  0  0  0
   -9.5141  -24.8729   34.0562 H   0  0  0  0  0  0  0  0  0  0  0  0
  -11.5575  -25.4634   34.4687 H   0  0  0  0  0  0  0  0  0  0  0  0
  -11.9234  -25.6305   32.7285 H   0  0  0  0  0  0  0  0  0  0  0  0
  -12.3876  -23.2274   34.5860 H   0  0  0  0  0  0  0  0  0  0  0  0
  -13.4658  -23.9716   33.5971 H   0  0  0  0  0  0  0  0  0  0  0  0
  -11.1364  -21.4127   30.5375 H   0  0  0  0  0  0  0  0  0  0  0  0
  -12.5598  -20.8163   29.7342 H   0  0  0  0  0  0  0  0  0  0  0  0
  -11.9493  -24.5325   30.7168 H   0  0  0  0  0  0  0  0  0  0  0  0
  -13.9736  -24.2192   27.1534 H   0  0  0  0  0  0  0  0  0  0  0  0
  -12.6561  -22.0533   27.5312 H   0  0  0  0  0  0  0  0  0  0  0  0
  -10.9037  -21.3981   32.5412 H   0  0  0  0  0  0  0  0  0  0  0  0
  -11.5119  -21.8525   33.9952 H   0  0  0  0  0  0  0  0  0  0  0  0
   -9.0425  -22.7832   33.2584 H   0  0  0  0  0  0  0  0  0  0  0  0
   -9.9211  -23.1717   31.7790 H   0  0  0  0  0  0  0  0  0  0  0  0
  1  2  1  0
  2  3  1  0
  3  4  1  0
  4  5  1  0
  3  6  1  0
  6  7  1  0
  7  8  2  0
  7  9  1  0
  9 10  1  0
 10 11  1  0
 11 12  1  0
 12 13  1  0
 13 14  1  0
 14 15  1  0
 15 16  2  0
 15 17  1  0
 17 18  1  0
 18 19  2  0
 19 20  1  0
 20 21  2  0
 21 22  1  0
 14 23  1  0
 23 24  1  0
 24 11  1  0
 22 18  1  0
  1 25  1  0
  1 26  1  0
  1 27  1  0
  2 28  1  0
  2 29  1  0
  3 30  1  0
  4 31  1  0
  4 32  1  0
  5 33  1  0
  5 34  1  0
  5 35  1  0
  6 36  1  0
  6 37  1  0
  9 38  1  0
 10 39  1  0
 10 40  1  0
 11 41  1  0
 12 42  1  0
 12 43  1  0
 13 44  1  0
 13 45  1  0
 17 46  1  0
 17 47  1  0
 19 48  1  0
 21 49  1  0
 22 50  1  0
 23 51  1  0
 23 52  1  0
 24 53  1  0
 24 54  1  0
M  END
>  <Energy>  (259) 
215.22662275660093

>  <compound_id>  (259) 
18276

>  <target_id>  (259) 
1

>  <reference_id>  (259) 
46

>  <inspiration_ids>  (259) 
[46, 64]

>  <energy_score>  (259) 
171.19283687818523

>  <distance_score>  (259) 
2.6220730984462577

>  <path>  (259) 
/opt/xchem-fragalysis-2/maxwin/BulkDock/SCRATCH/511013/C18276-P46/C18276-P46.minimised.mol

>  <scratch_subdir>  (259) 
/opt/xchem-fragalysis-2/maxwin/BulkDock/SCRATCH/511013/C18276-P46

>  <fragmenstein_runtime>  (259) 
20.42270302772522

>  <fragmenstein_outcome>  (259) 
too moved

>  <fragmenstein_mode>  (259) 
expansion

>  <fragmenstein_error>  (259) 


$$$$
C18276-P64
     RDKit          3D

 54 55  0  0  0  0  0  0  0  0999 V2000
  -11.0067  -24.8978   25.7683 C   0  0  0  0  0  0  0  0  0  0  0  0
  -10.3285  -25.2790   27.0839 C   0  0  0  0  0  0  0  0  0  0  0  0
  -11.1774  -26.0851   28.0194 C   0  0  0  0  0  0  0  0  0  0  0  0
  -11.9296  -27.1803   27.2425 C   0  0  0  0  0  0  0  0  0  0  0  0
  -13.2504  -26.6757   26.6228 C   0  0  0  0  0  0  0  0  0  0  0  0
  -10.3555  -26.5542   29.2425 C   0  0  0  0  0  0  0  0  0  0  0  0
  -10.0018  -25.4971   30.3562 C   0  0  0  0  0  0  0  0  0  0  0  0
   -9.1120  -24.7702   30.0554 O   0  0  0  0  0  0  0  0  0  0  0  0
  -10.8344  -25.5184   31.5145 N   0  0  0  0  0  0  0  0  0  0  0  0
  -10.9263  -24.6093   32.6437 C   0  0  0  0  0  0  0  0  0  0  0  0
  -12.2832  -24.4970   33.7172 C   0  0  0  0  0  0  0  0  0  0  0  0
  -13.9883  -24.7175   33.7498 C   0  0  0  0  0  0  0  0  0  0  0  0
  -14.7646  -23.4746   33.2730 C   0  0  0  0  0  0  0  0  0  0  0  0
  -13.7283  -22.7612   32.5173 N   0  0  0  0  0  0  0  0  0  0  0  0
  -13.8107  -21.7646   31.6286 C   0  0  0  0  0  0  0  0  0  0  0  0
  -14.7467  -21.1156   31.2689 O   0  0  0  0  0  0  0  0  0  0  0  0
  -12.2632  -21.6547   31.2311 C   0  0  0  0  0  0  0  0  0  0  0  0
  -12.0000  -22.1073   29.9018 C   0  0  0  0  0  0  0  0  0  0  0  0
  -12.1261  -23.3388   29.3703 C   0  0  0  0  0  0  0  0  0  0  0  0
  -12.1061  -23.3147   28.0431 N   0  0  0  0  0  0  0  0  0  0  0  0
  -11.5268  -22.1851   27.8041 C   0  0  0  0  0  0  0  0  0  0  0  0
  -11.3674  -21.4564   28.9271 N   0  0  0  0  0  0  0  0  0  0  0  0
  -13.4356  -22.2389   33.8063 C   0  0  0  0  0  0  0  0  0  0  0  0
  -12.2472  -23.0481   34.2222 C   0  0  0  0  0  0  0  0  0  0  0  0
  -11.1757  -25.7762   25.1402 H   0  0  0  0  0  0  0  0  0  0  0  0
  -11.9609  -24.3867   25.9000 H   0  0  0  0  0  0  0  0  0  0  0  0
  -10.3882  -24.2402   25.1650 H   0  0  0  0  0  0  0  0  0  0  0  0
   -9.5102  -25.9641   26.9357 H   0  0  0  0  0  0  0  0  0  0  0  0
   -9.9065  -24.3938   27.5646 H   0  0  0  0  0  0  0  0  0  0  0  0
  -11.9174  -25.4138   28.3640 H   0  0  0  0  0  0  0  0  0  0  0  0
  -12.1564  -28.0357   27.8823 H   0  0  0  0  0  0  0  0  0  0  0  0
  -11.2909  -27.5678   26.4443 H   0  0  0  0  0  0  0  0  0  0  0  0
  -13.2038  -26.7004   25.5304 H   0  0  0  0  0  0  0  0  0  0  0  0
  -14.0841  -27.3150   26.9318 H   0  0  0  0  0  0  0  0  0  0  0  0
  -13.5134  -25.6526   26.9031 H   0  0  0  0  0  0  0  0  0  0  0  0
  -10.8255  -27.4181   29.6636 H   0  0  0  0  0  0  0  0  0  0  0  0
   -9.4133  -26.9491   28.8651 H   0  0  0  0  0  0  0  0  0  0  0  0
  -11.5213  -26.2058   31.4006 H   0  0  0  0  0  0  0  0  0  0  0  0
  -10.1290  -24.9666   33.3085 H   0  0  0  0  0  0  0  0  0  0  0  0
  -10.5276  -23.6527   32.3193 H   0  0  0  0  0  0  0  0  0  0  0  0
  -11.9229  -25.2248   34.4526 H   0  0  0  0  0  0  0  0  0  0  0  0
  -14.3466  -24.8876   34.7635 H   0  0  0  0  0  0  0  0  0  0  0  0
  -14.4394  -25.5987   33.2953 H   0  0  0  0  0  0  0  0  0  0  0  0
  -15.4767  -23.0152   33.9821 H   0  0  0  0  0  0  0  0  0  0  0  0
  -15.4939  -23.8034   32.5174 H   0  0  0  0  0  0  0  0  0  0  0  0
  -11.7328  -20.7847   31.5873 H   0  0  0  0  0  0  0  0  0  0  0  0
  -11.7117  -22.3770   31.8040 H   0  0  0  0  0  0  0  0  0  0  0  0
  -12.2519  -24.2258   29.9194 H   0  0  0  0  0  0  0  0  0  0  0  0
  -11.3097  -21.8007   26.8344 H   0  0  0  0  0  0  0  0  0  0  0  0
  -10.9805  -20.5299   28.9430 H   0  0  0  0  0  0  0  0  0  0  0  0
  -14.2719  -21.8420   34.3923 H   0  0  0  0  0  0  0  0  0  0  0  0
  -12.9790  -21.2364   33.6719 H   0  0  0  0  0  0  0  0  0  0  0  0
  -11.4303  -22.5579   33.7197 H   0  0  0  0  0  0  0  0  0  0  0  0
  -12.0658  -22.9569   35.2773 H   0  0  0  0  0  0  0  0  0  0  0  0
  1  2  1  0
  2  3  1  0
  3  4  1  0
  4  5  1  0
  3  6  1  0
  6  7  1  0
  7  8  2  0
  7  9  1  0
  9 10  1  0
 10 11  1  0
 11 12  1  0
 12 13  1  0
 13 14  1  0
 14 15  1  0
 15 16  2  0
 15 17  1  0
 17 18  1  0
 18 19  2  0
 19 20  1  0
 20 21  2  0
 21 22  1  0
 14 23  1  0
 23 24  1  0
 24 11  1  0
 22 18  1  0
  1 25  1  0
  1 26  1  0
  1 27  1  0
  2 28  1  0
  2 29  1  0
  3 30  1  0
  4 31  1  0
  4 32  1  0
  5 33  1  0
  5 34  1  0
  5 35  1  0
  6 36  1  0
  6 37  1  0
  9 38  1  0
 10 39  1  0
 10 40  1  0
 11 41  1  0
 12 42  1  0
 12 43  1  0
 13 44  1  0
 13 45  1  0
 17 46  1  0
 17 47  1  0
 19 48  1  0
 21 49  1  0
 22 50  1  0
 23 51  1  0
 23 52  1  0
 24 53  1  0
 24 54  1  0
M  END
>  <Energy>  (260) 
231.20300021047601

>  <compound_id>  (260) 
18276

>  <target_id>  (260) 
1

>  <reference_id>  (260) 
64

>  <inspiration_ids>  (260) 
[46, 64]

>  <energy_score>  (260) 
187.16921433206244

>  <distance_score>  (260) 
3.0681278061416304

>  <path>  (260) 
/opt/xchem-fragalysis-2/maxwin/BulkDock/SCRATCH/511013/C18276-P64/C18276-P64.minimised.mol

>  <scratch_subdir>  (260) 
/opt/xchem-fragalysis-2/maxwin/BulkDock/SCRATCH/511013/C18276-P64

>  <fragmenstein_runtime>  (260) 
16.472105503082275

>  <fragmenstein_outcome>  (260) 
too moved

>  <fragmenstein_mode>  (260) 
expansion

>  <fragmenstein_error>  (260) 


$$$$
C18277-P46
     RDKit          3D

 56 57  0  0  0  0  0  0  0  0999 V2000
  -12.0293  -23.4140   25.6494 C   0  0  0  0  0  0  0  0  0  0  0  0
  -12.9683  -24.4863   26.1193 C   0  0  0  0  0  0  0  0  0  0  0  0
  -12.5763  -24.9580   27.5128 N   0  0  0  0  0  0  0  0  0  0  0  0
  -12.9725  -26.3209   26.9111 C   0  0  0  0  0  0  0  0  0  0  0  0
  -13.6503  -27.2554   27.9159 C   0  0  0  0  0  0  0  0  0  0  0  0
  -13.2172  -24.1578   28.5133 C   0  0  0  0  0  0  0  0  0  0  0  0
  -14.2616  -24.3096   29.0625 O   0  0  0  0  0  0  0  0  0  0  0  0
  -12.5605  -22.7759   28.9719 C   0  0  0  0  0  0  0  0  0  0  0  0
  -11.0746  -22.8424   28.8207 C   0  0  0  0  0  0  0  0  0  0  0  0
  -13.0523  -22.2733   30.4092 N   0  0  0  0  0  0  0  0  0  0  0  0
  -14.4380  -21.8640   30.8820 C   0  0  0  0  0  0  0  0  0  0  0  0
  -14.7998  -21.6077   32.3492 C   0  0  0  0  0  0  0  0  0  0  0  0
  -13.7798  -22.0772   33.3153 C   0  0  0  0  0  0  0  0  0  0  0  0
  -12.3599  -21.9073   32.8198 C   0  0  0  0  0  0  0  0  0  0  0  0
  -11.5620  -22.9756   33.4943 C   0  0  0  0  0  0  0  0  0  0  0  0
  -11.5837  -24.2866   32.9753 N   0  0  0  0  0  0  0  0  0  0  0  0
  -11.0096  -25.4910   33.4629 C   0  0  0  0  0  0  0  0  0  0  0  0
  -10.4262  -25.7212   34.4811 O   0  0  0  0  0  0  0  0  0  0  0  0
  -11.1586  -26.5856   32.3825 C   0  0  0  0  0  0  0  0  0  0  0  0
  -10.5093  -26.2585   31.1214 C   0  0  0  0  0  0  0  0  0  0  0  0
   -9.5834  -25.3185   30.7949 C   0  0  0  0  0  0  0  0  0  0  0  0
   -9.3319  -25.3588   29.4584 N   0  0  0  0  0  0  0  0  0  0  0  0
  -10.0714  -26.3328   28.9846 C   0  0  0  0  0  0  0  0  0  0  0  0
  -10.7683  -26.9362   29.9733 N   0  0  0  0  0  0  0  0  0  0  0  0
  -12.0023  -21.9375   31.3362 C   0  0  0  0  0  0  0  0  0  0  0  0
  -11.0437  -23.8659   25.5055 H   0  0  0  0  0  0  0  0  0  0  0  0
  -12.3528  -23.0087   24.6850 H   0  0  0  0  0  0  0  0  0  0  0  0
  -11.9307  -22.5968   26.3507 H   0  0  0  0  0  0  0  0  0  0  0  0
  -12.8038  -25.1742   25.2703 H   0  0  0  0  0  0  0  0  0  0  0  0
  -14.0083  -24.1679   26.0974 H   0  0  0  0  0  0  0  0  0  0  0  0
  -13.7932  -26.3431   26.1659 H   0  0  0  0  0  0  0  0  0  0  0  0
  -12.0567  -26.7730   26.5160 H   0  0  0  0  0  0  0  0  0  0  0  0
  -14.5540  -26.7932   28.3192 H   0  0  0  0  0  0  0  0  0  0  0  0
  -12.9719  -27.5867   28.6938 H   0  0  0  0  0  0  0  0  0  0  0  0
  -14.0331  -28.1539   27.4291 H   0  0  0  0  0  0  0  0  0  0  0  0
  -12.8660  -22.0200   28.2761 H   0  0  0  0  0  0  0  0  0  0  0  0
  -10.6254  -21.8621   28.9805 H   0  0  0  0  0  0  0  0  0  0  0  0
  -10.7177  -23.2097   27.8623 H   0  0  0  0  0  0  0  0  0  0  0  0
  -10.7384  -23.5711   29.5333 H   0  0  0  0  0  0  0  0  0  0  0  0
  -15.2019  -22.5272   30.5091 H   0  0  0  0  0  0  0  0  0  0  0  0
  -14.8370  -20.9427   30.4767 H   0  0  0  0  0  0  0  0  0  0  0  0
  -15.7636  -22.0817   32.5792 H   0  0  0  0  0  0  0  0  0  0  0  0
  -14.9786  -20.5395   32.5158 H   0  0  0  0  0  0  0  0  0  0  0  0
  -13.9981  -23.1117   33.6005 H   0  0  0  0  0  0  0  0  0  0  0  0
  -13.9052  -21.5023   34.2380 H   0  0  0  0  0  0  0  0  0  0  0  0
  -12.0227  -20.9354   33.2040 H   0  0  0  0  0  0  0  0  0  0  0  0
  -11.8474  -23.0531   34.5451 H   0  0  0  0  0  0  0  0  0  0  0  0
  -10.5149  -22.7076   33.3555 H   0  0  0  0  0  0  0  0  0  0  0  0
  -12.0759  -24.4831   32.1039 H   0  0  0  0  0  0  0  0  0  0  0  0
  -10.8677  -27.5695   32.7381 H   0  0  0  0  0  0  0  0  0  0  0  0
  -12.2009  -26.7051   32.1517 H   0  0  0  0  0  0  0  0  0  0  0  0
   -9.0942  -24.6339   31.4718 H   0  0  0  0  0  0  0  0  0  0  0  0
  -10.1270  -26.6506   27.9555 H   0  0  0  0  0  0  0  0  0  0  0  0
  -11.3596  -27.7451   29.8827 H   0  0  0  0  0  0  0  0  0  0  0  0
  -11.1689  -22.6257   31.2196 H   0  0  0  0  0  0  0  0  0  0  0  0
  -11.5496  -20.9916   31.0569 H   0  0  0  0  0  0  0  0  0  0  0  0
  1  2  1  0
  2  3  1  0
  3  4  1  0
  4  5  1  0
  3  6  1  0
  6  7  2  0
  6  8  1  0
  8  9  1  0
  8 10  1  0
 10 11  1  0
 11 12  1  0
 12 13  1  0
 13 14  1  0
 14 15  1  0
 15 16  1  0
 16 17  1  0
 17 18  2  0
 17 19  1  0
 19 20  1  0
 20 21  2  0
 21 22  1  0
 22 23  2  0
 23 24  1  0
 14 25  1  0
 25 10  1  0
 24 20  1  0
  1 26  1  0
  1 27  1  0
  1 28  1  0
  2 29  1  0
  2 30  1  0
  4 31  1  0
  4 32  1  0
  5 33  1  0
  5 34  1  0
  5 35  1  0
  8 36  1  0
  9 37  1  0
  9 38  1  0
  9 39  1  0
 11 40  1  0
 11 41  1  0
 12 42  1  0
 12 43  1  0
 13 44  1  0
 13 45  1  0
 14 46  1  0
 15 47  1  0
 15 48  1  0
 16 49  1  0
 19 50  1  0
 19 51  1  0
 21 52  1  0
 23 53  1  0
 24 54  1  0
 25 55  1  0
 25 56  1  0
M  END
>  <Energy>  (261) 
205.92917892285726

>  <compound_id>  (261) 
18277

>  <target_id>  (261) 
1

>  <reference_id>  (261) 
46

>  <inspiration_ids>  (261) 
[46, 64]

>  <energy_score>  (261) 
107.65497111676319

>  <distance_score>  (261) 
3.530434146436351

>  <path>  (261) 
/opt/xchem-fragalysis-2/maxwin/BulkDock/SCRATCH/511013/C18277-P46/C18277-P46.minimised.mol

>  <scratch_subdir>  (261) 
/opt/xchem-fragalysis-2/maxwin/BulkDock/SCRATCH/511013/C18277-P46

>  <fragmenstein_runtime>  (261) 
14.364761114120483

>  <fragmenstein_outcome>  (261) 
too moved

>  <fragmenstein_mode>  (261) 
expansion

>  <fragmenstein_error>  (261) 


$$$$
C18277-P64
     RDKit          3D

 56 57  0  0  0  0  0  0  0  0999 V2000
  -12.1846  -23.1165   25.3160 C   0  0  0  0  0  0  0  0  0  0  0  0
  -13.2248  -23.9828   25.9478 C   0  0  0  0  0  0  0  0  0  0  0  0
  -13.0357  -24.7706   27.3644 N   0  0  0  0  0  0  0  0  0  0  0  0
  -14.2824  -25.6031   26.7637 C   0  0  0  0  0  0  0  0  0  0  0  0
  -14.8911  -26.8092   27.5032 C   0  0  0  0  0  0  0  0  0  0  0  0
  -12.9521  -23.7606   28.5722 C   0  0  0  0  0  0  0  0  0  0  0  0
  -13.8594  -23.3770   29.1971 O   0  0  0  0  0  0  0  0  0  0  0  0
  -11.6903  -23.2460   29.1774 C   0  0  0  0  0  0  0  0  0  0  0  0
  -10.9160  -22.2936   28.3781 C   0  0  0  0  0  0  0  0  0  0  0  0
  -12.0343  -22.3498   30.5573 N   0  0  0  0  0  0  0  0  0  0  0  0
  -13.2412  -22.3594   31.4463 C   0  0  0  0  0  0  0  0  0  0  0  0
  -13.1951  -22.8461   32.9168 C   0  0  0  0  0  0  0  0  0  0  0  0
  -12.0038  -23.7053   33.2815 C   0  0  0  0  0  0  0  0  0  0  0  0
  -10.7498  -23.5063   32.4087 C   0  0  0  0  0  0  0  0  0  0  0  0
  -10.1102  -24.8719   32.0169 C   0  0  0  0  0  0  0  0  0  0  0  0
   -9.8190  -25.1080   30.6434 N   0  0  0  0  0  0  0  0  0  0  0  0
   -9.8391  -26.3025   29.8780 C   0  0  0  0  0  0  0  0  0  0  0  0
  -10.0281  -27.4284   30.2012 O   0  0  0  0  0  0  0  0  0  0  0  0
   -9.4589  -26.0377   28.4600 C   0  0  0  0  0  0  0  0  0  0  0  0
  -10.4689  -26.0844   27.4248 C   0  0  0  0  0  0  0  0  0  0  0  0
  -10.5770  -25.1872   26.4106 C   0  0  0  0  0  0  0  0  0  0  0  0
  -11.0810  -25.7651   25.2910 N   0  0  0  0  0  0  0  0  0  0  0  0
  -11.3462  -26.9833   25.6592 C   0  0  0  0  0  0  0  0  0  0  0  0
  -11.2228  -27.1382   27.0088 N   0  0  0  0  0  0  0  0  0  0  0  0
  -10.9896  -22.2657   31.5390 C   0  0  0  0  0  0  0  0  0  0  0  0
  -11.4517  -23.6342   24.7013 H   0  0  0  0  0  0  0  0  0  0  0  0
  -11.6971  -22.5809   26.0923 H   0  0  0  0  0  0  0  0  0  0  0  0
  -12.6379  -22.4304   24.5892 H   0  0  0  0  0  0  0  0  0  0  0  0
  -13.3029  -24.7031   25.1256 H   0  0  0  0  0  0  0  0  0  0  0  0
  -14.1688  -23.4415   25.8742 H   0  0  0  0  0  0  0  0  0  0  0  0
  -15.1501  -24.9492   26.6115 H   0  0  0  0  0  0  0  0  0  0  0  0
  -13.9787  -26.1167   25.8421 H   0  0  0  0  0  0  0  0  0  0  0  0
  -15.4219  -26.5504   28.4191 H   0  0  0  0  0  0  0  0  0  0  0  0
  -14.1442  -27.5834   27.6943 H   0  0  0  0  0  0  0  0  0  0  0  0
  -15.6452  -27.2710   26.8527 H   0  0  0  0  0  0  0  0  0  0  0  0
  -11.2148  -24.1337   29.4932 H   0  0  0  0  0  0  0  0  0  0  0  0
  -10.1166  -22.8638   27.9314 H   0  0  0  0  0  0  0  0  0  0  0  0
  -10.4701  -21.5054   28.9722 H   0  0  0  0  0  0  0  0  0  0  0  0
  -11.5210  -21.7546   27.6721 H   0  0  0  0  0  0  0  0  0  0  0  0
  -14.2378  -22.4434   31.0277 H   0  0  0  0  0  0  0  0  0  0  0  0
  -13.3578  -21.3174   31.6967 H   0  0  0  0  0  0  0  0  0  0  0  0
  -14.1266  -23.3590   33.1867 H   0  0  0  0  0  0  0  0  0  0  0  0
  -13.1751  -21.9611   33.5705 H   0  0  0  0  0  0  0  0  0  0  0  0
  -12.2863  -24.7423   33.3482 H   0  0  0  0  0  0  0  0  0  0  0  0
  -11.8142  -23.4644   34.3202 H   0  0  0  0  0  0  0  0  0  0  0  0
   -9.9552  -23.1404   33.0460 H   0  0  0  0  0  0  0  0  0  0  0  0
   -9.1229  -24.8915   32.4867 H   0  0  0  0  0  0  0  0  0  0  0  0
  -10.6412  -25.7285   32.4283 H   0  0  0  0  0  0  0  0  0  0  0  0
   -9.5474  -24.3551   30.0593 H   0  0  0  0  0  0  0  0  0  0  0  0
   -8.9581  -25.0731   28.4249 H   0  0  0  0  0  0  0  0  0  0  0  0
   -8.7236  -26.7802   28.1463 H   0  0  0  0  0  0  0  0  0  0  0  0
  -10.1223  -24.2177   26.3725 H   0  0  0  0  0  0  0  0  0  0  0  0
  -11.6066  -27.7560   24.9655 H   0  0  0  0  0  0  0  0  0  0  0  0
  -11.4171  -27.9840   27.5198 H   0  0  0  0  0  0  0  0  0  0  0  0
  -10.1833  -21.6703   31.1764 H   0  0  0  0  0  0  0  0  0  0  0  0
  -11.2885  -21.4764   32.2512 H   0  0  0  0  0  0  0  0  0  0  0  0
  1  2  1  0
  2  3  1  0
  3  4  1  0
  4  5  1  0
  3  6  1  0
  6  7  2  0
  6  8  1  0
  8  9  1  0
  8 10  1  0
 10 11  1  0
 11 12  1  0
 12 13  1  0
 13 14  1  0
 14 15  1  0
 15 16  1  0
 16 17  1  0
 17 18  2  0
 17 19  1  0
 19 20  1  0
 20 21  2  0
 21 22  1  0
 22 23  2  0
 23 24  1  0
 14 25  1  0
 25 10  1  0
 24 20  1  0
  1 26  1  0
  1 27  1  0
  1 28  1  0
  2 29  1  0
  2 30  1  0
  4 31  1  0
  4 32  1  0
  5 33  1  0
  5 34  1  0
  5 35  1  0
  8 36  1  0
  9 37  1  0
  9 38  1  0
  9 39  1  0
 11 40  1  0
 11 41  1  0
 12 42  1  0
 12 43  1  0
 13 44  1  0
 13 45  1  0
 14 46  1  0
 15 47  1  0
 15 48  1  0
 16 49  1  0
 19 50  1  0
 19 51  1  0
 21 52  1  0
 23 53  1  0
 24 54  1  0
 25 55  1  0
 25 56  1  0
M  END
>  <Energy>  (262) 
320.68004653749978

>  <compound_id>  (262) 
18277

>  <target_id>  (262) 
1

>  <reference_id>  (262) 
64

>  <inspiration_ids>  (262) 
[46, 64]

>  <energy_score>  (262) 
222.40583873141068

>  <distance_score>  (262) 
2.982189163691058

>  <path>  (262) 
/opt/xchem-fragalysis-2/maxwin/BulkDock/SCRATCH/511013/C18277-P64/C18277-P64.minimised.mol

>  <scratch_subdir>  (262) 
/opt/xchem-fragalysis-2/maxwin/BulkDock/SCRATCH/511013/C18277-P64

>  <fragmenstein_runtime>  (262) 
12.145203828811646

>  <fragmenstein_outcome>  (262) 
too moved

>  <fragmenstein_mode>  (262) 
expansion

>  <fragmenstein_error>  (262) 


$$$$
C18278-P46
     RDKit          3D

 53 54  0  0  0  0  0  0  0  0999 V2000
  -13.9682  -24.1564   24.9394 C   0  0  0  0  0  0  0  0  0  0  0  0
  -12.7045  -24.3401   25.8216 C   0  0  0  0  0  0  0  0  0  0  0  0
  -12.5739  -24.9180   27.2415 N   0  0  0  0  0  0  0  0  0  0  0  0
  -13.4536  -26.0033   26.6438 C   0  0  0  0  0  0  0  0  0  0  0  0
  -13.8695  -27.0829   27.6360 C   0  0  0  0  0  0  0  0  0  0  0  0
  -12.8639  -23.9112   28.2123 C   0  0  0  0  0  0  0  0  0  0  0  0
  -13.9007  -23.6109   28.7361 O   0  0  0  0  0  0  0  0  0  0  0  0
  -11.6381  -22.9694   28.5780 C   0  0  0  0  0  0  0  0  0  0  0  0
  -10.3493  -23.5670   28.1305 C   0  0  0  0  0  0  0  0  0  0  0  0
  -11.3984  -22.6891   30.0368 N   0  0  0  0  0  0  0  0  0  0  0  0
  -12.4988  -23.0174   30.8858 C   0  0  0  0  0  0  0  0  0  0  0  0
  -12.5937  -22.6804   32.3803 C   0  0  0  0  0  0  0  0  0  0  0  0
  -11.2133  -22.4031   32.7810 C   0  0  0  0  0  0  0  0  0  0  0  0
  -10.4307  -23.5090   32.3514 N   0  0  0  0  0  0  0  0  0  0  0  0
  -10.1173  -24.7323   32.9876 C   0  0  0  0  0  0  0  0  0  0  0  0
  -10.3615  -25.1265   34.0892 O   0  0  0  0  0  0  0  0  0  0  0  0
   -9.4030  -25.5421   31.9100 C   0  0  0  0  0  0  0  0  0  0  0  0
  -10.3336  -26.4910   31.2530 C   0  0  0  0  0  0  0  0  0  0  0  0
  -10.7598  -26.7264   29.9685 C   0  0  0  0  0  0  0  0  0  0  0  0
  -11.6550  -27.7607   29.9337 N   0  0  0  0  0  0  0  0  0  0  0  0
  -11.6926  -28.2188   31.1592 C   0  0  0  0  0  0  0  0  0  0  0  0
  -10.9203  -27.4796   31.9831 N   0  0  0  0  0  0  0  0  0  0  0  0
  -10.8419  -21.1796   31.9491 C   0  0  0  0  0  0  0  0  0  0  0  0
  -11.1465  -21.3319   30.4078 C   0  0  0  0  0  0  0  0  0  0  0  0
  -13.8207  -23.3256   24.2409 H   0  0  0  0  0  0  0  0  0  0  0  0
  -14.9099  -24.0043   25.4502 H   0  0  0  0  0  0  0  0  0  0  0  0
  -14.1552  -25.0539   24.3373 H   0  0  0  0  0  0  0  0  0  0  0  0
  -12.3137  -23.3196   25.9243 H   0  0  0  0  0  0  0  0  0  0  0  0
  -11.9080  -24.8250   25.2355 H   0  0  0  0  0  0  0  0  0  0  0  0
  -12.9522  -26.5279   25.8199 H   0  0  0  0  0  0  0  0  0  0  0  0
  -14.4580  -25.6511   26.4060 H   0  0  0  0  0  0  0  0  0  0  0  0
  -13.0124  -27.5227   28.1297 H   0  0  0  0  0  0  0  0  0  0  0  0
  -14.5981  -26.6974   28.3467 H   0  0  0  0  0  0  0  0  0  0  0  0
  -14.4017  -27.8817   27.1081 H   0  0  0  0  0  0  0  0  0  0  0  0
  -11.8198  -22.0339   28.0390 H   0  0  0  0  0  0  0  0  0  0  0  0
  -10.0875  -24.4175   28.7498 H   0  0  0  0  0  0  0  0  0  0  0  0
  -10.3787  -23.8863   27.0895 H   0  0  0  0  0  0  0  0  0  0  0  0
   -9.5296  -22.8639   28.2372 H   0  0  0  0  0  0  0  0  0  0  0  0
  -12.4139  -24.1031   30.8071 H   0  0  0  0  0  0  0  0  0  0  0  0
  -13.3432  -22.4532   30.4738 H   0  0  0  0  0  0  0  0  0  0  0  0
  -13.2544  -21.8218   32.5571 H   0  0  0  0  0  0  0  0  0  0  0  0
  -12.9735  -23.5029   32.9948 H   0  0  0  0  0  0  0  0  0  0  0  0
  -11.2493  -22.2869   33.8461 H   0  0  0  0  0  0  0  0  0  0  0  0
  -10.1398  -23.5563   31.3906 H   0  0  0  0  0  0  0  0  0  0  0  0
   -8.9628  -24.9177   31.1305 H   0  0  0  0  0  0  0  0  0  0  0  0
   -8.5324  -25.9747   32.3884 H   0  0  0  0  0  0  0  0  0  0  0  0
  -10.4752  -26.2534   29.0467 H   0  0  0  0  0  0  0  0  0  0  0  0
  -12.2525  -29.0831   31.4826 H   0  0  0  0  0  0  0  0  0  0  0  0
  -10.7102  -27.6427   32.9608 H   0  0  0  0  0  0  0  0  0  0  0  0
   -9.7980  -20.9535   32.1100 H   0  0  0  0  0  0  0  0  0  0  0  0
  -11.3887  -20.3476   32.3859 H   0  0  0  0  0  0  0  0  0  0  0  0
  -10.3616  -20.9403   29.7910 H   0  0  0  0  0  0  0  0  0  0  0  0
  -12.0431  -20.8187   30.0980 H   0  0  0  0  0  0  0  0  0  0  0  0
  1  2  1  0
  2  3  1  0
  3  4  1  0
  4  5  1  0
  3  6  1  0
  6  7  2  0
  6  8  1  0
  8  9  1  0
  8 10  1  0
 10 11  1  0
 11 12  1  0
 12 13  1  0
 13 14  1  0
 14 15  1  0
 15 16  2  0
 15 17  1  0
 17 18  1  0
 18 19  2  0
 19 20  1  0
 20 21  2  0
 21 22  1  0
 13 23  1  0
 23 24  1  0
 24 10  1  0
 22 18  1  0
  1 25  1  0
  1 26  1  0
  1 27  1  0
  2 28  1  0
  2 29  1  0
  4 30  1  0
  4 31  1  0
  5 32  1  0
  5 33  1  0
  5 34  1  0
  8 35  1  0
  9 36  1  0
  9 37  1  0
  9 38  1  0
 11 39  1  0
 11 40  1  0
 12 41  1  0
 12 42  1  0
 13 43  1  0
 14 44  1  0
 17 45  1  0
 17 46  1  0
 19 47  1  0
 21 48  1  0
 22 49  1  0
 23 50  1  0
 23 51  1  0
 24 52  1  0
 24 53  1  0
M  END
>  <Energy>  (263) 
184.52379431309055

>  <compound_id>  (263) 
18278

>  <target_id>  (263) 
1

>  <reference_id>  (263) 
46

>  <inspiration_ids>  (263) 
[46, 64]

>  <energy_score>  (263) 
99.74390339574768

>  <distance_score>  (263) 
3.699151098149543

>  <path>  (263) 
/opt/xchem-fragalysis-2/maxwin/BulkDock/SCRATCH/511013/C18278-P46/C18278-P46.minimised.mol

>  <scratch_subdir>  (263) 
/opt/xchem-fragalysis-2/maxwin/BulkDock/SCRATCH/511013/C18278-P46

>  <fragmenstein_runtime>  (263) 
6.9440436363220215

>  <fragmenstein_outcome>  (263) 
too moved

>  <fragmenstein_mode>  (263) 
expansion

>  <fragmenstein_error>  (263) 


$$$$
C18278-P64
     RDKit          3D

 53 54  0  0  0  0  0  0  0  0999 V2000
  -15.3030  -22.7684   31.9023 C   0  0  0  0  0  0  0  0  0  0  0  0
  -16.4050  -23.9307   32.3068 C   0  0  0  0  0  0  0  0  0  0  0  0
  -17.7429  -23.2856   32.9741 N   0  0  0  0  0  0  0  0  0  0  0  0
  -18.3722  -24.5051   32.3651 C   0  0  0  0  0  0  0  0  0  0  0  0
  -18.2164  -25.8319   33.1149 C   0  0  0  0  0  0  0  0  0  0  0  0
  -17.8564  -21.8885   32.6190 C   0  0  0  0  0  0  0  0  0  0  0  0
  -18.4131  -21.3604   31.6879 O   0  0  0  0  0  0  0  0  0  0  0  0
  -17.1240  -20.9460   33.6774 C   0  0  0  0  0  0  0  0  0  0  0  0
  -17.9613  -20.8061   34.9318 C   0  0  0  0  0  0  0  0  0  0  0  0
  -15.7611  -21.4141   33.9480 N   0  0  0  0  0  0  0  0  0  0  0  0
  -15.6204  -22.6310   34.6705 C   0  0  0  0  0  0  0  0  0  0  0  0
  -14.3369  -23.4518   34.3611 C   0  0  0  0  0  0  0  0  0  0  0  0
  -13.0000  -22.7119   34.0241 C   0  0  0  0  0  0  0  0  0  0  0  0
  -12.1867  -23.5174   33.1052 N   0  0  0  0  0  0  0  0  0  0  0  0
  -11.3432  -23.1327   32.0023 C   0  0  0  0  0  0  0  0  0  0  0  0
  -11.1503  -22.0595   31.5016 O   0  0  0  0  0  0  0  0  0  0  0  0
  -10.5775  -24.3836   31.4797 C   0  0  0  0  0  0  0  0  0  0  0  0
  -10.7289  -24.6242   30.0014 C   0  0  0  0  0  0  0  0  0  0  0  0
  -11.2811  -23.9033   28.9576 C   0  0  0  0  0  0  0  0  0  0  0  0
  -11.1674  -24.5809   27.7692 N   0  0  0  0  0  0  0  0  0  0  0  0
  -10.5551  -25.7005   28.0691 C   0  0  0  0  0  0  0  0  0  0  0  0
  -10.2727  -25.7741   29.4021 N   0  0  0  0  0  0  0  0  0  0  0  0
  -13.2447  -21.2429   33.5764 C   0  0  0  0  0  0  0  0  0  0  0  0
  -14.6113  -20.5435   33.8993 C   0  0  0  0  0  0  0  0  0  0  0  0
  -14.3819  -22.8239   32.3876 H   0  0  0  0  0  0  0  0  0  0  0  0
  -15.6655  -21.7431   31.8429 H   0  0  0  0  0  0  0  0  0  0  0  0
  -14.8009  -22.7832   30.9546 H   0  0  0  0  0  0  0  0  0  0  0  0
  -16.0397  -24.6293   33.0580 H   0  0  0  0  0  0  0  0  0  0  0  0
  -16.5048  -24.5992   31.4380 H   0  0  0  0  0  0  0  0  0  0  0  0
  -19.4368  -24.2586   32.5130 H   0  0  0  0  0  0  0  0  0  0  0  0
  -18.3612  -24.5626   31.2645 H   0  0  0  0  0  0  0  0  0  0  0  0
  -18.2657  -25.6767   34.1976 H   0  0  0  0  0  0  0  0  0  0  0  0
  -19.0273  -26.5121   32.8327 H   0  0  0  0  0  0  0  0  0  0  0  0
  -17.2796  -26.3465   32.8824 H   0  0  0  0  0  0  0  0  0  0  0  0
  -17.0665  -19.9618   33.1934 H   0  0  0  0  0  0  0  0  0  0  0  0
  -18.9314  -20.3570   34.6899 H   0  0  0  0  0  0  0  0  0  0  0  0
  -18.1740  -21.7694   35.4074 H   0  0  0  0  0  0  0  0  0  0  0  0
  -17.4708  -20.1587   35.6666 H   0  0  0  0  0  0  0  0  0  0  0  0
  -16.4383  -23.3472   34.6426 H   0  0  0  0  0  0  0  0  0  0  0  0
  -15.8461  -22.2966   35.6627 H   0  0  0  0  0  0  0  0  0  0  0  0
  -14.3747  -24.2756   35.0441 H   0  0  0  0  0  0  0  0  0  0  0  0
  -14.4226  -24.1681   33.5526 H   0  0  0  0  0  0  0  0  0  0  0  0
  -12.3222  -22.7166   34.8707 H   0  0  0  0  0  0  0  0  0  0  0  0
  -12.1658  -24.5201   33.2006 H   0  0  0  0  0  0  0  0  0  0  0  0
   -9.5219  -24.2436   31.7319 H   0  0  0  0  0  0  0  0  0  0  0  0
  -10.8495  -25.2867   32.0277 H   0  0  0  0  0  0  0  0  0  0  0  0
  -11.7462  -22.9261   28.9996 H   0  0  0  0  0  0  0  0  0  0  0  0
  -10.3014  -26.4901   27.3759 H   0  0  0  0  0  0  0  0  0  0  0  0
   -9.8428  -26.5570   29.8740 H   0  0  0  0  0  0  0  0  0  0  0  0
  -12.4348  -20.6119   33.9594 H   0  0  0  0  0  0  0  0  0  0  0  0
  -13.1408  -21.2228   32.4925 H   0  0  0  0  0  0  0  0  0  0  0  0
  -14.8185  -19.8241   33.1077 H   0  0  0  0  0  0  0  0  0  0  0  0
  -14.5157  -19.9171   34.7882 H   0  0  0  0  0  0  0  0  0  0  0  0
  1  2  1  0
  2  3  1  0
  3  4  1  0
  4  5  1  0
  3  6  1  0
  6  7  2  0
  6  8  1  0
  8  9  1  0
  8 10  1  0
 10 11  1  0
 11 12  1  0
 12 13  1  0
 13 14  1  0
 14 15  1  0
 15 16  2  0
 15 17  1  0
 17 18  1  0
 18 19  2  0
 19 20  1  0
 20 21  2  0
 21 22  1  0
 13 23  1  0
 23 24  1  0
 24 10  1  0
 22 18  1  0
  1 25  1  0
  1 26  1  0
  1 27  1  0
  2 28  1  0
  2 29  1  0
  4 30  1  0
  4 31  1  0
  5 32  1  0
  5 33  1  0
  5 34  1  0
  8 35  1  0
  9 36  1  0
  9 37  1  0
  9 38  1  0
 11 39  1  0
 11 40  1  0
 12 41  1  0
 12 42  1  0
 13 43  1  0
 14 44  1  0
 17 45  1  0
 17 46  1  0
 19 47  1  0
 21 48  1  0
 22 49  1  0
 23 50  1  0
 23 51  1  0
 24 52  1  0
 24 53  1  0
M  END
>  <Energy>  (264) 
253.32880380943899

>  <compound_id>  (264) 
18278

>  <target_id>  (264) 
1

>  <reference_id>  (264) 
64

>  <inspiration_ids>  (264) 
[46, 64]

>  <energy_score>  (264) 
168.548912892097

>  <distance_score>  (264) 
3.59866753600576

>  <path>  (264) 
/opt/xchem-fragalysis-2/maxwin/BulkDock/SCRATCH/511013/C18278-P64/C18278-P64.minimised.mol

>  <scratch_subdir>  (264) 
/opt/xchem-fragalysis-2/maxwin/BulkDock/SCRATCH/511013/C18278-P64

>  <fragmenstein_runtime>  (264) 
10.353673934936523

>  <fragmenstein_outcome>  (264) 
too moved

>  <fragmenstein_mode>  (264) 
expansion

>  <fragmenstein_error>  (264) 


$$$$
C18280-P46
     RDKit          3D

 51 52  0  0  0  0  0  0  0  0999 V2000
  -12.4583  -27.2151   27.9682 C   0  0  0  0  0  0  0  0  0  0  0  0
  -13.5913  -26.5199   27.2555 C   0  0  0  0  0  0  0  0  0  0  0  0
  -13.2039  -25.6948   26.0196 C   0  0  0  0  0  0  0  0  0  0  0  0
  -14.4609  -25.7981   25.1083 C   0  0  0  0  0  0  0  0  0  0  0  0
  -11.9677  -26.2182   25.2959 C   0  0  0  0  0  0  0  0  0  0  0  0
  -12.9133  -24.1668   26.1358 C   0  0  0  0  0  0  0  0  0  0  0  0
  -13.1845  -23.5479   25.1426 O   0  0  0  0  0  0  0  0  0  0  0  0
  -12.2876  -23.7498   27.3555 N   0  0  0  0  0  0  0  0  0  0  0  0
  -11.8762  -22.4411   27.8088 C   0  0  0  0  0  0  0  0  0  0  0  0
  -10.8567  -22.2311   28.9208 C   0  0  0  0  0  0  0  0  0  0  0  0
  -11.4379  -21.5153   30.2535 C   0  0  0  0  0  0  0  0  0  0  0  0
  -10.8594  -21.3012   31.7377 C   0  0  0  0  0  0  0  0  0  0  0  0
  -11.1878  -22.4446   32.8164 C   0  0  0  0  0  0  0  0  0  0  0  0
  -12.2013  -23.4884   32.2774 C   0  0  0  0  0  0  0  0  0  0  0  0
  -11.6216  -23.5285   30.9239 N   0  0  0  0  0  0  0  0  0  0  0  0
  -11.6937  -24.7742   30.4013 C   0  0  0  0  0  0  0  0  0  0  0  0
  -12.5293  -25.2813   29.7416 O   0  0  0  0  0  0  0  0  0  0  0  0
  -10.6219  -25.5923   30.8133 C   0  0  0  0  0  0  0  0  0  0  0  0
   -9.3577  -25.1544   30.9828 C   0  0  0  0  0  0  0  0  0  0  0  0
   -8.8557  -25.3538   29.7274 N   0  0  0  0  0  0  0  0  0  0  0  0
   -9.5016  -26.4177   29.2822 C   0  0  0  0  0  0  0  0  0  0  0  0
  -10.3950  -26.8127   30.2404 N   0  0  0  0  0  0  0  0  0  0  0  0
  -12.5017  -22.3664   30.7528 C   0  0  0  0  0  0  0  0  0  0  0  0
  -11.6675  -26.4970   28.1223 H   0  0  0  0  0  0  0  0  0  0  0  0
  -12.8035  -27.6790   28.8915 H   0  0  0  0  0  0  0  0  0  0  0  0
  -11.9631  -28.0137   27.4431 H   0  0  0  0  0  0  0  0  0  0  0  0
  -14.3075  -27.3098   26.9948 H   0  0  0  0  0  0  0  0  0  0  0  0
  -14.1347  -25.8665   27.9370 H   0  0  0  0  0  0  0  0  0  0  0  0
  -14.3305  -25.3419   24.1273 H   0  0  0  0  0  0  0  0  0  0  0  0
  -15.3159  -25.2919   25.5717 H   0  0  0  0  0  0  0  0  0  0  0  0
  -14.7621  -26.8295   24.9252 H   0  0  0  0  0  0  0  0  0  0  0  0
  -11.2540  -26.7373   25.9322 H   0  0  0  0  0  0  0  0  0  0  0  0
  -11.3896  -25.3991   24.8650 H   0  0  0  0  0  0  0  0  0  0  0  0
  -12.2453  -26.8768   24.4790 H   0  0  0  0  0  0  0  0  0  0  0  0
  -12.2943  -24.5229   28.0102 H   0  0  0  0  0  0  0  0  0  0  0  0
  -12.7892  -21.9917   28.1410 H   0  0  0  0  0  0  0  0  0  0  0  0
  -11.5582  -21.9044   26.9213 H   0  0  0  0  0  0  0  0  0  0  0  0
  -10.1160  -21.5600   28.5240 H   0  0  0  0  0  0  0  0  0  0  0  0
  -10.3814  -23.2034   29.0078 H   0  0  0  0  0  0  0  0  0  0  0  0
  -11.9382  -20.6728   29.8299 H   0  0  0  0  0  0  0  0  0  0  0  0
   -9.8320  -21.0153   31.8108 H   0  0  0  0  0  0  0  0  0  0  0  0
  -11.3767  -20.4551   32.1888 H   0  0  0  0  0  0  0  0  0  0  0  0
  -10.2464  -22.9540   33.0424 H   0  0  0  0  0  0  0  0  0  0  0  0
  -11.6189  -22.0102   33.7211 H   0  0  0  0  0  0  0  0  0  0  0  0
  -13.1903  -23.1747   32.6378 H   0  0  0  0  0  0  0  0  0  0  0  0
  -11.9951  -24.4301   32.8079 H   0  0  0  0  0  0  0  0  0  0  0  0
   -8.9765  -24.4215   31.6723 H   0  0  0  0  0  0  0  0  0  0  0  0
   -9.3606  -26.9286   28.3450 H   0  0  0  0  0  0  0  0  0  0  0  0
  -11.0952  -27.5149   30.0808 H   0  0  0  0  0  0  0  0  0  0  0  0
  -13.1372  -21.8255   31.4818 H   0  0  0  0  0  0  0  0  0  0  0  0
  -13.1893  -22.5751   29.9381 H   0  0  0  0  0  0  0  0  0  0  0  0
  1  2  1  0
  2  3  1  0
  3  4  1  0
  3  5  1  0
  3  6  1  0
  6  7  2  0
  6  8  1  0
  8  9  1  0
  9 10  1  0
 10 11  1  0
 11 12  1  0
 12 13  1  0
 13 14  1  0
 14 15  1  0
 15 16  1  0
 16 17  2  0
 16 18  1  0
 18 19  2  0
 19 20  1  0
 20 21  2  0
 21 22  1  0
 15 23  1  0
 23 11  1  0
 22 18  1  0
  1 24  1  0
  1 25  1  0
  1 26  1  0
  2 27  1  0
  2 28  1  0
  4 29  1  0
  4 30  1  0
  4 31  1  0
  5 32  1  0
  5 33  1  0
  5 34  1  0
  8 35  1  0
  9 36  1  0
  9 37  1  0
 10 38  1  0
 10 39  1  0
 11 40  1  0
 12 41  1  0
 12 42  1  0
 13 43  1  0
 13 44  1  0
 14 45  1  0
 14 46  1  0
 19 47  1  0
 21 48  1  0
 22 49  1  0
 23 50  1  0
 23 51  1  0
M  END
>  <Energy>  (265) 
211.56036631958534

>  <compound_id>  (265) 
18280

>  <target_id>  (265) 
1

>  <reference_id>  (265) 
46

>  <inspiration_ids>  (265) 
[46, 64]

>  <energy_score>  (265) 
183.95546166077685

>  <distance_score>  (265) 
3.788119944676949

>  <path>  (265) 
/opt/xchem-fragalysis-2/maxwin/BulkDock/SCRATCH/511013/C18280-P46/C18280-P46.minimised.mol

>  <scratch_subdir>  (265) 
/opt/xchem-fragalysis-2/maxwin/BulkDock/SCRATCH/511013/C18280-P46

>  <fragmenstein_runtime>  (265) 
15.400845050811768

>  <fragmenstein_outcome>  (265) 
too moved

>  <fragmenstein_mode>  (265) 
expansion

>  <fragmenstein_error>  (265) 


$$$$
C18280-P64
     RDKit          3D

 51 52  0  0  0  0  0  0  0  0999 V2000
  -10.6267  -27.0386   28.6944 C   0  0  0  0  0  0  0  0  0  0  0  0
  -10.3807  -26.2413   27.4484 C   0  0  0  0  0  0  0  0  0  0  0  0
  -11.3359  -25.0592   27.2701 C   0  0  0  0  0  0  0  0  0  0  0  0
  -12.7467  -25.5464   26.9093 C   0  0  0  0  0  0  0  0  0  0  0  0
  -10.9108  -24.3250   26.0284 C   0  0  0  0  0  0  0  0  0  0  0  0
  -11.0927  -24.1299   28.5504 C   0  0  0  0  0  0  0  0  0  0  0  0
  -10.3591  -24.5290   29.4020 O   0  0  0  0  0  0  0  0  0  0  0  0
  -11.8930  -22.9776   28.4976 N   0  0  0  0  0  0  0  0  0  0  0  0
  -12.1562  -21.9764   29.4738 C   0  0  0  0  0  0  0  0  0  0  0  0
  -11.3139  -21.6380   30.6570 C   0  0  0  0  0  0  0  0  0  0  0  0
  -12.0214  -21.2024   31.9647 C   0  0  0  0  0  0  0  0  0  0  0  0
  -11.5813  -20.1992   33.0521 C   0  0  0  0  0  0  0  0  0  0  0  0
  -12.4232  -20.5224   34.2288 C   0  0  0  0  0  0  0  0  0  0  0  0
  -12.8804  -21.9439   34.0684 C   0  0  0  0  0  0  0  0  0  0  0  0
  -12.9431  -22.8649   32.9598 N   0  0  0  0  0  0  0  0  0  0  0  0
  -13.4426  -24.0529   33.3786 C   0  0  0  0  0  0  0  0  0  0  0  0
  -14.5728  -24.4666   33.4227 O   0  0  0  0  0  0  0  0  0  0  0  0
  -12.2048  -24.7071   33.6594 C   0  0  0  0  0  0  0  0  0  0  0  0
  -11.6466  -25.6585   34.4234 C   0  0  0  0  0  0  0  0  0  0  0  0
  -10.3038  -25.6292   34.3259 N   0  0  0  0  0  0  0  0  0  0  0  0
  -10.0614  -25.0098   33.1922 C   0  0  0  0  0  0  0  0  0  0  0  0
  -11.2060  -24.5569   32.6930 N   0  0  0  0  0  0  0  0  0  0  0  0
  -13.5585  -21.7598   32.3387 C   0  0  0  0  0  0  0  0  0  0  0  0
  -11.3657  -27.8009   28.4653 H   0  0  0  0  0  0  0  0  0  0  0  0
   -9.6801  -27.4388   29.0443 H   0  0  0  0  0  0  0  0  0  0  0  0
  -10.9733  -26.5005   29.5649 H   0  0  0  0  0  0  0  0  0  0  0  0
   -9.3621  -25.8683   27.5444 H   0  0  0  0  0  0  0  0  0  0  0  0
  -10.4061  -26.8976   26.5715 H   0  0  0  0  0  0  0  0  0  0  0  0
  -12.8972  -25.6217   25.8236 H   0  0  0  0  0  0  0  0  0  0  0  0
  -13.5221  -24.8687   27.2652 H   0  0  0  0  0  0  0  0  0  0  0  0
  -12.9460  -26.5630   27.2555 H   0  0  0  0  0  0  0  0  0  0  0  0
   -9.8937  -24.0387   26.2256 H   0  0  0  0  0  0  0  0  0  0  0  0
  -11.5423  -23.4583   25.8242 H   0  0  0  0  0  0  0  0  0  0  0  0
  -10.9187  -24.9517   25.1312 H   0  0  0  0  0  0  0  0  0  0  0  0
  -12.4509  -23.0036   27.6502 H   0  0  0  0  0  0  0  0  0  0  0  0
  -12.2885  -21.0484   28.9460 H   0  0  0  0  0  0  0  0  0  0  0  0
  -13.0367  -22.4249   29.8999 H   0  0  0  0  0  0  0  0  0  0  0  0
  -10.5655  -20.9133   30.3758 H   0  0  0  0  0  0  0  0  0  0  0  0
  -10.8187  -22.5709   30.8959 H   0  0  0  0  0  0  0  0  0  0  0  0
  -11.3181  -21.9063   32.4555 H   0  0  0  0  0  0  0  0  0  0  0  0
  -11.7857  -19.1608   33.1738 H   0  0  0  0  0  0  0  0  0  0  0  0
  -10.5209  -19.9936   32.9485 H   0  0  0  0  0  0  0  0  0  0  0  0
  -11.9892  -20.3100   35.2018 H   0  0  0  0  0  0  0  0  0  0  0  0
  -13.3201  -19.8817   34.2625 H   0  0  0  0  0  0  0  0  0  0  0  0
  -13.9484  -21.9821   34.3809 H   0  0  0  0  0  0  0  0  0  0  0  0
  -12.2528  -22.5025   34.7688 H   0  0  0  0  0  0  0  0  0  0  0  0
  -12.2035  -26.2828   35.0756 H   0  0  0  0  0  0  0  0  0  0  0  0
   -9.1159  -24.8931   32.6836 H   0  0  0  0  0  0  0  0  0  0  0  0
  -11.3778  -24.1682   31.7790 H   0  0  0  0  0  0  0  0  0  0  0  0
  -14.3087  -21.0707   32.7664 H   0  0  0  0  0  0  0  0  0  0  0  0
  -14.0677  -22.1296   31.4514 H   0  0  0  0  0  0  0  0  0  0  0  0
  1  2  1  0
  2  3  1  0
  3  4  1  0
  3  5  1  0
  3  6  1  0
  6  7  2  0
  6  8  1  0
  8  9  1  0
  9 10  1  0
 10 11  1  0
 11 12  1  0
 12 13  1  0
 13 14  1  0
 14 15  1  0
 15 16  1  0
 16 17  2  0
 16 18  1  0
 18 19  2  0
 19 20  1  0
 20 21  2  0
 21 22  1  0
 15 23  1  0
 23 11  1  0
 22 18  1  0
  1 24  1  0
  1 25  1  0
  1 26  1  0
  2 27  1  0
  2 28  1  0
  4 29  1  0
  4 30  1  0
  4 31  1  0
  5 32  1  0
  5 33  1  0
  5 34  1  0
  8 35  1  0
  9 36  1  0
  9 37  1  0
 10 38  1  0
 10 39  1  0
 11 40  1  0
 12 41  1  0
 12 42  1  0
 13 43  1  0
 13 44  1  0
 14 45  1  0
 14 46  1  0
 19 47  1  0
 21 48  1  0
 22 49  1  0
 23 50  1  0
 23 51  1  0
M  END
>  <Energy>  (266) 
221.03784538381285

>  <compound_id>  (266) 
18280

>  <target_id>  (266) 
1

>  <reference_id>  (266) 
64

>  <inspiration_ids>  (266) 
[46, 64]

>  <energy_score>  (266) 
193.43294072500927

>  <distance_score>  (266) 
3.1991733357451424

>  <path>  (266) 
/opt/xchem-fragalysis-2/maxwin/BulkDock/SCRATCH/511013/C18280-P64/C18280-P64.minimised.mol

>  <scratch_subdir>  (266) 
/opt/xchem-fragalysis-2/maxwin/BulkDock/SCRATCH/511013/C18280-P64

>  <fragmenstein_runtime>  (266) 
13.271950721740723

>  <fragmenstein_outcome>  (266) 
too moved

>  <fragmenstein_mode>  (266) 
expansion

>  <fragmenstein_error>  (266) 


$$$$
C18281-P46
     RDKit          3D

 51 52  0  0  0  0  0  0  0  0999 V2000
  -14.2256  -27.7231   27.6097 C   0  0  0  0  0  0  0  0  0  0  0  0
  -12.7964  -27.7088   28.1585 C   0  0  0  0  0  0  0  0  0  0  0  0
  -12.0462  -26.4255   27.7953 C   0  0  0  0  0  0  0  0  0  0  0  0
  -11.6976  -26.2622   26.3328 C   0  0  0  0  0  0  0  0  0  0  0  0
  -11.0062  -25.8309   28.7694 C   0  0  0  0  0  0  0  0  0  0  0  0
  -10.4985  -24.7921   28.4452 O   0  0  0  0  0  0  0  0  0  0  0  0
  -10.8903  -26.5954   29.9871 N   0  0  0  0  0  0  0  0  0  0  0  0
  -10.2157  -26.3018   31.2276 C   0  0  0  0  0  0  0  0  0  0  0  0
  -11.1405  -26.5631   32.3914 C   0  0  0  0  0  0  0  0  0  0  0  0
  -11.2523  -25.3355   33.3395 C   0  0  0  0  0  0  0  0  0  0  0  0
  -11.1926  -23.9991   32.7160 N   0  0  0  0  0  0  0  0  0  0  0  0
  -11.6191  -23.5505   31.4271 C   0  0  0  0  0  0  0  0  0  0  0  0
  -12.0549  -24.1670   30.4857 O   0  0  0  0  0  0  0  0  0  0  0  0
  -11.6266  -22.0824   31.2353 C   0  0  0  0  0  0  0  0  0  0  0  0
  -11.2269  -21.2734   32.4215 C   0  0  0  0  0  0  0  0  0  0  0  0
  -13.0179  -21.8495   30.6901 C   0  0  0  0  0  0  0  0  0  0  0  0
  -14.1303  -21.7013   31.7492 C   0  0  0  0  0  0  0  0  0  0  0  0
  -15.4467  -21.2728   31.6871 C   0  0  0  0  0  0  0  0  0  0  0  0
  -16.0899  -21.3666   32.8888 N   0  0  0  0  0  0  0  0  0  0  0  0
  -15.2379  -21.9828   33.6675 C   0  0  0  0  0  0  0  0  0  0  0  0
  -14.0403  -22.1836   33.0458 N   0  0  0  0  0  0  0  0  0  0  0  0
   -9.7222  -24.3187   32.7019 C   0  0  0  0  0  0  0  0  0  0  0  0
   -9.1512  -25.3102   31.6631 C   0  0  0  0  0  0  0  0  0  0  0  0
  -14.2867  -27.4822   26.5475 H   0  0  0  0  0  0  0  0  0  0  0  0
  -14.6784  -28.7076   27.7672 H   0  0  0  0  0  0  0  0  0  0  0  0
  -14.8508  -26.9933   28.1334 H   0  0  0  0  0  0  0  0  0  0  0  0
  -12.9360  -27.8736   29.2212 H   0  0  0  0  0  0  0  0  0  0  0  0
  -12.1858  -28.5688   27.8970 H   0  0  0  0  0  0  0  0  0  0  0  0
  -12.8299  -25.6558   27.9221 H   0  0  0  0  0  0  0  0  0  0  0  0
  -10.9399  -26.9913   26.0435 H   0  0  0  0  0  0  0  0  0  0  0  0
  -12.5682  -26.3940   25.6843 H   0  0  0  0  0  0  0  0  0  0  0  0
  -11.3368  -25.2500   26.1280 H   0  0  0  0  0  0  0  0  0  0  0  0
  -11.3884  -27.4541   29.8816 H   0  0  0  0  0  0  0  0  0  0  0  0
  -10.6610  -25.3900   30.9585 H   0  0  0  0  0  0  0  0  0  0  0  0
  -10.8949  -27.4827   32.9093 H   0  0  0  0  0  0  0  0  0  0  0  0
  -12.1183  -26.7987   31.9985 H   0  0  0  0  0  0  0  0  0  0  0  0
  -12.2876  -25.2559   33.6788 H   0  0  0  0  0  0  0  0  0  0  0  0
  -10.7541  -25.4753   34.3145 H   0  0  0  0  0  0  0  0  0  0  0  0
  -10.9441  -21.8485   30.4144 H   0  0  0  0  0  0  0  0  0  0  0  0
  -11.4254  -21.7909   33.3579 H   0  0  0  0  0  0  0  0  0  0  0  0
  -10.1626  -21.0676   32.3146 H   0  0  0  0  0  0  0  0  0  0  0  0
  -11.7182  -20.3219   32.5379 H   0  0  0  0  0  0  0  0  0  0  0  0
  -12.8631  -21.0759   29.9359 H   0  0  0  0  0  0  0  0  0  0  0  0
  -13.3260  -22.5688   29.9354 H   0  0  0  0  0  0  0  0  0  0  0  0
  -15.9857  -20.9067   30.8346 H   0  0  0  0  0  0  0  0  0  0  0  0
  -15.4342  -22.3314   34.6703 H   0  0  0  0  0  0  0  0  0  0  0  0
  -13.3057  -22.7842   33.3961 H   0  0  0  0  0  0  0  0  0  0  0  0
   -9.3138  -24.5336   33.6983 H   0  0  0  0  0  0  0  0  0  0  0  0
   -9.2620  -23.3571   32.5440 H   0  0  0  0  0  0  0  0  0  0  0  0
   -8.3235  -25.7789   32.1856 H   0  0  0  0  0  0  0  0  0  0  0  0
   -8.7703  -24.8167   30.7755 H   0  0  0  0  0  0  0  0  0  0  0  0
  1  2  1  0
  2  3  1  0
  3  4  1  0
  3  5  1  0
  5  6  2  0
  5  7  1  0
  7  8  1  0
  8  9  1  0
  9 10  1  0
 10 11  1  0
 11 12  1  0
 12 13  2  0
 12 14  1  0
 14 15  1  0
 14 16  1  0
 16 17  1  0
 17 18  2  0
 18 19  1  0
 19 20  2  0
 20 21  1  0
 11 22  1  0
 22 23  1  0
 23  8  1  0
 21 17  1  0
  1 24  1  0
  1 25  1  0
  1 26  1  0
  2 27  1  0
  2 28  1  0
  3 29  1  0
  4 30  1  0
  4 31  1  0
  4 32  1  0
  7 33  1  0
  8 34  1  0
  9 35  1  0
  9 36  1  0
 10 37  1  0
 10 38  1  0
 14 39  1  0
 15 40  1  0
 15 41  1  0
 15 42  1  0
 16 43  1  0
 16 44  1  0
 18 45  1  0
 20 46  1  0
 21 47  1  0
 22 48  1  0
 22 49  1  0
 23 50  1  0
 23 51  1  0
M  END
>  <Energy>  (267) 
186.92023134623719

>  <compound_id>  (267) 
18281

>  <target_id>  (267) 
1

>  <reference_id>  (267) 
46

>  <inspiration_ids>  (267) 
[46, 64]

>  <energy_score>  (267) 
166.1250759224242

>  <distance_score>  (267) 
3.376836419917902

>  <path>  (267) 
/opt/xchem-fragalysis-2/maxwin/BulkDock/SCRATCH/511013/C18281-P46/C18281-P46.minimised.mol

>  <scratch_subdir>  (267) 
/opt/xchem-fragalysis-2/maxwin/BulkDock/SCRATCH/511013/C18281-P46

>  <fragmenstein_runtime>  (267) 
8.809601545333862

>  <fragmenstein_outcome>  (267) 
too moved

>  <fragmenstein_mode>  (267) 
expansion

>  <fragmenstein_error>  (267) 


$$$$
C18281-P64
     RDKit          3D

 51 52  0  0  0  0  0  0  0  0999 V2000
  -12.2455  -23.9875   25.2496 C   0  0  0  0  0  0  0  0  0  0  0  0
  -11.8238  -23.7627   26.6617 C   0  0  0  0  0  0  0  0  0  0  0  0
  -10.5935  -24.5792   27.1008 C   0  0  0  0  0  0  0  0  0  0  0  0
  -10.8915  -26.0655   26.8349 C   0  0  0  0  0  0  0  0  0  0  0  0
  -10.4815  -24.2828   28.5816 C   0  0  0  0  0  0  0  0  0  0  0  0
  -11.1077  -23.3451   28.9949 O   0  0  0  0  0  0  0  0  0  0  0  0
   -9.6931  -25.2705   29.2797 N   0  0  0  0  0  0  0  0  0  0  0  0
   -9.4965  -25.5006   30.7009 C   0  0  0  0  0  0  0  0  0  0  0  0
   -8.8921  -24.8573   31.9302 C   0  0  0  0  0  0  0  0  0  0  0  0
   -9.9538  -24.7166   33.1147 C   0  0  0  0  0  0  0  0  0  0  0  0
  -11.2358  -23.7375   33.0849 N   0  0  0  0  0  0  0  0  0  0  0  0
  -12.6037  -23.9753   33.4423 C   0  0  0  0  0  0  0  0  0  0  0  0
  -13.1611  -24.9928   33.7714 O   0  0  0  0  0  0  0  0  0  0  0  0
  -13.4621  -22.6721   33.2450 C   0  0  0  0  0  0  0  0  0  0  0  0
  -12.7343  -21.3931   33.6063 C   0  0  0  0  0  0  0  0  0  0  0  0
  -14.8155  -22.7694   33.9456 C   0  0  0  0  0  0  0  0  0  0  0  0
  -15.9613  -23.3917   33.2459 C   0  0  0  0  0  0  0  0  0  0  0  0
  -17.2585  -22.9818   33.0566 C   0  0  0  0  0  0  0  0  0  0  0  0
  -17.9380  -23.9023   32.2985 N   0  0  0  0  0  0  0  0  0  0  0  0
  -17.1376  -24.9449   32.2124 C   0  0  0  0  0  0  0  0  0  0  0  0
  -15.9284  -24.6815   32.7823 N   0  0  0  0  0  0  0  0  0  0  0  0
  -11.0665  -23.8902   31.6742 C   0  0  0  0  0  0  0  0  0  0  0  0
  -10.8832  -25.2566   31.0851 C   0  0  0  0  0  0  0  0  0  0  0  0
  -12.7353  -24.9624   25.1706 H   0  0  0  0  0  0  0  0  0  0  0  0
  -11.3704  -23.9305   24.5982 H   0  0  0  0  0  0  0  0  0  0  0  0
  -12.9704  -23.2412   24.9158 H   0  0  0  0  0  0  0  0  0  0  0  0
  -11.6121  -22.6999   26.8038 H   0  0  0  0  0  0  0  0  0  0  0  0
  -12.6828  -23.9979   27.3031 H   0  0  0  0  0  0  0  0  0  0  0  0
   -9.6992  -24.2466   26.6004 H   0  0  0  0  0  0  0  0  0  0  0  0
  -10.0642  -26.7156   27.1219 H   0  0  0  0  0  0  0  0  0  0  0  0
  -11.7738  -26.4029   27.3868 H   0  0  0  0  0  0  0  0  0  0  0  0
  -11.0653  -26.2646   25.7729 H   0  0  0  0  0  0  0  0  0  0  0  0
   -9.2381  -25.8667   28.6034 H   0  0  0  0  0  0  0  0  0  0  0  0
   -9.3532  -26.5859   30.7812 H   0  0  0  0  0  0  0  0  0  0  0  0
   -8.0126  -25.4341   32.1958 H   0  0  0  0  0  0  0  0  0  0  0  0
   -8.4751  -23.8938   31.8915 H   0  0  0  0  0  0  0  0  0  0  0  0
  -10.3782  -25.6710   33.4605 H   0  0  0  0  0  0  0  0  0  0  0  0
   -9.3213  -24.5052   33.9613 H   0  0  0  0  0  0  0  0  0  0  0  0
  -13.6750  -22.5731   32.1750 H   0  0  0  0  0  0  0  0  0  0  0  0
  -12.1760  -21.4986   34.5261 H   0  0  0  0  0  0  0  0  0  0  0  0
  -13.4293  -20.5636   33.7506 H   0  0  0  0  0  0  0  0  0  0  0  0
  -12.0232  -21.1223   32.8205 H   0  0  0  0  0  0  0  0  0  0  0  0
  -14.6834  -23.3843   34.8208 H   0  0  0  0  0  0  0  0  0  0  0  0
  -15.1534  -21.7777   34.2661 H   0  0  0  0  0  0  0  0  0  0  0  0
  -17.7202  -22.0525   33.3642 H   0  0  0  0  0  0  0  0  0  0  0  0
  -17.3474  -25.8811   31.7132 H   0  0  0  0  0  0  0  0  0  0  0  0
  -15.0892  -25.2546   32.7259 H   0  0  0  0  0  0  0  0  0  0  0  0
  -10.3786  -23.1055   31.4033 H   0  0  0  0  0  0  0  0  0  0  0  0
  -11.9593  -23.4613   31.2119 H   0  0  0  0  0  0  0  0  0  0  0  0
  -11.5083  -25.3723   30.2281 H   0  0  0  0  0  0  0  0  0  0  0  0
  -11.0532  -26.0440   31.7871 H   0  0  0  0  0  0  0  0  0  0  0  0
  1  2  1  0
  2  3  1  0
  3  4  1  0
  3  5  1  0
  5  6  2  0
  5  7  1  0
  7  8  1  0
  8  9  1  0
  9 10  1  0
 10 11  1  0
 11 12  1  0
 12 13  2  0
 12 14  1  0
 14 15  1  0
 14 16  1  0
 16 17  1  0
 17 18  2  0
 18 19  1  0
 19 20  2  0
 20 21  1  0
 11 22  1  0
 22 23  1  0
 23  8  1  0
 21 17  1  0
  1 24  1  0
  1 25  1  0
  1 26  1  0
  2 27  1  0
  2 28  1  0
  3 29  1  0
  4 30  1  0
  4 31  1  0
  4 32  1  0
  7 33  1  0
  8 34  1  0
  9 35  1  0
  9 36  1  0
 10 37  1  0
 10 38  1  0
 14 39  1  0
 15 40  1  0
 15 41  1  0
 15 42  1  0
 16 43  1  0
 16 44  1  0
 18 45  1  0
 20 46  1  0
 21 47  1  0
 22 48  1  0
 22 49  1  0
 23 50  1  0
 23 51  1  0
M  END
>  <Energy>  (268) 
148.71206633452246

>  <compound_id>  (268) 
18281

>  <target_id>  (268) 
1

>  <reference_id>  (268) 
64

>  <inspiration_ids>  (268) 
[46, 64]

>  <energy_score>  (268) 
127.91691091070982

>  <distance_score>  (268) 
3.638880267639921

>  <path>  (268) 
/opt/xchem-fragalysis-2/maxwin/BulkDock/SCRATCH/511013/C18281-P64/C18281-P64.minimised.mol

>  <scratch_subdir>  (268) 
/opt/xchem-fragalysis-2/maxwin/BulkDock/SCRATCH/511013/C18281-P64

>  <fragmenstein_runtime>  (268) 
9.833749294281006

>  <fragmenstein_outcome>  (268) 
too moved

>  <fragmenstein_mode>  (268) 
expansion

>  <fragmenstein_error>  (268) 


$$$$
C18282-P46
     RDKit          3D

 38 39  0  0  0  0  0  0  0  0999 V2000
  -12.2105  -21.8555   29.5646 C   0  0  0  0  0  0  0  0  0  0  0  0
  -12.6903  -22.2038   30.9680 C   0  0  0  0  0  0  0  0  0  0  0  0
  -12.0923  -21.5809   32.1321 N   0  0  0  0  0  0  0  0  0  0  0  0
  -12.6358  -22.1229   33.3744 C   0  0  0  0  0  0  0  0  0  0  0  0
  -12.2700  -23.5770   33.6993 C   0  0  0  0  0  0  0  0  0  0  0  0
  -10.9649  -24.1444   33.1434 C   0  0  0  0  0  0  0  0  0  0  0  0
  -10.9517  -25.3388   32.1043 C   0  0  0  0  0  0  0  0  0  0  0  0
  -11.0982  -25.0152   30.6866 N   0  0  0  0  0  0  0  0  0  0  0  0
  -10.6676  -26.0333   29.7549 C   0  0  0  0  0  0  0  0  0  0  0  0
  -11.1877  -25.6773   28.4055 C   0  0  0  0  0  0  0  0  0  0  0  0
  -11.1747  -24.5065   27.6749 C   0  0  0  0  0  0  0  0  0  0  0  0
  -11.8004  -24.6529   26.4697 N   0  0  0  0  0  0  0  0  0  0  0  0
  -12.1877  -25.9031   26.4411 C   0  0  0  0  0  0  0  0  0  0  0  0
  -11.8142  -26.5696   27.5728 N   0  0  0  0  0  0  0  0  0  0  0  0
  -10.0529  -23.0429   32.6621 C   0  0  0  0  0  0  0  0  0  0  0  0
  -10.6699  -21.7488   32.0881 C   0  0  0  0  0  0  0  0  0  0  0  0
  -12.7505  -22.4779   28.8449 H   0  0  0  0  0  0  0  0  0  0  0  0
  -11.1544  -22.0408   29.3853 H   0  0  0  0  0  0  0  0  0  0  0  0
  -12.4072  -20.8223   29.3054 H   0  0  0  0  0  0  0  0  0  0  0  0
  -13.7646  -21.9999   30.9964 H   0  0  0  0  0  0  0  0  0  0  0  0
  -12.4989  -23.2555   31.0511 H   0  0  0  0  0  0  0  0  0  0  0  0
  -13.7283  -22.0143   33.3881 H   0  0  0  0  0  0  0  0  0  0  0  0
  -12.2995  -21.4781   34.1937 H   0  0  0  0  0  0  0  0  0  0  0  0
  -13.0888  -24.2357   33.4673 H   0  0  0  0  0  0  0  0  0  0  0  0
  -12.2007  -23.6191   34.7878 H   0  0  0  0  0  0  0  0  0  0  0  0
  -10.4833  -24.6453   33.9953 H   0  0  0  0  0  0  0  0  0  0  0  0
  -11.6900  -26.0851   32.3860 H   0  0  0  0  0  0  0  0  0  0  0  0
   -9.9719  -25.8184   32.2168 H   0  0  0  0  0  0  0  0  0  0  0  0
  -10.6408  -24.1445   30.4583 H   0  0  0  0  0  0  0  0  0  0  0  0
   -9.5777  -26.0807   29.7138 H   0  0  0  0  0  0  0  0  0  0  0  0
  -11.0444  -27.0180   30.0533 H   0  0  0  0  0  0  0  0  0  0  0  0
  -10.7278  -23.5629   27.9448 H   0  0  0  0  0  0  0  0  0  0  0  0
  -12.7222  -26.3804   25.6309 H   0  0  0  0  0  0  0  0  0  0  0  0
  -11.9822  -27.5485   27.7481 H   0  0  0  0  0  0  0  0  0  0  0  0
   -9.2784  -22.7934   33.3823 H   0  0  0  0  0  0  0  0  0  0  0  0
   -9.4486  -23.5741   31.9373 H   0  0  0  0  0  0  0  0  0  0  0  0
  -10.2181  -20.8442   32.4790 H   0  0  0  0  0  0  0  0  0  0  0  0
  -10.3682  -21.5946   31.0683 H   0  0  0  0  0  0  0  0  0  0  0  0
  1  2  1  0
  2  3  1  0
  3  4  1  0
  4  5  1  0
  5  6  1  0
  6  7  1  0
  7  8  1  0
  8  9  1  0
  9 10  1  0
 10 11  2  0
 11 12  1  0
 12 13  2  0
 13 14  1  0
  6 15  1  0
 15 16  1  0
 16  3  1  0
 14 10  1  0
  1 17  1  0
  1 18  1  0
  1 19  1  0
  2 20  1  0
  2 21  1  0
  4 22  1  0
  4 23  1  0
  5 24  1  0
  5 25  1  0
  6 26  1  0
  7 27  1  0
  7 28  1  0
  8 29  1  0
  9 30  1  0
  9 31  1  0
 11 32  1  0
 13 33  1  0
 14 34  1  0
 15 35  1  0
 15 36  1  0
 16 37  1  0
 16 38  1  0
M  END
>  <Energy>  (269) 
28.935785547540554

>  <compound_id>  (269) 
18282

>  <target_id>  (269) 
1

>  <reference_id>  (269) 
46

>  <inspiration_ids>  (269) 
[46, 64]

>  <energy_score>  (269) 
12.711343498519796

>  <distance_score>  (269) 
1.4584465012027497

>  <path>  (269) 
/opt/xchem-fragalysis-2/maxwin/BulkDock/SCRATCH/511013/C18282-P46/C18282-P46.minimised.mol

>  <scratch_subdir>  (269) 
/opt/xchem-fragalysis-2/maxwin/BulkDock/SCRATCH/511013/C18282-P46

>  <fragmenstein_runtime>  (269) 
2.755558729171753

>  <fragmenstein_outcome>  (269) 
too moved

>  <fragmenstein_mode>  (269) 
expansion

>  <fragmenstein_error>  (269) 


$$$$
C18282-P64
     RDKit          3D

 38 39  0  0  0  0  0  0  0  0999 V2000
  -11.9769  -21.6121   29.6024 C   0  0  0  0  0  0  0  0  0  0  0  0
  -12.6124  -22.1555   30.9005 C   0  0  0  0  0  0  0  0  0  0  0  0
  -11.9263  -21.8597   32.1570 N   0  0  0  0  0  0  0  0  0  0  0  0
  -12.4871  -22.5918   33.2724 C   0  0  0  0  0  0  0  0  0  0  0  0
  -11.9803  -24.0223   33.4709 C   0  0  0  0  0  0  0  0  0  0  0  0
  -10.6611  -24.5019   32.8193 C   0  0  0  0  0  0  0  0  0  0  0  0
  -10.7126  -25.1967   31.4166 C   0  0  0  0  0  0  0  0  0  0  0  0
   -9.6416  -25.2047   30.4025 N   0  0  0  0  0  0  0  0  0  0  0  0
   -9.9819  -26.0577   29.2502 C   0  0  0  0  0  0  0  0  0  0  0  0
  -10.8214  -25.5192   28.1612 C   0  0  0  0  0  0  0  0  0  0  0  0
  -11.0398  -24.2654   27.6508 C   0  0  0  0  0  0  0  0  0  0  0  0
  -11.8418  -24.3127   26.5389 N   0  0  0  0  0  0  0  0  0  0  0  0
  -12.0618  -25.5855   26.3234 C   0  0  0  0  0  0  0  0  0  0  0  0
  -11.4434  -26.3557   27.2602 N   0  0  0  0  0  0  0  0  0  0  0  0
   -9.7724  -23.3453   32.6494 C   0  0  0  0  0  0  0  0  0  0  0  0
  -10.5557  -22.2435   31.9417 C   0  0  0  0  0  0  0  0  0  0  0  0
  -12.3221  -22.2244   28.7678 H   0  0  0  0  0  0  0  0  0  0  0  0
  -10.8952  -21.6036   29.5361 H   0  0  0  0  0  0  0  0  0  0  0  0
  -12.2382  -20.5916   29.3798 H   0  0  0  0  0  0  0  0  0  0  0  0
  -13.6738  -21.9206   31.0020 H   0  0  0  0  0  0  0  0  0  0  0  0
  -12.5484  -23.2052   30.7171 H   0  0  0  0  0  0  0  0  0  0  0  0
  -13.5849  -22.5834   33.2424 H   0  0  0  0  0  0  0  0  0  0  0  0
  -12.2542  -22.0141   34.1679 H   0  0  0  0  0  0  0  0  0  0  0  0
  -12.8248  -24.6706   33.3311 H   0  0  0  0  0  0  0  0  0  0  0  0
  -11.7853  -24.1194   34.5278 H   0  0  0  0  0  0  0  0  0  0  0  0
  -10.1969  -25.2164   33.5071 H   0  0  0  0  0  0  0  0  0  0  0  0
  -10.7775  -26.2344   31.6801 H   0  0  0  0  0  0  0  0  0  0  0  0
  -11.5240  -24.7807   30.8647 H   0  0  0  0  0  0  0  0  0  0  0  0
   -8.8434  -25.6074   30.8965 H   0  0  0  0  0  0  0  0  0  0  0  0
   -9.0786  -26.2566   28.6749 H   0  0  0  0  0  0  0  0  0  0  0  0
  -10.3414  -27.0325   29.5844 H   0  0  0  0  0  0  0  0  0  0  0  0
  -10.6264  -23.3368   28.0102 H   0  0  0  0  0  0  0  0  0  0  0  0
  -12.6387  -26.0076   25.5117 H   0  0  0  0  0  0  0  0  0  0  0  0
  -11.4363  -27.3654   27.2659 H   0  0  0  0  0  0  0  0  0  0  0  0
   -9.1250  -23.0208   33.4391 H   0  0  0  0  0  0  0  0  0  0  0  0
   -8.9592  -23.7953   32.0830 H   0  0  0  0  0  0  0  0  0  0  0  0
  -10.6078  -22.7419   31.0015 H   0  0  0  0  0  0  0  0  0  0  0  0
  -10.0180  -21.3051   31.8206 H   0  0  0  0  0  0  0  0  0  0  0  0
  1  2  1  0
  2  3  1  0
  3  4  1  0
  4  5  1  0
  5  6  1  0
  6  7  1  0
  7  8  1  0
  8  9  1  0
  9 10  1  0
 10 11  2  0
 11 12  1  0
 12 13  2  0
 13 14  1  0
  6 15  1  0
 15 16  1  0
 16  3  1  0
 14 10  1  0
  1 17  1  0
  1 18  1  0
  1 19  1  0
  2 20  1  0
  2 21  1  0
  4 22  1  0
  4 23  1  0
  5 24  1  0
  5 25  1  0
  6 26  1  0
  7 27  1  0
  7 28  1  0
  8 29  1  0
  9 30  1  0
  9 31  1  0
 11 32  1  0
 13 33  1  0
 14 34  1  0
 15 35  1  0
 15 36  1  0
 16 37  1  0
 16 38  1  0
M  END
>  <Energy>  (270) 
63.105050854718783

>  <compound_id>  (270) 
18282

>  <target_id>  (270) 
1

>  <reference_id>  (270) 
64

>  <inspiration_ids>  (270) 
[46, 64]

>  <energy_score>  (270) 
46.88060880569705

>  <distance_score>  (270) 
1.58586439811092

>  <path>  (270) 
/opt/xchem-fragalysis-2/maxwin/BulkDock/SCRATCH/511013/C18282-P64/C18282-P64.minimised.mol

>  <scratch_subdir>  (270) 
/opt/xchem-fragalysis-2/maxwin/BulkDock/SCRATCH/511013/C18282-P64

>  <fragmenstein_runtime>  (270) 
2.39119029045105

>  <fragmenstein_outcome>  (270) 
too moved

>  <fragmenstein_mode>  (270) 
expansion

>  <fragmenstein_error>  (270) 


$$$$
C18283-P46
     RDKit          3D

 38 39  0  0  0  0  0  0  0  0999 V2000
  -13.9236  -21.7848   31.3087 O   0  0  0  0  0  0  0  0  0  0  0  0
  -12.6166  -22.3452   31.0391 S   0  0  0  0  0  0  0  0  0  0  0  0
  -12.4580  -23.6305   30.3967 O   0  0  0  0  0  0  0  0  0  0  0  0
  -11.6915  -21.3593   29.9042 C   0  0  0  0  0  0  0  0  0  0  0  0
  -10.9727  -22.0698   29.0027 F   0  0  0  0  0  0  0  0  0  0  0  0
  -12.4817  -20.5471   29.1778 F   0  0  0  0  0  0  0  0  0  0  0  0
  -11.7818  -22.2895   32.5216 N   0  0  0  0  0  0  0  0  0  0  0  0
  -12.3435  -23.0699   33.6217 C   0  0  0  0  0  0  0  0  0  0  0  0
  -11.8499  -24.5003   33.5924 C   0  0  0  0  0  0  0  0  0  0  0  0
  -10.3998  -24.8028   33.2448 C   0  0  0  0  0  0  0  0  0  0  0  0
  -10.2603  -25.8426   32.0659 C   0  0  0  0  0  0  0  0  0  0  0  0
  -10.4298  -25.3588   30.6978 N   0  0  0  0  0  0  0  0  0  0  0  0
  -10.6215  -26.4192   29.7226 C   0  0  0  0  0  0  0  0  0  0  0  0
  -11.1644  -25.9058   28.4345 C   0  0  0  0  0  0  0  0  0  0  0  0
  -11.1060  -24.6922   27.7854 C   0  0  0  0  0  0  0  0  0  0  0  0
  -11.7597  -24.7115   26.5848 N   0  0  0  0  0  0  0  0  0  0  0  0
  -12.2343  -25.9264   26.4873 C   0  0  0  0  0  0  0  0  0  0  0  0
  -11.8817  -26.6874   27.5643 N   0  0  0  0  0  0  0  0  0  0  0  0
   -9.5930  -23.5851   32.9303 C   0  0  0  0  0  0  0  0  0  0  0  0
  -10.3865  -22.4992   32.2916 C   0  0  0  0  0  0  0  0  0  0  0  0
  -10.9696  -20.7986   30.4794 H   0  0  0  0  0  0  0  0  0  0  0  0
  -12.0723  -22.5862   34.5582 H   0  0  0  0  0  0  0  0  0  0  0  0
  -13.4379  -23.0375   33.6129 H   0  0  0  0  0  0  0  0  0  0  0  0
  -12.0796  -24.9725   34.5453 H   0  0  0  0  0  0  0  0  0  0  0  0
  -12.4248  -25.0284   32.8536 H   0  0  0  0  0  0  0  0  0  0  0  0
   -9.9489  -25.2817   34.1224 H   0  0  0  0  0  0  0  0  0  0  0  0
   -9.2332  -26.1933   32.0872 H   0  0  0  0  0  0  0  0  0  0  0  0
  -10.9261  -26.6893   32.2670 H   0  0  0  0  0  0  0  0  0  0  0  0
   -9.6263  -24.8165   30.4087 H   0  0  0  0  0  0  0  0  0  0  0  0
   -9.6709  -26.9176   29.5221 H   0  0  0  0  0  0  0  0  0  0  0  0
  -11.3127  -27.1765   30.1102 H   0  0  0  0  0  0  0  0  0  0  0  0
  -10.5808  -23.8142   28.1077 H   0  0  0  0  0  0  0  0  0  0  0  0
  -12.8190  -26.3146   25.6644 H   0  0  0  0  0  0  0  0  0  0  0  0
  -12.1089  -27.6623   27.6764 H   0  0  0  0  0  0  0  0  0  0  0  0
   -8.7942  -23.9369   32.2717 H   0  0  0  0  0  0  0  0  0  0  0  0
   -8.9691  -23.1826   33.7124 H   0  0  0  0  0  0  0  0  0  0  0  0
   -9.9108  -21.5209   32.3164 H   0  0  0  0  0  0  0  0  0  0  0  0
  -10.3903  -22.8591   31.2895 H   0  0  0  0  0  0  0  0  0  0  0  0
  1  2  2  0
  2  3  2  0
  2  4  1  0
  4  5  1  0
  4  6  1  0
  2  7  1  0
  7  8  1  0
  8  9  1  0
  9 10  1  0
 10 11  1  0
 11 12  1  0
 12 13  1  0
 13 14  1  0
 14 15  2  0
 15 16  1  0
 16 17  2  0
 17 18  1  0
 10 19  1  0
 19 20  1  0
 20  7  1  0
 18 14  1  0
  4 21  1  0
  8 22  1  0
  8 23  1  0
  9 24  1  0
  9 25  1  0
 10 26  1  0
 11 27  1  0
 11 28  1  0
 12 29  1  0
 13 30  1  0
 13 31  1  0
 15 32  1  0
 17 33  1  0
 18 34  1  0
 19 35  1  0
 19 36  1  0
 20 37  1  0
 20 38  1  0
M  END
>  <Energy>  (271) 
95.983996350348193

>  <compound_id>  (271) 
18283

>  <target_id>  (271) 
1

>  <reference_id>  (271) 
46

>  <inspiration_ids>  (271) 
[46, 64]

>  <energy_score>  (271) 
10.989467443814817

>  <distance_score>  (271) 
1.7072660358905256

>  <path>  (271) 
/opt/xchem-fragalysis-2/maxwin/BulkDock/SCRATCH/511013/C18283-P46/C18283-P46.minimised.mol

>  <scratch_subdir>  (271) 
/opt/xchem-fragalysis-2/maxwin/BulkDock/SCRATCH/511013/C18283-P46

>  <fragmenstein_runtime>  (271) 
3.649538993835449

>  <fragmenstein_outcome>  (271) 
too moved

>  <fragmenstein_mode>  (271) 
expansion

>  <fragmenstein_error>  (271) 


$$$$
C18283-P64
     RDKit          3D

 38 39  0  0  0  0  0  0  0  0999 V2000
  -14.7507  -20.9143   31.5897 O   0  0  0  0  0  0  0  0  0  0  0  0
  -14.0804  -22.1752   31.8293 S   0  0  0  0  0  0  0  0  0  0  0  0
  -15.0220  -23.1416   32.3605 O   0  0  0  0  0  0  0  0  0  0  0  0
  -12.7845  -22.6174   30.2285 C   0  0  0  0  0  0  0  0  0  0  0  0
  -13.4273  -23.2046   29.1988 F   0  0  0  0  0  0  0  0  0  0  0  0
  -12.2121  -21.4754   29.7436 F   0  0  0  0  0  0  0  0  0  0  0  0
  -12.9561  -21.8794   33.0279 N   0  0  0  0  0  0  0  0  0  0  0  0
  -12.7945  -22.8758   34.0739 C   0  0  0  0  0  0  0  0  0  0  0  0
  -12.0488  -24.1215   33.7274 C   0  0  0  0  0  0  0  0  0  0  0  0
  -11.1743  -23.9783   32.5322 C   0  0  0  0  0  0  0  0  0  0  0  0
  -10.0563  -24.9927   32.3729 C   0  0  0  0  0  0  0  0  0  0  0  0
   -9.4613  -24.9891   31.0131 N   0  0  0  0  0  0  0  0  0  0  0  0
  -10.1641  -25.8708   30.0956 C   0  0  0  0  0  0  0  0  0  0  0  0
  -10.4246  -25.4250   28.7019 C   0  0  0  0  0  0  0  0  0  0  0  0
  -10.6419  -24.2241   28.0620 C   0  0  0  0  0  0  0  0  0  0  0  0
  -11.1287  -24.4114   26.7901 N   0  0  0  0  0  0  0  0  0  0  0  0
  -11.2131  -25.7069   26.6350 C   0  0  0  0  0  0  0  0  0  0  0  0
  -10.7426  -26.3551   27.7345 N   0  0  0  0  0  0  0  0  0  0  0  0
  -10.7245  -22.5612   32.2939 C   0  0  0  0  0  0  0  0  0  0  0  0
  -11.6775  -21.4035   32.5710 C   0  0  0  0  0  0  0  0  0  0  0  0
  -12.0022  -23.2973   30.4261 H   0  0  0  0  0  0  0  0  0  0  0  0
  -12.1901  -22.4001   34.8346 H   0  0  0  0  0  0  0  0  0  0  0  0
  -13.7823  -23.1363   34.4636 H   0  0  0  0  0  0  0  0  0  0  0  0
  -11.4878  -24.5715   34.5449 H   0  0  0  0  0  0  0  0  0  0  0  0
  -12.8503  -24.8225   33.5750 H   0  0  0  0  0  0  0  0  0  0  0  0
  -11.8198  -24.2872   31.7535 H   0  0  0  0  0  0  0  0  0  0  0  0
   -9.2766  -24.7378   33.0895 H   0  0  0  0  0  0  0  0  0  0  0  0
  -10.4315  -25.9841   32.6315 H   0  0  0  0  0  0  0  0  0  0  0  0
   -8.5375  -25.4033   31.1559 H   0  0  0  0  0  0  0  0  0  0  0  0
   -9.7196  -26.8705   30.1083 H   0  0  0  0  0  0  0  0  0  0  0  0
  -11.1361  -26.0086   30.5027 H   0  0  0  0  0  0  0  0  0  0  0  0
  -10.5429  -23.2211   28.4456 H   0  0  0  0  0  0  0  0  0  0  0  0
  -11.5843  -26.2253   25.7599 H   0  0  0  0  0  0  0  0  0  0  0  0
  -10.7403  -27.3535   27.8573 H   0  0  0  0  0  0  0  0  0  0  0  0
  -10.5346  -22.4450   31.2448 H   0  0  0  0  0  0  0  0  0  0  0  0
   -9.7347  -22.5125   32.7181 H   0  0  0  0  0  0  0  0  0  0  0  0
  -11.4136  -20.5804   33.2319 H   0  0  0  0  0  0  0  0  0  0  0  0
  -11.7305  -20.8712   31.6407 H   0  0  0  0  0  0  0  0  0  0  0  0
  1  2  2  0
  2  3  2  0
  2  4  1  0
  4  5  1  0
  4  6  1  0
  2  7  1  0
  7  8  1  0
  8  9  1  0
  9 10  1  0
 10 11  1  0
 11 12  1  0
 12 13  1  0
 13 14  1  0
 14 15  2  0
 15 16  1  0
 16 17  2  0
 17 18  1  0
 10 19  1  0
 19 20  1  0
 20  7  1  0
 18 14  1  0
  4 21  1  0
  8 22  1  0
  8 23  1  0
  9 24  1  0
  9 25  1  0
 10 26  1  0
 11 27  1  0
 11 28  1  0
 12 29  1  0
 13 30  1  0
 13 31  1  0
 15 32  1  0
 17 33  1  0
 18 34  1  0
 19 35  1  0
 19 36  1  0
 20 37  1  0
 20 38  1  0
M  END
>  <Energy>  (272) 
118.92097903426198

>  <compound_id>  (272) 
18283

>  <target_id>  (272) 
1

>  <reference_id>  (272) 
64

>  <inspiration_ids>  (272) 
[46, 64]

>  <energy_score>  (272) 
33.926450127726724

>  <distance_score>  (272) 
1.682281146529113

>  <path>  (272) 
/opt/xchem-fragalysis-2/maxwin/BulkDock/SCRATCH/511013/C18283-P64/C18283-P64.minimised.mol

>  <scratch_subdir>  (272) 
/opt/xchem-fragalysis-2/maxwin/BulkDock/SCRATCH/511013/C18283-P64

>  <fragmenstein_runtime>  (272) 
2.9822330474853516

>  <fragmenstein_outcome>  (272) 
too moved

>  <fragmenstein_mode>  (272) 
expansion

>  <fragmenstein_error>  (272) 


$$$$
C18284-P46
     RDKit          3D

 47 48  0  0  0  0  0  0  0  0999 V2000
  -10.9109  -24.4717   27.0121 C   0  0  0  0  0  0  0  0  0  0  0  0
  -12.2907  -23.9335   26.8931 C   0  0  0  0  0  0  0  0  0  0  0  0
  -12.4268  -23.4221   25.4679 C   0  0  0  0  0  0  0  0  0  0  0  0
  -13.2495  -25.1311   26.9968 C   0  0  0  0  0  0  0  0  0  0  0  0
  -12.2063  -22.8932   27.9167 O   0  0  0  0  0  0  0  0  0  0  0  0
  -12.9282  -23.0252   29.0585 C   0  0  0  0  0  0  0  0  0  0  0  0
  -13.9431  -23.6432   28.9906 O   0  0  0  0  0  0  0  0  0  0  0  0
  -12.3675  -22.3030   30.1331 N   0  0  0  0  0  0  0  0  0  0  0  0
  -12.9278  -21.9791   31.5228 C   0  0  0  0  0  0  0  0  0  0  0  0
  -12.9651  -22.6178   32.9332 C   0  0  0  0  0  0  0  0  0  0  0  0
  -11.6047  -23.1205   33.3116 C   0  0  0  0  0  0  0  0  0  0  0  0
  -11.4899  -24.6235   33.6681 C   0  0  0  0  0  0  0  0  0  0  0  0
  -10.5266  -25.3615   32.8292 N   0  0  0  0  0  0  0  0  0  0  0  0
  -11.1068  -26.5024   32.1523 C   0  0  0  0  0  0  0  0  0  0  0  0
  -10.7695  -26.5969   30.7381 C   0  0  0  0  0  0  0  0  0  0  0  0
   -9.8581  -25.9830   29.9326 C   0  0  0  0  0  0  0  0  0  0  0  0
   -9.9761  -26.4331   28.6573 N   0  0  0  0  0  0  0  0  0  0  0  0
  -11.0642  -27.1572   28.6396 C   0  0  0  0  0  0  0  0  0  0  0  0
  -11.4798  -27.4046   29.8978 N   0  0  0  0  0  0  0  0  0  0  0  0
  -10.7062  -22.7297   32.1681 C   0  0  0  0  0  0  0  0  0  0  0  0
  -11.4830  -23.1824   30.9241 C   0  0  0  0  0  0  0  0  0  0  0  0
  -10.2269  -23.9155   26.3919 H   0  0  0  0  0  0  0  0  0  0  0  0
  -10.5332  -24.3508   28.0243 H   0  0  0  0  0  0  0  0  0  0  0  0
  -10.8903  -25.5056   26.6820 H   0  0  0  0  0  0  0  0  0  0  0  0
  -11.8116  -24.0227   24.7981 H   0  0  0  0  0  0  0  0  0  0  0  0
  -13.4552  -23.4729   25.0946 H   0  0  0  0  0  0  0  0  0  0  0  0
  -12.0834  -22.4062   25.3436 H   0  0  0  0  0  0  0  0  0  0  0  0
  -13.2287  -25.6113   27.9702 H   0  0  0  0  0  0  0  0  0  0  0  0
  -13.0067  -25.9023   26.2535 H   0  0  0  0  0  0  0  0  0  0  0  0
  -14.2690  -24.8355   26.7673 H   0  0  0  0  0  0  0  0  0  0  0  0
  -12.4164  -21.0397   31.7337 H   0  0  0  0  0  0  0  0  0  0  0  0
  -13.9783  -21.7357   31.3141 H   0  0  0  0  0  0  0  0  0  0  0  0
  -13.2232  -21.7839   33.6082 H   0  0  0  0  0  0  0  0  0  0  0  0
  -13.7587  -23.3143   33.1762 H   0  0  0  0  0  0  0  0  0  0  0  0
  -11.4206  -22.5408   34.1921 H   0  0  0  0  0  0  0  0  0  0  0  0
  -12.4893  -25.0383   33.6703 H   0  0  0  0  0  0  0  0  0  0  0  0
  -11.1635  -24.7430   34.7055 H   0  0  0  0  0  0  0  0  0  0  0  0
   -9.7425  -25.7250   33.3789 H   0  0  0  0  0  0  0  0  0  0  0  0
  -10.8969  -27.4498   32.6463 H   0  0  0  0  0  0  0  0  0  0  0  0
  -12.1733  -26.4189   32.1774 H   0  0  0  0  0  0  0  0  0  0  0  0
   -9.1243  -25.2445   30.2163 H   0  0  0  0  0  0  0  0  0  0  0  0
  -11.5435  -27.5658   27.7612 H   0  0  0  0  0  0  0  0  0  0  0  0
  -12.2388  -28.0117   30.1551 H   0  0  0  0  0  0  0  0  0  0  0  0
   -9.7610  -23.2550   32.2873 H   0  0  0  0  0  0  0  0  0  0  0  0
  -10.4783  -21.6590   32.1417 H   0  0  0  0  0  0  0  0  0  0  0  0
  -12.0016  -24.1322   31.0882 H   0  0  0  0  0  0  0  0  0  0  0  0
  -10.7736  -23.5146   30.1720 H   0  0  0  0  0  0  0  0  0  0  0  0
  1  2  1  0
  2  3  1  0
  2  4  1  0
  2  5  1  0
  5  6  1  0
  6  7  2  0
  6  8  1  0
  8  9  1  0
  9 10  1  0
 10 11  1  0
 11 12  1  0
 12 13  1  0
 13 14  1  0
 14 15  1  0
 15 16  2  0
 16 17  1  0
 17 18  2  0
 18 19  1  0
 11 20  1  0
 20 21  1  0
 21  8  1  0
 19 15  1  0
  1 22  1  0
  1 23  1  0
  1 24  1  0
  3 25  1  0
  3 26  1  0
  3 27  1  0
  4 28  1  0
  4 29  1  0
  4 30  1  0
  9 31  1  0
  9 32  1  0
 10 33  1  0
 10 34  1  0
 11 35  1  0
 12 36  1  0
 12 37  1  0
 13 38  1  0
 14 39  1  0
 14 40  1  0
 16 41  1  0
 18 42  1  0
 19 43  1  0
 20 44  1  0
 20 45  1  0
 21 46  1  0
 21 47  1  0
M  END
>  <Energy>  (273) 
105.14799772823818

>  <compound_id>  (273) 
18284

>  <target_id>  (273) 
1

>  <reference_id>  (273) 
46

>  <inspiration_ids>  (273) 
[46, 64]

>  <energy_score>  (273) 
108.6406991510965

>  <distance_score>  (273) 
3.3679760132283456

>  <path>  (273) 
/opt/xchem-fragalysis-2/maxwin/BulkDock/SCRATCH/511013/C18284-P46/C18284-P46.minimised.mol

>  <scratch_subdir>  (273) 
/opt/xchem-fragalysis-2/maxwin/BulkDock/SCRATCH/511013/C18284-P46

>  <fragmenstein_runtime>  (273) 
8.754176139831543

>  <fragmenstein_outcome>  (273) 
too moved

>  <fragmenstein_mode>  (273) 
expansion

>  <fragmenstein_error>  (273) 


$$$$
C18284-P64
     RDKit          3D

 47 48  0  0  0  0  0  0  0  0999 V2000
  -13.5470  -24.5034   26.0141 C   0  0  0  0  0  0  0  0  0  0  0  0
  -12.2085  -23.7127   26.0869 C   0  0  0  0  0  0  0  0  0  0  0  0
  -11.1013  -24.7592   26.0886 C   0  0  0  0  0  0  0  0  0  0  0  0
  -12.1891  -22.9243   24.7337 C   0  0  0  0  0  0  0  0  0  0  0  0
  -11.9844  -22.7953   27.2864 O   0  0  0  0  0  0  0  0  0  0  0  0
  -12.3400  -23.2647   28.5347 C   0  0  0  0  0  0  0  0  0  0  0  0
  -12.4751  -24.4517   28.5564 O   0  0  0  0  0  0  0  0  0  0  0  0
  -12.5885  -22.2601   29.5799 N   0  0  0  0  0  0  0  0  0  0  0  0
  -13.1794  -22.4046   30.9213 C   0  0  0  0  0  0  0  0  0  0  0  0
  -13.5173  -21.7254   32.2226 C   0  0  0  0  0  0  0  0  0  0  0  0
  -12.2023  -21.7435   32.9094 C   0  0  0  0  0  0  0  0  0  0  0  0
  -12.0427  -23.1694   33.5078 C   0  0  0  0  0  0  0  0  0  0  0  0
  -10.8828  -23.7251   32.8898 N   0  0  0  0  0  0  0  0  0  0  0  0
  -10.6033  -25.1082   32.9719 C   0  0  0  0  0  0  0  0  0  0  0  0
  -10.1361  -25.3741   31.6181 C   0  0  0  0  0  0  0  0  0  0  0  0
   -8.8707  -25.3180   31.1618 C   0  0  0  0  0  0  0  0  0  0  0  0
   -8.8536  -25.1536   29.7951 N   0  0  0  0  0  0  0  0  0  0  0  0
  -10.0275  -25.5061   29.3999 C   0  0  0  0  0  0  0  0  0  0  0  0
  -10.8421  -25.3999   30.4600 N   0  0  0  0  0  0  0  0  0  0  0  0
  -11.1873  -21.3948   31.7821 C   0  0  0  0  0  0  0  0  0  0  0  0
  -11.3749  -22.0373   30.3727 C   0  0  0  0  0  0  0  0  0  0  0  0
  -13.4929  -25.2755   25.2356 H   0  0  0  0  0  0  0  0  0  0  0  0
  -13.8357  -25.0247   26.9250 H   0  0  0  0  0  0  0  0  0  0  0  0
  -14.3845  -23.8608   25.7239 H   0  0  0  0  0  0  0  0  0  0  0  0
  -11.3883  -25.6462   26.6603 H   0  0  0  0  0  0  0  0  0  0  0  0
  -10.9034  -25.1301   25.0802 H   0  0  0  0  0  0  0  0  0  0  0  0
  -10.1836  -24.3600   26.5220 H   0  0  0  0  0  0  0  0  0  0  0  0
  -11.3694  -23.2482   24.0853 H   0  0  0  0  0  0  0  0  0  0  0  0
  -12.1019  -21.8417   24.8224 H   0  0  0  0  0  0  0  0  0  0  0  0
  -13.1062  -23.0714   24.1506 H   0  0  0  0  0  0  0  0  0  0  0  0
  -14.2109  -22.5498   30.6462 H   0  0  0  0  0  0  0  0  0  0  0  0
  -12.7044  -23.3073   31.2534 H   0  0  0  0  0  0  0  0  0  0  0  0
  -14.0860  -20.8102   32.1680 H   0  0  0  0  0  0  0  0  0  0  0  0
  -14.2346  -22.3456   32.7834 H   0  0  0  0  0  0  0  0  0  0  0  0
  -12.1878  -20.9982   33.7103 H   0  0  0  0  0  0  0  0  0  0  0  0
  -12.9120  -23.8139   33.3465 H   0  0  0  0  0  0  0  0  0  0  0  0
  -11.9985  -23.0922   34.5882 H   0  0  0  0  0  0  0  0  0  0  0  0
  -10.0182  -23.2104   32.9975 H   0  0  0  0  0  0  0  0  0  0  0  0
   -9.8046  -25.2135   33.7069 H   0  0  0  0  0  0  0  0  0  0  0  0
  -11.3923  -25.7188   33.3739 H   0  0  0  0  0  0  0  0  0  0  0  0
   -7.9937  -25.2667   31.7868 H   0  0  0  0  0  0  0  0  0  0  0  0
  -10.3478  -25.7009   28.3972 H   0  0  0  0  0  0  0  0  0  0  0  0
  -11.7799  -25.0877   30.3277 H   0  0  0  0  0  0  0  0  0  0  0  0
  -10.1672  -21.6232   32.0392 H   0  0  0  0  0  0  0  0  0  0  0  0
  -11.1011  -20.3433   31.7454 H   0  0  0  0  0  0  0  0  0  0  0  0
  -10.9321  -23.0209   30.4341 H   0  0  0  0  0  0  0  0  0  0  0  0
  -10.7694  -21.4357   29.6865 H   0  0  0  0  0  0  0  0  0  0  0  0
  1  2  1  0
  2  3  1  0
  2  4  1  0
  2  5  1  0
  5  6  1  0
  6  7  2  0
  6  8  1  0
  8  9  1  0
  9 10  1  0
 10 11  1  0
 11 12  1  0
 12 13  1  0
 13 14  1  0
 14 15  1  0
 15 16  2  0
 16 17  1  0
 17 18  2  0
 18 19  1  0
 11 20  1  0
 20 21  1  0
 21  8  1  0
 19 15  1  0
  1 22  1  0
  1 23  1  0
  1 24  1  0
  3 25  1  0
  3 26  1  0
  3 27  1  0
  4 28  1  0
  4 29  1  0
  4 30  1  0
  9 31  1  0
  9 32  1  0
 10 33  1  0
 10 34  1  0
 11 35  1  0
 12 36  1  0
 12 37  1  0
 13 38  1  0
 14 39  1  0
 14 40  1  0
 16 41  1  0
 18 42  1  0
 19 43  1  0
 20 44  1  0
 20 45  1  0
 21 46  1  0
 21 47  1  0
M  END
>  <Energy>  (274) 
139.29587860951787

>  <compound_id>  (274) 
18284

>  <target_id>  (274) 
1

>  <reference_id>  (274) 
64

>  <inspiration_ids>  (274) 
[46, 64]

>  <energy_score>  (274) 
142.78858003237855

>  <distance_score>  (274) 
3.762723565193757

>  <path>  (274) 
/opt/xchem-fragalysis-2/maxwin/BulkDock/SCRATCH/511013/C18284-P64/C18284-P64.minimised.mol

>  <scratch_subdir>  (274) 
/opt/xchem-fragalysis-2/maxwin/BulkDock/SCRATCH/511013/C18284-P64

>  <fragmenstein_runtime>  (274) 
8.774228811264038

>  <fragmenstein_outcome>  (274) 
too moved

>  <fragmenstein_mode>  (274) 
expansion

>  <fragmenstein_error>  (274) 


$$$$
C18286-P46
     RDKit          3D

 41 43  0  0  0  0  0  0  0  0999 V2000
  -11.7308  -22.0987   28.0603 C   0  0  0  0  0  0  0  0  0  0  0  0
  -11.5178  -21.6789   29.3589 C   0  0  0  0  0  0  0  0  0  0  0  0
  -12.0249  -22.3887   30.4010 C   0  0  0  0  0  0  0  0  0  0  0  0
  -12.1013  -21.8952   31.6759 N   0  0  0  0  0  0  0  0  0  0  0  0
  -10.8262  -21.6845   32.2714 C   0  0  0  0  0  0  0  0  0  0  0  0
  -10.2248  -23.0383   32.6625 C   0  0  0  0  0  0  0  0  0  0  0  0
  -11.1585  -24.0391   33.3272 C   0  0  0  0  0  0  0  0  0  0  0  0
  -11.1663  -25.4413   32.6778 C   0  0  0  0  0  0  0  0  0  0  0  0
  -10.1446  -25.7973   31.6832 N   0  0  0  0  0  0  0  0  0  0  0  0
  -10.5740  -26.9568   30.8914 C   0  0  0  0  0  0  0  0  0  0  0  0
  -10.8151  -26.5879   29.4822 C   0  0  0  0  0  0  0  0  0  0  0  0
  -10.3326  -25.5406   28.7484 C   0  0  0  0  0  0  0  0  0  0  0  0
  -10.8137  -25.5584   27.4703 N   0  0  0  0  0  0  0  0  0  0  0  0
  -11.5898  -26.6063   27.4051 C   0  0  0  0  0  0  0  0  0  0  0  0
  -11.6197  -27.2646   28.5987 N   0  0  0  0  0  0  0  0  0  0  0  0
  -12.5077  -23.3861   33.6736 C   0  0  0  0  0  0  0  0  0  0  0  0
  -13.0480  -22.2931   32.7289 C   0  0  0  0  0  0  0  0  0  0  0  0
  -12.2963  -23.6546   30.0172 C   0  0  0  0  0  0  0  0  0  0  0  0
  -12.7444  -23.9223   28.7362 C   0  0  0  0  0  0  0  0  0  0  0  0
  -12.5013  -23.1221   27.7324 N   0  0  0  0  0  0  0  0  0  0  0  0
  -11.3427  -21.5789   27.2063 H   0  0  0  0  0  0  0  0  0  0  0  0
  -10.9319  -20.8126   29.5547 H   0  0  0  0  0  0  0  0  0  0  0  0
  -11.0925  -21.0181   33.0791 H   0  0  0  0  0  0  0  0  0  0  0  0
  -10.1643  -21.0965   31.6500 H   0  0  0  0  0  0  0  0  0  0  0  0
   -9.3000  -22.9194   33.2294 H   0  0  0  0  0  0  0  0  0  0  0  0
   -9.9101  -23.5224   31.7490 H   0  0  0  0  0  0  0  0  0  0  0  0
  -10.7602  -24.3618   34.2857 H   0  0  0  0  0  0  0  0  0  0  0  0
  -11.0113  -26.1537   33.4927 H   0  0  0  0  0  0  0  0  0  0  0  0
  -12.1449  -25.6472   32.2984 H   0  0  0  0  0  0  0  0  0  0  0  0
   -9.3264  -26.1024   32.2262 H   0  0  0  0  0  0  0  0  0  0  0  0
   -9.7850  -27.7092   30.9266 H   0  0  0  0  0  0  0  0  0  0  0  0
  -11.4480  -27.4617   31.3196 H   0  0  0  0  0  0  0  0  0  0  0  0
   -9.7015  -24.7477   29.1217 H   0  0  0  0  0  0  0  0  0  0  0  0
  -12.1624  -26.8950   26.5372 H   0  0  0  0  0  0  0  0  0  0  0  0
  -12.1472  -28.1017   28.7889 H   0  0  0  0  0  0  0  0  0  0  0  0
  -13.2673  -24.1298   33.8962 H   0  0  0  0  0  0  0  0  0  0  0  0
  -12.3556  -22.8881   34.6366 H   0  0  0  0  0  0  0  0  0  0  0  0
  -14.0673  -22.4148   32.3726 H   0  0  0  0  0  0  0  0  0  0  0  0
  -13.1921  -21.4028   33.3630 H   0  0  0  0  0  0  0  0  0  0  0  0
  -12.2861  -24.4360   30.7419 H   0  0  0  0  0  0  0  0  0  0  0  0
  -13.2384  -24.8328   28.4422 H   0  0  0  0  0  0  0  0  0  0  0  0
  1  2  2  0
  2  3  1  0
  3  4  1  0
  4  5  1  0
  5  6  1  0
  6  7  1  0
  7  8  1  0
  8  9  1  0
  9 10  1  0
 10 11  1  0
 11 12  2  0
 12 13  1  0
 13 14  2  0
 14 15  1  0
  7 16  1  0
 16 17  1  0
  3 18  2  0
 18 19  1  0
 19 20  2  0
 20  1  1  0
 17  4  1  0
 15 11  1  0
  1 21  1  0
  2 22  1  0
  5 23  1  0
  5 24  1  0
  6 25  1  0
  6 26  1  0
  7 27  1  0
  8 28  1  0
  8 29  1  0
  9 30  1  0
 10 31  1  0
 10 32  1  0
 12 33  1  0
 14 34  1  0
 15 35  1  0
 16 36  1  0
 16 37  1  0
 17 38  1  0
 17 39  1  0
 18 40  1  0
 19 41  1  0
M  END
>  <Energy>  (275) 
80.292956582850195

>  <compound_id>  (275) 
18286

>  <target_id>  (275) 
1

>  <reference_id>  (275) 
46

>  <inspiration_ids>  (275) 
[46, 64]

>  <energy_score>  (275) 
36.96382318133644

>  <distance_score>  (275) 
2.013329564992278

>  <path>  (275) 
/opt/xchem-fragalysis-2/maxwin/BulkDock/SCRATCH/511013/C18286-P46/C18286-P46.minimised.mol

>  <scratch_subdir>  (275) 
/opt/xchem-fragalysis-2/maxwin/BulkDock/SCRATCH/511013/C18286-P46

>  <fragmenstein_runtime>  (275) 
2.771564483642578

>  <fragmenstein_outcome>  (275) 
too moved

>  <fragmenstein_mode>  (275) 
expansion

>  <fragmenstein_error>  (275) 


$$$$
C18286-P64
     RDKit          3D

 41 43  0  0  0  0  0  0  0  0999 V2000
  -10.9629  -21.8036   28.3188 C   0  0  0  0  0  0  0  0  0  0  0  0
  -11.3524  -21.4846   29.6011 C   0  0  0  0  0  0  0  0  0  0  0  0
  -12.3085  -22.2128   30.1954 C   0  0  0  0  0  0  0  0  0  0  0  0
  -12.7786  -21.9090   31.4602 N   0  0  0  0  0  0  0  0  0  0  0  0
  -11.7882  -21.4132   32.4286 C   0  0  0  0  0  0  0  0  0  0  0  0
  -12.1767  -22.0167   33.7357 C   0  0  0  0  0  0  0  0  0  0  0  0
  -12.2087  -23.5362   33.5220 C   0  0  0  0  0  0  0  0  0  0  0  0
  -11.0401  -24.0381   32.5158 C   0  0  0  0  0  0  0  0  0  0  0  0
  -10.6554  -25.4242   32.2479 N   0  0  0  0  0  0  0  0  0  0  0  0
   -9.6339  -25.5506   31.1821 C   0  0  0  0  0  0  0  0  0  0  0  0
  -10.0228  -25.6449   29.7354 C   0  0  0  0  0  0  0  0  0  0  0  0
   -9.7846  -24.8960   28.6036 C   0  0  0  0  0  0  0  0  0  0  0  0
  -10.2394  -25.4902   27.4531 N   0  0  0  0  0  0  0  0  0  0  0  0
  -10.7369  -26.6221   27.8502 C   0  0  0  0  0  0  0  0  0  0  0  0
  -10.4933  -26.8001   29.1741 N   0  0  0  0  0  0  0  0  0  0  0  0
  -13.7102  -23.5374   33.2236 C   0  0  0  0  0  0  0  0  0  0  0  0
  -14.0183  -22.4612   32.0990 C   0  0  0  0  0  0  0  0  0  0  0  0
  -12.5788  -23.3135   29.4046 C   0  0  0  0  0  0  0  0  0  0  0  0
  -12.3198  -23.4898   28.0587 C   0  0  0  0  0  0  0  0  0  0  0  0
  -11.4801  -22.6881   27.4769 N   0  0  0  0  0  0  0  0  0  0  0  0
  -10.1079  -21.3003   27.9496 H   0  0  0  0  0  0  0  0  0  0  0  0
  -10.8198  -20.7294   30.1323 H   0  0  0  0  0  0  0  0  0  0  0  0
  -10.7718  -21.6576   32.1155 H   0  0  0  0  0  0  0  0  0  0  0  0
  -11.7594  -20.3499   32.5869 H   0  0  0  0  0  0  0  0  0  0  0  0
  -13.1348  -21.5382   33.9864 H   0  0  0  0  0  0  0  0  0  0  0  0
  -11.7529  -21.7165   34.6609 H   0  0  0  0  0  0  0  0  0  0  0  0
  -12.0053  -24.0647   34.4357 H   0  0  0  0  0  0  0  0  0  0  0  0
  -10.1161  -23.5605   32.8565 H   0  0  0  0  0  0  0  0  0  0  0  0
  -11.1990  -23.6554   31.5334 H   0  0  0  0  0  0  0  0  0  0  0  0
  -10.2213  -25.8117   33.0864 H   0  0  0  0  0  0  0  0  0  0  0  0
   -8.8549  -24.8116   31.3449 H   0  0  0  0  0  0  0  0  0  0  0  0
   -9.1575  -26.5173   31.3508 H   0  0  0  0  0  0  0  0  0  0  0  0
   -9.3204  -23.9373   28.5038 H   0  0  0  0  0  0  0  0  0  0  0  0
  -11.2368  -27.3473   27.2239 H   0  0  0  0  0  0  0  0  0  0  0  0
  -10.6073  -27.6600   29.6665 H   0  0  0  0  0  0  0  0  0  0  0  0
  -14.1554  -24.5283   33.1517 H   0  0  0  0  0  0  0  0  0  0  0  0
  -14.2693  -23.2029   34.1137 H   0  0  0  0  0  0  0  0  0  0  0  0
  -14.7773  -22.7547   31.3971 H   0  0  0  0  0  0  0  0  0  0  0  0
  -14.5317  -21.6102   32.5738 H   0  0  0  0  0  0  0  0  0  0  0  0
  -12.4080  -24.2516   29.8906 H   0  0  0  0  0  0  0  0  0  0  0  0
  -12.6008  -24.3754   27.5060 H   0  0  0  0  0  0  0  0  0  0  0  0
  1  2  2  0
  2  3  1  0
  3  4  1  0
  4  5  1  0
  5  6  1  0
  6  7  1  0
  7  8  1  0
  8  9  1  0
  9 10  1  0
 10 11  1  0
 11 12  2  0
 12 13  1  0
 13 14  2  0
 14 15  1  0
  7 16  1  0
 16 17  1  0
  3 18  2  0
 18 19  1  0
 19 20  2  0
 20  1  1  0
 17  4  1  0
 15 11  1  0
  1 21  1  0
  2 22  1  0
  5 23  1  0
  5 24  1  0
  6 25  1  0
  6 26  1  0
  7 27  1  0
  8 28  1  0
  8 29  1  0
  9 30  1  0
 10 31  1  0
 10 32  1  0
 12 33  1  0
 14 34  1  0
 15 35  1  0
 16 36  1  0
 16 37  1  0
 17 38  1  0
 17 39  1  0
 18 40  1  0
 19 41  1  0
M  END
>  <Energy>  (276) 
124.97408920434187

>  <compound_id>  (276) 
18286

>  <target_id>  (276) 
1

>  <reference_id>  (276) 
64

>  <inspiration_ids>  (276) 
[46, 64]

>  <energy_score>  (276) 
93.90218394701253

>  <distance_score>  (276) 
2.375849447454832

>  <path>  (276) 
/opt/xchem-fragalysis-2/maxwin/BulkDock/SCRATCH/511013/C18286-P64/C18286-P64.minimised.mol

>  <scratch_subdir>  (276) 
/opt/xchem-fragalysis-2/maxwin/BulkDock/SCRATCH/511013/C18286-P64

>  <fragmenstein_runtime>  (276) 
4.085064172744751

>  <fragmenstein_outcome>  (276) 
too moved

>  <fragmenstein_mode>  (276) 
expansion

>  <fragmenstein_error>  (276) 


$$$$
C18287-P46
     RDKit          3D

 39 41  0  0  0  0  0  0  0  0999 V2000
  -11.5492  -21.7367   31.5398 C   0  0  0  0  0  0  0  0  0  0  0  0
  -10.8730  -21.1931   30.5624 N   0  0  0  0  0  0  0  0  0  0  0  0
  -11.3512  -21.7537   29.4138 C   0  0  0  0  0  0  0  0  0  0  0  0
  -12.3920  -22.5974   29.6688 C   0  0  0  0  0  0  0  0  0  0  0  0
  -13.2037  -23.4274   28.7168 C   0  0  0  0  0  0  0  0  0  0  0  0
  -13.1672  -24.8663   28.9140 N   0  0  0  0  0  0  0  0  0  0  0  0
  -11.8419  -25.2948   29.3459 C   0  0  0  0  0  0  0  0  0  0  0  0
  -10.6711  -25.1219   28.4236 C   0  0  0  0  0  0  0  0  0  0  0  0
  -10.2579  -26.5429   28.1387 C   0  0  0  0  0  0  0  0  0  0  0  0
  -10.9512  -27.0923   26.9157 C   0  0  0  0  0  0  0  0  0  0  0  0
  -11.8174  -26.2837   26.1007 N   0  0  0  0  0  0  0  0  0  0  0  0
  -11.6345  -24.8756   25.9817 C   0  0  0  0  0  0  0  0  0  0  0  0
  -10.8799  -24.2765   27.1450 C   0  0  0  0  0  0  0  0  0  0  0  0
  -13.9482  -25.7160   27.8895 C   0  0  0  0  0  0  0  0  0  0  0  0
  -15.1866  -26.5863   28.2550 C   0  0  0  0  0  0  0  0  0  0  0  0
  -13.9309  -27.2392   27.8730 C   0  0  0  0  0  0  0  0  0  0  0  0
  -12.4939  -22.5684   31.0477 N   0  0  0  0  0  0  0  0  0  0  0  0
  -11.4160  -21.5607   32.5969 H   0  0  0  0  0  0  0  0  0  0  0  0
  -10.8989  -21.5555   28.4580 H   0  0  0  0  0  0  0  0  0  0  0  0
  -14.2184  -23.1676   28.9173 H   0  0  0  0  0  0  0  0  0  0  0  0
  -13.0613  -23.1276   27.6833 H   0  0  0  0  0  0  0  0  0  0  0  0
  -11.9006  -26.3315   29.6877 H   0  0  0  0  0  0  0  0  0  0  0  0
  -11.5819  -24.8231   30.3020 H   0  0  0  0  0  0  0  0  0  0  0  0
   -9.8875  -24.6418   29.0216 H   0  0  0  0  0  0  0  0  0  0  0  0
   -9.1873  -26.6824   28.0916 H   0  0  0  0  0  0  0  0  0  0  0  0
  -10.4534  -27.2035   28.9926 H   0  0  0  0  0  0  0  0  0  0  0  0
  -10.2321  -27.5846   26.2577 H   0  0  0  0  0  0  0  0  0  0  0  0
  -11.5649  -27.8926   27.3205 H   0  0  0  0  0  0  0  0  0  0  0  0
  -12.1216  -26.7740   25.2602 H   0  0  0  0  0  0  0  0  0  0  0  0
  -11.1140  -24.6309   25.0503 H   0  0  0  0  0  0  0  0  0  0  0  0
  -12.5961  -24.3732   25.8518 H   0  0  0  0  0  0  0  0  0  0  0  0
  -11.2357  -23.2772   27.3393 H   0  0  0  0  0  0  0  0  0  0  0  0
   -9.9230  -24.0119   26.7355 H   0  0  0  0  0  0  0  0  0  0  0  0
  -14.0738  -25.2232   26.9290 H   0  0  0  0  0  0  0  0  0  0  0  0
  -15.5920  -26.6457   29.2508 H   0  0  0  0  0  0  0  0  0  0  0  0
  -15.9884  -26.6790   27.5220 H   0  0  0  0  0  0  0  0  0  0  0  0
  -13.3953  -27.8031   28.6198 H   0  0  0  0  0  0  0  0  0  0  0  0
  -13.9751  -27.7035   26.9009 H   0  0  0  0  0  0  0  0  0  0  0  0
  -13.1072  -23.1328   31.6324 H   0  0  0  0  0  0  0  0  0  0  0  0
  1  2  2  0
  2  3  1  0
  3  4  2  0
  4  5  1  0
  5  6  1  0
  6  7  1  0
  7  8  1  0
  8  9  1  0
  9 10  1  0
 10 11  1  0
 11 12  1  0
 12 13  1  0
  6 14  1  0
 14 15  1  0
 15 16  1  0
  4 17  1  0
 17  1  1  0
 13  8  1  0
 16 14  1  0
  1 18  1  0
  3 19  1  0
  5 20  1  0
  5 21  1  0
  7 22  1  0
  7 23  1  0
  8 24  1  0
  9 25  1  0
  9 26  1  0
 10 27  1  0
 10 28  1  0
 11 29  1  0
 12 30  1  0
 12 31  1  0
 13 32  1  0
 13 33  1  0
 14 34  1  0
 15 35  1  0
 15 36  1  0
 16 37  1  0
 16 38  1  0
 17 39  1  0
M  END
>  <Energy>  (277) 
61.881909406920258

>  <compound_id>  (277) 
18287

>  <target_id>  (277) 
1

>  <reference_id>  (277) 
46

>  <inspiration_ids>  (277) 
[46, 64]

>  <energy_score>  (277) 
17.06993896929926

>  <distance_score>  (277) 
2.081437491799853

>  <path>  (277) 
/opt/xchem-fragalysis-2/maxwin/BulkDock/SCRATCH/511013/C18287-P46/C18287-P46.minimised.mol

>  <scratch_subdir>  (277) 
/opt/xchem-fragalysis-2/maxwin/BulkDock/SCRATCH/511013/C18287-P46

>  <fragmenstein_runtime>  (277) 
3.8230388164520264

>  <fragmenstein_outcome>  (277) 
too moved

>  <fragmenstein_mode>  (277) 
expansion

>  <fragmenstein_error>  (277) 


$$$$
C18287-P64
     RDKit          3D

 39 41  0  0  0  0  0  0  0  0999 V2000
  -11.0812  -20.9440   31.9705 C   0  0  0  0  0  0  0  0  0  0  0  0
  -11.4745  -21.2965   30.7791 N   0  0  0  0  0  0  0  0  0  0  0  0
  -12.6537  -21.9181   31.0125 C   0  0  0  0  0  0  0  0  0  0  0  0
  -12.9883  -21.8939   32.3257 C   0  0  0  0  0  0  0  0  0  0  0  0
  -13.9452  -22.7015   33.0350 C   0  0  0  0  0  0  0  0  0  0  0  0
  -13.3071  -23.9363   33.4240 N   0  0  0  0  0  0  0  0  0  0  0  0
  -11.8957  -24.2979   32.8968 C   0  0  0  0  0  0  0  0  0  0  0  0
  -11.0132  -24.4058   31.3678 C   0  0  0  0  0  0  0  0  0  0  0  0
  -10.0907  -25.6286   31.3763 C   0  0  0  0  0  0  0  0  0  0  0  0
  -10.0377  -26.4104   30.0689 C   0  0  0  0  0  0  0  0  0  0  0  0
   -9.6193  -25.5688   28.9617 N   0  0  0  0  0  0  0  0  0  0  0  0
  -10.7497  -24.7485   28.6183 C   0  0  0  0  0  0  0  0  0  0  0  0
  -11.3932  -24.0590   29.8315 C   0  0  0  0  0  0  0  0  0  0  0  0
  -14.2658  -24.9720   33.9537 C   0  0  0  0  0  0  0  0  0  0  0  0
  -15.6393  -24.6410   34.5075 C   0  0  0  0  0  0  0  0  0  0  0  0
  -15.5357  -25.4315   33.2582 C   0  0  0  0  0  0  0  0  0  0  0  0
  -12.0239  -21.1704   32.9294 N   0  0  0  0  0  0  0  0  0  0  0  0
  -10.1647  -20.4191   32.1629 H   0  0  0  0  0  0  0  0  0  0  0  0
  -13.1847  -22.4340   30.2468 H   0  0  0  0  0  0  0  0  0  0  0  0
  -14.8287  -22.8496   32.4042 H   0  0  0  0  0  0  0  0  0  0  0  0
  -14.3066  -22.1601   33.9135 H   0  0  0  0  0  0  0  0  0  0  0  0
  -11.5702  -25.1639   33.4898 H   0  0  0  0  0  0  0  0  0  0  0  0
  -11.2955  -23.5337   33.3876 H   0  0  0  0  0  0  0  0  0  0  0  0
  -10.3121  -23.5948   31.5899 H   0  0  0  0  0  0  0  0  0  0  0  0
  -10.3829  -26.3008   32.1769 H   0  0  0  0  0  0  0  0  0  0  0  0
   -9.0748  -25.2921   31.6214 H   0  0  0  0  0  0  0  0  0  0  0  0
   -9.4001  -27.2824   30.2161 H   0  0  0  0  0  0  0  0  0  0  0  0
  -10.9729  -26.8546   29.7628 H   0  0  0  0  0  0  0  0  0  0  0  0
   -8.8824  -24.9588   29.2971 H   0  0  0  0  0  0  0  0  0  0  0  0
  -10.4311  -23.9939   27.8879 H   0  0  0  0  0  0  0  0  0  0  0  0
  -11.4904  -25.3512   28.0800 H   0  0  0  0  0  0  0  0  0  0  0  0
  -12.4426  -24.0795   29.5984 H   0  0  0  0  0  0  0  0  0  0  0  0
  -11.1108  -23.0359   29.6272 H   0  0  0  0  0  0  0  0  0  0  0  0
  -13.7650  -25.7435   34.5303 H   0  0  0  0  0  0  0  0  0  0  0  0
  -15.9579  -25.1745   35.3968 H   0  0  0  0  0  0  0  0  0  0  0  0
  -16.0316  -23.6373   34.4362 H   0  0  0  0  0  0  0  0  0  0  0  0
  -15.7557  -26.4921   33.2931 H   0  0  0  0  0  0  0  0  0  0  0  0
  -15.8788  -24.9572   32.3504 H   0  0  0  0  0  0  0  0  0  0  0  0
  -11.9631  -20.9807   33.9216 H   0  0  0  0  0  0  0  0  0  0  0  0
  1  2  2  0
  2  3  1  0
  3  4  2  0
  4  5  1  0
  5  6  1  0
  6  7  1  0
  7  8  1  0
  8  9  1  0
  9 10  1  0
 10 11  1  0
 11 12  1  0
 12 13  1  0
  6 14  1  0
 14 15  1  0
 15 16  1  0
  4 17  1  0
 17  1  1  0
 13  8  1  0
 16 14  1  0
  1 18  1  0
  3 19  1  0
  5 20  1  0
  5 21  1  0
  7 22  1  0
  7 23  1  0
  8 24  1  0
  9 25  1  0
  9 26  1  0
 10 27  1  0
 10 28  1  0
 11 29  1  0
 12 30  1  0
 12 31  1  0
 13 32  1  0
 13 33  1  0
 14 34  1  0
 15 35  1  0
 15 36  1  0
 16 37  1  0
 16 38  1  0
 17 39  1  0
M  END
>  <Energy>  (278) 
107.61466533980281

>  <compound_id>  (278) 
18287

>  <target_id>  (278) 
1

>  <reference_id>  (278) 
64

>  <inspiration_ids>  (278) 
[46, 64]

>  <energy_score>  (278) 
65.8435022760163

>  <distance_score>  (278) 
2.537628435574953

>  <path>  (278) 
/opt/xchem-fragalysis-2/maxwin/BulkDock/SCRATCH/511013/C18287-P64/C18287-P64.minimised.mol

>  <scratch_subdir>  (278) 
/opt/xchem-fragalysis-2/maxwin/BulkDock/SCRATCH/511013/C18287-P64

>  <fragmenstein_runtime>  (278) 
4.158290863037109

>  <fragmenstein_outcome>  (278) 
too moved

>  <fragmenstein_mode>  (278) 
expansion

>  <fragmenstein_error>  (278) 


$$$$
C18288-P46
     RDKit          3D

 38 39  0  0  0  0  0  0  0  0999 V2000
  -12.6175  -23.1418   29.0416 C   0  0  0  0  0  0  0  0  0  0  0  0
  -12.1523  -21.7451   29.9829 S   0  0  0  0  0  0  0  0  0  0  0  0
  -10.7359  -21.6845   30.0784 O   0  0  0  0  0  0  0  0  0  0  0  0
  -12.7441  -20.6632   29.2567 O   0  0  0  0  0  0  0  0  0  0  0  0
  -12.6884  -21.7983   31.5499 N   0  0  0  0  0  0  0  0  0  0  0  0
  -14.0944  -21.8102   32.0420 C   0  0  0  0  0  0  0  0  0  0  0  0
  -14.2214  -22.6606   33.3299 C   0  0  0  0  0  0  0  0  0  0  0  0
  -12.8516  -23.0617   33.8855 C   0  0  0  0  0  0  0  0  0  0  0  0
  -11.8918  -24.2276   33.3301 C   0  0  0  0  0  0  0  0  0  0  0  0
  -11.4482  -24.3395   31.9223 N   0  0  0  0  0  0  0  0  0  0  0  0
  -10.6006  -25.4875   31.5672 C   0  0  0  0  0  0  0  0  0  0  0  0
  -10.6906  -25.7570   30.0918 C   0  0  0  0  0  0  0  0  0  0  0  0
  -10.3853  -25.0091   28.9790 C   0  0  0  0  0  0  0  0  0  0  0  0
  -10.9201  -25.5483   27.8366 N   0  0  0  0  0  0  0  0  0  0  0  0
  -11.4017  -26.7032   28.2115 C   0  0  0  0  0  0  0  0  0  0  0  0
  -11.2102  -26.9069   29.5495 N   0  0  0  0  0  0  0  0  0  0  0  0
  -12.2648  -21.6748   33.9201 C   0  0  0  0  0  0  0  0  0  0  0  0
  -11.6656  -21.4125   32.5761 C   0  0  0  0  0  0  0  0  0  0  0  0
  -12.0585  -23.1016   28.1033 H   0  0  0  0  0  0  0  0  0  0  0  0
  -12.4403  -24.0566   29.5619 H   0  0  0  0  0  0  0  0  0  0  0  0
  -13.6653  -23.1109   28.7782 H   0  0  0  0  0  0  0  0  0  0  0  0
  -14.4199  -20.8112   32.3371 H   0  0  0  0  0  0  0  0  0  0  0  0
  -14.8084  -22.0691   31.2573 H   0  0  0  0  0  0  0  0  0  0  0  0
  -14.9773  -23.4343   33.2928 H   0  0  0  0  0  0  0  0  0  0  0  0
  -14.7186  -22.0112   34.0723 H   0  0  0  0  0  0  0  0  0  0  0  0
  -13.0473  -23.3976   34.8925 H   0  0  0  0  0  0  0  0  0  0  0  0
  -12.4037  -25.1429   33.5849 H   0  0  0  0  0  0  0  0  0  0  0  0
  -10.9914  -24.2469   33.9393 H   0  0  0  0  0  0  0  0  0  0  0  0
  -12.3316  -24.4255   31.4280 H   0  0  0  0  0  0  0  0  0  0  0  0
   -9.5630  -25.2757   31.8447 H   0  0  0  0  0  0  0  0  0  0  0  0
  -10.9263  -26.3800   32.1129 H   0  0  0  0  0  0  0  0  0  0  0  0
   -9.9243  -24.0376   28.9434 H   0  0  0  0  0  0  0  0  0  0  0  0
  -11.8851  -27.4233   27.5696 H   0  0  0  0  0  0  0  0  0  0  0  0
  -11.5006  -27.7170   30.0752 H   0  0  0  0  0  0  0  0  0  0  0  0
  -12.9937  -20.8752   34.1303 H   0  0  0  0  0  0  0  0  0  0  0  0
  -11.7053  -21.6045   34.8113 H   0  0  0  0  0  0  0  0  0  0  0  0
  -10.7455  -21.9885   32.4526 H   0  0  0  0  0  0  0  0  0  0  0  0
  -11.3923  -20.3653   32.5088 H   0  0  0  0  0  0  0  0  0  0  0  0
  1  2  1  0
  2  3  2  0
  2  4  2  0
  2  5  1  0
  5  6  1  0
  6  7  1  0
  7  8  1  0
  8  9  1  0
  9 10  1  0
 10 11  1  0
 11 12  1  0
 12 13  2  0
 13 14  1  0
 14 15  2  0
 15 16  1  0
  8 17  1  0
 17 18  1  0
 18  5  1  0
 16 12  1  0
  1 19  1  0
  1 20  1  0
  1 21  1  0
  6 22  1  0
  6 23  1  0
  7 24  1  0
  7 25  1  0
  8 26  1  0
  9 27  1  0
  9 28  1  0
 10 29  1  0
 11 30  1  0
 11 31  1  0
 13 32  1  0
 15 33  1  0
 16 34  1  0
 17 35  1  0
 17 36  1  0
 18 37  1  0
 18 38  1  0
M  END
>  <Energy>  (279) 
3.2490287350020641

>  <compound_id>  (279) 
18288

>  <target_id>  (279) 
1

>  <reference_id>  (279) 
46

>  <inspiration_ids>  (279) 
[46, 64]

>  <energy_score>  (279) 
22.744349021048123

>  <distance_score>  (279) 
2.2254050248115482

>  <path>  (279) 
/opt/xchem-fragalysis-2/maxwin/BulkDock/SCRATCH/511013/C18288-P46/C18288-P46.minimised.mol

>  <scratch_subdir>  (279) 
/opt/xchem-fragalysis-2/maxwin/BulkDock/SCRATCH/511013/C18288-P46

>  <fragmenstein_runtime>  (279) 
2.7564966678619385

>  <fragmenstein_outcome>  (279) 
too moved

>  <fragmenstein_mode>  (279) 
expansion

>  <fragmenstein_error>  (279) 


$$$$
C18288-P64
     RDKit          3D

 38 39  0  0  0  0  0  0  0  0999 V2000
  -11.5005  -21.3613   29.2636 C   0  0  0  0  0  0  0  0  0  0  0  0
  -12.2445  -22.6331   30.1361 S   0  0  0  0  0  0  0  0  0  0  0  0
  -11.1231  -23.3489   30.6121 O   0  0  0  0  0  0  0  0  0  0  0  0
  -13.2129  -23.2220   29.2606 O   0  0  0  0  0  0  0  0  0  0  0  0
  -12.9098  -21.8608   31.4826 N   0  0  0  0  0  0  0  0  0  0  0  0
  -14.0834  -22.5085   32.2157 C   0  0  0  0  0  0  0  0  0  0  0  0
  -13.6816  -23.5671   33.3114 C   0  0  0  0  0  0  0  0  0  0  0  0
  -12.2137  -23.4345   33.6783 C   0  0  0  0  0  0  0  0  0  0  0  0
  -10.9139  -24.2861   33.0710 C   0  0  0  0  0  0  0  0  0  0  0  0
  -10.9227  -25.2389   31.9629 N   0  0  0  0  0  0  0  0  0  0  0  0
   -9.7303  -25.4776   31.1256 C   0  0  0  0  0  0  0  0  0  0  0  0
  -10.0380  -25.5790   29.6161 C   0  0  0  0  0  0  0  0  0  0  0  0
   -9.9841  -24.7358   28.5159 C   0  0  0  0  0  0  0  0  0  0  0  0
  -10.4768  -25.3049   27.3726 N   0  0  0  0  0  0  0  0  0  0  0  0
  -10.7955  -26.5161   27.7355 C   0  0  0  0  0  0  0  0  0  0  0  0
  -10.4571  -26.7432   29.0361 N   0  0  0  0  0  0  0  0  0  0  0  0
  -12.2064  -21.9091   33.7519 C   0  0  0  0  0  0  0  0  0  0  0  0
  -11.8331  -21.4177   32.4186 C   0  0  0  0  0  0  0  0  0  0  0  0
  -12.2282  -20.5887   29.1163 H   0  0  0  0  0  0  0  0  0  0  0  0
  -10.6783  -20.9800   29.8554 H   0  0  0  0  0  0  0  0  0  0  0  0
  -11.1443  -21.7683   28.3158 H   0  0  0  0  0  0  0  0  0  0  0  0
  -14.6228  -21.6785   32.7009 H   0  0  0  0  0  0  0  0  0  0  0  0
  -14.8638  -22.8431   31.5527 H   0  0  0  0  0  0  0  0  0  0  0  0
  -14.0263  -24.5922   33.2167 H   0  0  0  0  0  0  0  0  0  0  0  0
  -14.2900  -23.2858   34.1870 H   0  0  0  0  0  0  0  0  0  0  0  0
  -12.1132  -23.6962   34.7049 H   0  0  0  0  0  0  0  0  0  0  0  0
  -10.6011  -24.9360   33.8989 H   0  0  0  0  0  0  0  0  0  0  0  0
  -10.1003  -23.5762   32.8989 H   0  0  0  0  0  0  0  0  0  0  0  0
  -11.5810  -24.8149   31.3077 H   0  0  0  0  0  0  0  0  0  0  0  0
   -8.9616  -24.7355   31.3159 H   0  0  0  0  0  0  0  0  0  0  0  0
   -9.3238  -26.4511   31.3905 H   0  0  0  0  0  0  0  0  0  0  0  0
   -9.6518  -23.7181   28.4493 H   0  0  0  0  0  0  0  0  0  0  0  0
  -11.2566  -27.2611   27.1022 H   0  0  0  0  0  0  0  0  0  0  0  0
  -10.5569  -27.6070   29.5310 H   0  0  0  0  0  0  0  0  0  0  0  0
  -11.7715  -21.4886   34.6289 H   0  0  0  0  0  0  0  0  0  0  0  0
  -13.1786  -21.4539   33.9878 H   0  0  0  0  0  0  0  0  0  0  0  0
  -10.8420  -21.7385   32.1054 H   0  0  0  0  0  0  0  0  0  0  0  0
  -11.7139  -20.3553   32.5069 H   0  0  0  0  0  0  0  0  0  0  0  0
  1  2  1  0
  2  3  2  0
  2  4  2  0
  2  5  1  0
  5  6  1  0
  6  7  1  0
  7  8  1  0
  8  9  1  0
  9 10  1  0
 10 11  1  0
 11 12  1  0
 12 13  2  0
 13 14  1  0
 14 15  2  0
 15 16  1  0
  8 17  1  0
 17 18  1  0
 18  5  1  0
 16 12  1  0
  1 19  1  0
  1 20  1  0
  1 21  1  0
  6 22  1  0
  6 23  1  0
  7 24  1  0
  7 25  1  0
  8 26  1  0
  9 27  1  0
  9 28  1  0
 10 29  1  0
 11 30  1  0
 11 31  1  0
 13 32  1  0
 15 33  1  0
 16 34  1  0
 17 35  1  0
 17 36  1  0
 18 37  1  0
 18 38  1  0
M  END
>  <Energy>  (280) 
42.107084742913514

>  <compound_id>  (280) 
18288

>  <target_id>  (280) 
1

>  <reference_id>  (280) 
64

>  <inspiration_ids>  (280) 
[46, 64]

>  <energy_score>  (280) 
58.365467637751294

>  <distance_score>  (280) 
2.0437904366289716

>  <path>  (280) 
/opt/xchem-fragalysis-2/maxwin/BulkDock/SCRATCH/511013/C18288-P64/C18288-P64.minimised.mol

>  <scratch_subdir>  (280) 
/opt/xchem-fragalysis-2/maxwin/BulkDock/SCRATCH/511013/C18288-P64

>  <fragmenstein_runtime>  (280) 
3.551405668258667

>  <fragmenstein_outcome>  (280) 
too moved

>  <fragmenstein_mode>  (280) 
expansion

>  <fragmenstein_error>  (280) 


$$$$
C18289-P46
     RDKit          3D

 37 38  0  0  0  0  0  0  0  0999 V2000
  -12.4963  -23.7105   29.9808 O   0  0  0  0  0  0  0  0  0  0  0  0
  -12.3268  -22.5576   30.2734 C   0  0  0  0  0  0  0  0  0  0  0  0
  -12.4616  -21.8788   31.5482 N   0  0  0  0  0  0  0  0  0  0  0  0
  -12.9719  -22.3863   32.9050 C   0  0  0  0  0  0  0  0  0  0  0  0
  -12.4173  -23.6282   33.6703 C   0  0  0  0  0  0  0  0  0  0  0  0
  -11.1557  -24.2825   33.1281 C   0  0  0  0  0  0  0  0  0  0  0  0
  -11.3354  -25.4328   32.1348 C   0  0  0  0  0  0  0  0  0  0  0  0
  -10.1281  -25.9741   31.5036 N   0  0  0  0  0  0  0  0  0  0  0  0
  -10.5258  -26.9621   30.4894 C   0  0  0  0  0  0  0  0  0  0  0  0
  -10.9390  -26.3743   29.1893 C   0  0  0  0  0  0  0  0  0  0  0  0
  -10.6756  -25.1668   28.5902 C   0  0  0  0  0  0  0  0  0  0  0  0
  -11.2746  -25.0580   27.3648 N   0  0  0  0  0  0  0  0  0  0  0  0
  -11.9175  -26.1871   27.2052 C   0  0  0  0  0  0  0  0  0  0  0  0
  -11.7322  -27.0190   28.2719 N   0  0  0  0  0  0  0  0  0  0  0  0
  -10.3937  -23.1809   32.4689 C   0  0  0  0  0  0  0  0  0  0  0  0
  -11.1753  -21.8871   32.2719 C   0  0  0  0  0  0  0  0  0  0  0  0
  -11.7927  -21.6419   29.2004 C   0  0  0  0  0  0  0  0  0  0  0  0
  -11.7695  -22.1872   27.9650 F   0  0  0  0  0  0  0  0  0  0  0  0
  -10.5366  -21.2379   29.4836 F   0  0  0  0  0  0  0  0  0  0  0  0
  -12.5464  -20.5279   29.1340 F   0  0  0  0  0  0  0  0  0  0  0  0
  -13.0499  -21.5270   33.5990 H   0  0  0  0  0  0  0  0  0  0  0  0
  -14.0422  -22.5464   32.7444 H   0  0  0  0  0  0  0  0  0  0  0  0
  -13.1921  -24.3545   33.8790 H   0  0  0  0  0  0  0  0  0  0  0  0
  -12.1785  -23.2523   34.6717 H   0  0  0  0  0  0  0  0  0  0  0  0
  -10.5859  -24.7135   33.9595 H   0  0  0  0  0  0  0  0  0  0  0  0
  -11.8217  -26.2637   32.6039 H   0  0  0  0  0  0  0  0  0  0  0  0
  -11.9724  -25.0982   31.3506 H   0  0  0  0  0  0  0  0  0  0  0  0
   -9.6014  -26.4742   32.2352 H   0  0  0  0  0  0  0  0  0  0  0  0
   -9.6645  -27.5911   30.2920 H   0  0  0  0  0  0  0  0  0  0  0  0
  -11.2984  -27.6366   30.8792 H   0  0  0  0  0  0  0  0  0  0  0  0
  -10.0898  -24.3613   29.0018 H   0  0  0  0  0  0  0  0  0  0  0  0
  -12.5170  -26.4559   26.3459 H   0  0  0  0  0  0  0  0  0  0  0  0
  -12.1163  -27.9462   28.3584 H   0  0  0  0  0  0  0  0  0  0  0  0
   -9.4767  -22.9877   33.0291 H   0  0  0  0  0  0  0  0  0  0  0  0
  -10.0935  -23.5529   31.5023 H   0  0  0  0  0  0  0  0  0  0  0  0
  -11.2416  -21.2281   33.1358 H   0  0  0  0  0  0  0  0  0  0  0  0
  -10.5227  -21.2698   31.6476 H   0  0  0  0  0  0  0  0  0  0  0  0
  1  2  2  0
  2  3  1  0
  3  4  1  0
  4  5  1  0
  5  6  1  0
  6  7  1  0
  7  8  1  0
  8  9  1  0
  9 10  1  0
 10 11  2  0
 11 12  1  0
 12 13  2  0
 13 14  1  0
  6 15  1  0
 15 16  1  0
  2 17  1  0
 17 18  1  0
 17 19  1  0
 17 20  1  0
 16  3  1  0
 14 10  1  0
  4 21  1  0
  4 22  1  0
  5 23  1  0
  5 24  1  0
  6 25  1  0
  7 26  1  0
  7 27  1  0
  8 28  1  0
  9 29  1  0
  9 30  1  0
 11 31  1  0
 13 32  1  0
 14 33  1  0
 15 34  1  0
 15 35  1  0
 16 36  1  0
 16 37  1  0
M  END
>  <Energy>  (281) 
177.02389087634384

>  <compound_id>  (281) 
18289

>  <target_id>  (281) 
1

>  <reference_id>  (281) 
46

>  <inspiration_ids>  (281) 
[46, 64]

>  <energy_score>  (281) 
66.33656443832268

>  <distance_score>  (281) 
1.8459415663369052

>  <path>  (281) 
/opt/xchem-fragalysis-2/maxwin/BulkDock/SCRATCH/511013/C18289-P46/C18289-P46.minimised.mol

>  <scratch_subdir>  (281) 
/opt/xchem-fragalysis-2/maxwin/BulkDock/SCRATCH/511013/C18289-P46

>  <fragmenstein_runtime>  (281) 
5.617344617843628

>  <fragmenstein_outcome>  (281) 
too moved

>  <fragmenstein_mode>  (281) 
expansion

>  <fragmenstein_error>  (281) 


$$$$
C18289-P64
     RDKit          3D

 37 38  0  0  0  0  0  0  0  0999 V2000
  -13.2017  -24.1146   28.6838 O   0  0  0  0  0  0  0  0  0  0  0  0
  -12.6097  -23.0844   28.9027 C   0  0  0  0  0  0  0  0  0  0  0  0
  -12.7298  -22.1195   30.0465 N   0  0  0  0  0  0  0  0  0  0  0  0
  -13.8009  -22.0824   31.3243 C   0  0  0  0  0  0  0  0  0  0  0  0
  -13.6739  -21.8877   32.8399 C   0  0  0  0  0  0  0  0  0  0  0  0
  -12.3116  -22.2066   33.3510 C   0  0  0  0  0  0  0  0  0  0  0  0
  -12.1860  -23.6875   33.7568 C   0  0  0  0  0  0  0  0  0  0  0  0
  -11.4455  -24.7345   33.0831 N   0  0  0  0  0  0  0  0  0  0  0  0
  -10.0779  -24.6346   32.6429 C   0  0  0  0  0  0  0  0  0  0  0  0
   -9.9752  -25.3299   31.3374 C   0  0  0  0  0  0  0  0  0  0  0  0
  -10.3298  -25.0080   30.0545 C   0  0  0  0  0  0  0  0  0  0  0  0
  -10.2192  -25.9775   29.1390 N   0  0  0  0  0  0  0  0  0  0  0  0
   -9.7748  -26.9381   29.8776 C   0  0  0  0  0  0  0  0  0  0  0  0
   -9.5836  -26.6102   31.1808 N   0  0  0  0  0  0  0  0  0  0  0  0
  -11.4427  -21.7142   32.2500 C   0  0  0  0  0  0  0  0  0  0  0  0
  -11.8386  -22.4674   31.0557 C   0  0  0  0  0  0  0  0  0  0  0  0
  -11.5196  -22.7673   27.8306 C   0  0  0  0  0  0  0  0  0  0  0  0
  -11.7807  -23.3840   26.6452 F   0  0  0  0  0  0  0  0  0  0  0  0
  -10.2531  -23.1375   28.1491 F   0  0  0  0  0  0  0  0  0  0  0  0
  -11.4333  -21.4643   27.5880 F   0  0  0  0  0  0  0  0  0  0  0  0
  -14.4657  -21.2495   31.0676 H   0  0  0  0  0  0  0  0  0  0  0  0
  -14.5703  -22.8153   31.2034 H   0  0  0  0  0  0  0  0  0  0  0  0
  -13.9269  -20.8557   33.1017 H   0  0  0  0  0  0  0  0  0  0  0  0
  -14.4543  -22.4649   33.3531 H   0  0  0  0  0  0  0  0  0  0  0  0
  -12.1693  -21.5929   34.2412 H   0  0  0  0  0  0  0  0  0  0  0  0
  -11.8223  -23.6649   34.7638 H   0  0  0  0  0  0  0  0  0  0  0  0
  -13.2013  -24.0891   33.8613 H   0  0  0  0  0  0  0  0  0  0  0  0
  -12.0066  -25.0082   32.2773 H   0  0  0  0  0  0  0  0  0  0  0  0
   -9.6976  -23.6324   32.5328 H   0  0  0  0  0  0  0  0  0  0  0  0
   -9.4525  -25.0617   33.4171 H   0  0  0  0  0  0  0  0  0  0  0  0
  -10.7209  -24.0927   29.7539 H   0  0  0  0  0  0  0  0  0  0  0  0
   -9.3920  -27.8453   29.5161 H   0  0  0  0  0  0  0  0  0  0  0  0
   -9.1645  -27.1874   31.8975 H   0  0  0  0  0  0  0  0  0  0  0  0
  -11.4793  -20.6409   32.1430 H   0  0  0  0  0  0  0  0  0  0  0  0
  -10.4013  -21.9539   32.3505 H   0  0  0  0  0  0  0  0  0  0  0  0
  -10.9465  -22.3053   30.4743 H   0  0  0  0  0  0  0  0  0  0  0  0
  -11.9111  -23.5194   31.2051 H   0  0  0  0  0  0  0  0  0  0  0  0
  1  2  2  0
  2  3  1  0
  3  4  1  0
  4  5  1  0
  5  6  1  0
  6  7  1  0
  7  8  1  0
  8  9  1  0
  9 10  1  0
 10 11  2  0
 11 12  1  0
 12 13  2  0
 13 14  1  0
  6 15  1  0
 15 16  1  0
  2 17  1  0
 17 18  1  0
 17 19  1  0
 17 20  1  0
 16  3  1  0
 14 10  1  0
  4 21  1  0
  4 22  1  0
  5 23  1  0
  5 24  1  0
  6 25  1  0
  7 26  1  0
  7 27  1  0
  8 28  1  0
  9 29  1  0
  9 30  1  0
 11 31  1  0
 13 32  1  0
 14 33  1  0
 15 34  1  0
 15 35  1  0
 16 36  1  0
 16 37  1  0
M  END
>  <Energy>  (282) 
246.52265802489666

>  <compound_id>  (282) 
18289

>  <target_id>  (282) 
1

>  <reference_id>  (282) 
64

>  <inspiration_ids>  (282) 
[46, 64]

>  <energy_score>  (282) 
135.8353315868772

>  <distance_score>  (282) 
3.0171210055518665

>  <path>  (282) 
/opt/xchem-fragalysis-2/maxwin/BulkDock/SCRATCH/511013/C18289-P64/C18289-P64.minimised.mol

>  <scratch_subdir>  (282) 
/opt/xchem-fragalysis-2/maxwin/BulkDock/SCRATCH/511013/C18289-P64

>  <fragmenstein_runtime>  (282) 
5.355550527572632

>  <fragmenstein_outcome>  (282) 
too moved

>  <fragmenstein_mode>  (282) 
expansion

>  <fragmenstein_error>  (282) 


$$$$
C18290-P46
     RDKit          3D

 37 38  0  0  0  0  0  0  0  0999 V2000
  -10.7816  -27.3225   31.1485 C   0  0  0  0  0  0  0  0  0  0  0  0
  -10.2430  -25.6184   31.1398 S   0  0  0  0  0  0  0  0  0  0  0  0
  -10.2509  -25.2895   32.9278 C   0  0  0  0  0  0  0  0  0  0  0  0
  -10.5290  -23.8295   33.1779 C   0  0  0  0  0  0  0  0  0  0  0  0
   -9.7921  -23.0503   32.6599 O   0  0  0  0  0  0  0  0  0  0  0  0
  -11.6840  -23.6179   34.0100 N   0  0  0  0  0  0  0  0  0  0  0  0
  -12.3981  -22.3448   34.4155 C   0  0  0  0  0  0  0  0  0  0  0  0
  -12.9350  -20.7823   34.2430 C   0  0  0  0  0  0  0  0  0  0  0  0
  -14.3729  -20.6309   33.5832 C   0  0  0  0  0  0  0  0  0  0  0  0
  -14.5210  -21.6320   32.3351 C   0  0  0  0  0  0  0  0  0  0  0  0
  -13.3209  -22.5638   32.1739 N   0  0  0  0  0  0  0  0  0  0  0  0
  -12.2481  -21.8962   31.4840 C   0  0  0  0  0  0  0  0  0  0  0  0
  -11.3285  -21.2497   31.9090 O   0  0  0  0  0  0  0  0  0  0  0  0
  -12.3014  -22.1865   30.0573 C   0  0  0  0  0  0  0  0  0  0  0  0
  -12.2782  -23.4889   29.5550 C   0  0  0  0  0  0  0  0  0  0  0  0
  -12.1509  -23.5834   28.2170 N   0  0  0  0  0  0  0  0  0  0  0  0
  -11.8106  -22.3715   27.9007 C   0  0  0  0  0  0  0  0  0  0  0  0
  -11.8159  -21.5267   28.9762 N   0  0  0  0  0  0  0  0  0  0  0  0
  -13.5733  -22.7630   33.6186 C   0  0  0  0  0  0  0  0  0  0  0  0
   -9.9644  -27.9798   31.4388 H   0  0  0  0  0  0  0  0  0  0  0  0
  -11.6238  -27.4763   31.8232 H   0  0  0  0  0  0  0  0  0  0  0  0
  -11.1084  -27.5835   30.1400 H   0  0  0  0  0  0  0  0  0  0  0  0
   -9.2450  -25.4408   33.3153 H   0  0  0  0  0  0  0  0  0  0  0  0
  -10.9481  -25.9329   33.4552 H   0  0  0  0  0  0  0  0  0  0  0  0
  -12.0214  -24.5166   34.3442 H   0  0  0  0  0  0  0  0  0  0  0  0
  -11.5308  -21.8934   33.9781 H   0  0  0  0  0  0  0  0  0  0  0  0
  -12.2222  -20.1497   33.7024 H   0  0  0  0  0  0  0  0  0  0  0  0
  -12.9693  -20.3171   35.2339 H   0  0  0  0  0  0  0  0  0  0  0  0
  -15.1283  -20.8967   34.3402 H   0  0  0  0  0  0  0  0  0  0  0  0
  -14.6817  -19.6121   33.3689 H   0  0  0  0  0  0  0  0  0  0  0  0
  -15.4560  -22.2140   32.4398 H   0  0  0  0  0  0  0  0  0  0  0  0
  -14.7189  -21.1096   31.4049 H   0  0  0  0  0  0  0  0  0  0  0  0
  -12.3163  -24.3842   30.1472 H   0  0  0  0  0  0  0  0  0  0  0  0
  -11.5532  -22.0366   26.9129 H   0  0  0  0  0  0  0  0  0  0  0  0
  -11.4256  -20.6007   28.9354 H   0  0  0  0  0  0  0  0  0  0  0  0
  -14.5581  -22.7285   34.1344 H   0  0  0  0  0  0  0  0  0  0  0  0
  -13.6471  -23.8545   33.6460 H   0  0  0  0  0  0  0  0  0  0  0  0
  1  2  1  0
  2  3  1  0
  3  4  1  0
  4  5  2  0
  4  6  1  0
  6  7  1  0
  7  8  1  0
  8  9  1  0
  9 10  1  0
 10 11  1  0
 11 12  1  0
 12 13  2  0
 12 14  1  0
 14 15  2  0
 15 16  1  0
 16 17  2  0
 17 18  1  0
 11 19  1  0
 19  7  1  0
 18 14  1  0
  1 20  1  0
  1 21  1  0
  1 22  1  0
  3 23  1  0
  3 24  1  0
  6 25  1  0
  7 26  1  0
  8 27  1  0
  8 28  1  0
  9 29  1  0
  9 30  1  0
 10 31  1  0
 10 32  1  0
 15 33  1  0
 17 34  1  0
 18 35  1  0
 19 36  1  0
 19 37  1  0
M  END
>  <Energy>  (283) 
257.1332794477874

>  <compound_id>  (283) 
18290

>  <target_id>  (283) 
1

>  <reference_id>  (283) 
46

>  <inspiration_ids>  (283) 
[46, 64]

>  <energy_score>  (283) 
228.25018778937985

>  <distance_score>  (283) 
3.8489572916940027

>  <path>  (283) 
/opt/xchem-fragalysis-2/maxwin/BulkDock/SCRATCH/511013/C18290-P46/C18290-P46.minimised.mol

>  <scratch_subdir>  (283) 
/opt/xchem-fragalysis-2/maxwin/BulkDock/SCRATCH/511013/C18290-P46

>  <fragmenstein_runtime>  (283) 
4.894216299057007

>  <fragmenstein_outcome>  (283) 
too moved

>  <fragmenstein_mode>  (283) 
expansion

>  <fragmenstein_error>  (283) 


$$$$
C18290-P64
     RDKit          3D

 37 38  0  0  0  0  0  0  0  0999 V2000
   -9.7913  -24.4042   32.0404 C   0  0  0  0  0  0  0  0  0  0  0  0
  -10.6769  -25.6630   32.9031 S   0  0  0  0  0  0  0  0  0  0  0  0
  -11.6858  -24.9479   34.2011 C   0  0  0  0  0  0  0  0  0  0  0  0
  -12.1534  -23.5570   33.9094 C   0  0  0  0  0  0  0  0  0  0  0  0
  -11.2746  -22.9201   33.4281 O   0  0  0  0  0  0  0  0  0  0  0  0
  -13.5125  -23.2332   34.1344 N   0  0  0  0  0  0  0  0  0  0  0  0
  -14.2732  -22.0800   33.7646 C   0  0  0  0  0  0  0  0  0  0  0  0
  -15.1837  -20.9889   34.2306 C   0  0  0  0  0  0  0  0  0  0  0  0
  -15.5872  -20.2446   32.9382 C   0  0  0  0  0  0  0  0  0  0  0  0
  -15.3392  -20.9901   31.5154 C   0  0  0  0  0  0  0  0  0  0  0  0
  -14.4465  -22.3774   31.4461 N   0  0  0  0  0  0  0  0  0  0  0  0
  -13.0220  -22.0761   31.1641 C   0  0  0  0  0  0  0  0  0  0  0  0
  -12.1228  -21.8631   31.9070 O   0  0  0  0  0  0  0  0  0  0  0  0
  -12.5269  -22.1478   29.8034 C   0  0  0  0  0  0  0  0  0  0  0  0
  -11.4107  -21.5525   29.2801 C   0  0  0  0  0  0  0  0  0  0  0  0
  -10.9652  -22.1455   28.1351 N   0  0  0  0  0  0  0  0  0  0  0  0
  -11.6660  -23.2349   28.0234 C   0  0  0  0  0  0  0  0  0  0  0  0
  -12.5185  -23.3299   29.0705 N   0  0  0  0  0  0  0  0  0  0  0  0
  -15.1193  -22.6040   32.6776 C   0  0  0  0  0  0  0  0  0  0  0  0
   -9.2062  -23.7890   32.7196 H   0  0  0  0  0  0  0  0  0  0  0  0
   -9.0970  -24.9072   31.3634 H   0  0  0  0  0  0  0  0  0  0  0  0
  -10.4719  -23.8236   31.4217 H   0  0  0  0  0  0  0  0  0  0  0  0
  -11.0392  -24.9495   35.0650 H   0  0  0  0  0  0  0  0  0  0  0  0
  -12.4963  -25.6393   34.4103 H   0  0  0  0  0  0  0  0  0  0  0  0
  -13.9916  -24.0538   34.4920 H   0  0  0  0  0  0  0  0  0  0  0  0
  -13.4566  -21.4230   33.4638 H   0  0  0  0  0  0  0  0  0  0  0  0
  -16.0651  -21.3517   34.7705 H   0  0  0  0  0  0  0  0  0  0  0  0
  -14.6636  -20.2168   34.8017 H   0  0  0  0  0  0  0  0  0  0  0  0
  -16.6430  -19.9479   33.0038 H   0  0  0  0  0  0  0  0  0  0  0  0
  -15.0522  -19.3153   32.9600 H   0  0  0  0  0  0  0  0  0  0  0  0
  -16.3878  -21.1114   31.2547 H   0  0  0  0  0  0  0  0  0  0  0  0
  -15.0066  -20.2773   30.8011 H   0  0  0  0  0  0  0  0  0  0  0  0
  -10.8435  -20.7880   29.7690 H   0  0  0  0  0  0  0  0  0  0  0  0
  -11.5421  -24.0055   27.2758 H   0  0  0  0  0  0  0  0  0  0  0  0
  -12.7895  -24.2191   29.4458 H   0  0  0  0  0  0  0  0  0  0  0  0
  -15.1492  -23.7021   32.7491 H   0  0  0  0  0  0  0  0  0  0  0  0
  -16.2216  -22.4990   32.7397 H   0  0  0  0  0  0  0  0  0  0  0  0
  1  2  1  0
  2  3  1  0
  3  4  1  0
  4  5  2  0
  4  6  1  0
  6  7  1  0
  7  8  1  0
  8  9  1  0
  9 10  1  0
 10 11  1  0
 11 12  1  0
 12 13  2  0
 12 14  1  0
 14 15  2  0
 15 16  1  0
 16 17  2  0
 17 18  1  0
 11 19  1  0
 19  7  1  0
 18 14  1  0
  1 20  1  0
  1 21  1  0
  1 22  1  0
  3 23  1  0
  3 24  1  0
  6 25  1  0
  7 26  1  0
  8 27  1  0
  8 28  1  0
  9 29  1  0
  9 30  1  0
 10 31  1  0
 10 32  1  0
 15 33  1  0
 17 34  1  0
 18 35  1  0
 19 36  1  0
 19 37  1  0
M  END
>  <Energy>  (284) 
228.37899424787946

>  <compound_id>  (284) 
18290

>  <target_id>  (284) 
1

>  <reference_id>  (284) 
64

>  <inspiration_ids>  (284) 
[46, 64]

>  <energy_score>  (284) 
199.49590258947842

>  <distance_score>  (284) 
4.401660151421861

>  <path>  (284) 
/opt/xchem-fragalysis-2/maxwin/BulkDock/SCRATCH/511013/C18290-P64/C18290-P64.minimised.mol

>  <scratch_subdir>  (284) 
/opt/xchem-fragalysis-2/maxwin/BulkDock/SCRATCH/511013/C18290-P64

>  <fragmenstein_runtime>  (284) 
5.261261940002441

>  <fragmenstein_outcome>  (284) 
too moved

>  <fragmenstein_mode>  (284) 
expansion

>  <fragmenstein_error>  (284) 


$$$$
C6535-P94
     RDKit          3D

 38 40  0  0  0  0  0  0  0  0999 V2000
   -3.5176  -12.4921   29.3587 C   0  0  0  0  0  0  0  0  0  0  0  0
   -4.8868  -12.7647   29.9360 C   0  0  0  0  0  0  0  0  0  0  0  0
   -6.0773  -14.3303   29.4948 C   0  0  0  0  0  0  0  0  0  0  0  0
   -6.2101  -16.2207   28.9737 N   0  0  0  0  0  0  0  0  0  0  0  0
   -7.5465  -17.1885   27.9470 C   0  0  0  0  0  0  0  0  0  0  0  0
   -8.4124  -16.5354   27.4507 O   0  0  0  0  0  0  0  0  0  0  0  0
   -7.9456  -19.1859   27.6338 C   0  0  0  0  0  0  0  0  0  0  0  0
   -7.1392  -20.6490   27.2781 C   0  0  0  0  0  0  0  0  0  0  0  0
   -7.5083  -22.1893   27.4965 C   0  0  0  0  0  0  0  0  0  0  0  0
   -8.9253  -22.6416   28.0619 C   0  0  0  0  0  0  0  0  0  0  0  0
   -9.8007  -23.7085   28.1463 N   0  0  0  0  0  0  0  0  0  0  0  0
  -11.0618  -23.2040   28.4286 C   0  0  0  0  0  0  0  0  0  0  0  0
  -11.1445  -21.8854   28.4333 N   0  0  0  0  0  0  0  0  0  0  0  0
   -9.8956  -21.4267   28.0854 C   0  0  0  0  0  0  0  0  0  0  0  0
   -9.0291  -19.8579   27.7735 C   0  0  0  0  0  0  0  0  0  0  0  0
   -4.7555  -11.4984   31.1990 N   0  0  0  0  0  0  0  0  0  0  0  0
   -3.3895  -10.3309   31.5891 C   0  0  0  0  0  0  0  0  0  0  0  0
   -2.3098  -10.3330   31.0299 O   0  0  0  0  0  0  0  0  0  0  0  0
   -3.4325   -9.1734   32.6313 C   0  0  0  0  0  0  0  0  0  0  0  0
   -2.3849   -8.2111   32.5373 C   0  0  0  0  0  0  0  0  0  0  0  0
   -2.0177   -7.6389   33.7859 C   0  0  0  0  0  0  0  0  0  0  0  0
   -2.7970   -7.9600   34.8083 N   0  0  0  0  0  0  0  0  0  0  0  0
   -3.9540   -9.0263   34.2870 S   0  0  0  0  0  0  0  0  0  0  0  0
   -2.9207  -13.3593   29.5213 H   0  0  0  0  0  0  0  0  0  0  0  0
   -3.5611  -12.1758   28.3164 H   0  0  0  0  0  0  0  0  0  0  0  0
   -2.9165  -11.7321   29.7796 H   0  0  0  0  0  0  0  0  0  0  0  0
   -5.4060  -12.1303   29.2354 H   0  0  0  0  0  0  0  0  0  0  0  0
   -6.4142  -14.3734   30.5315 H   0  0  0  0  0  0  0  0  0  0  0  0
   -6.8252  -13.9269   28.7970 H   0  0  0  0  0  0  0  0  0  0  0  0
   -5.5885  -16.8937   29.4066 H   0  0  0  0  0  0  0  0  0  0  0  0
   -6.1422  -20.5303   26.7996 H   0  0  0  0  0  0  0  0  0  0  0  0
   -6.7657  -22.8881   27.1385 H   0  0  0  0  0  0  0  0  0  0  0  0
   -9.5837  -24.6900   28.0605 H   0  0  0  0  0  0  0  0  0  0  0  0
  -11.8905  -23.8720   28.6213 H   0  0  0  0  0  0  0  0  0  0  0  0
   -9.3947  -18.7898   27.7922 H   0  0  0  0  0  0  0  0  0  0  0  0
   -5.5713  -11.2460   31.7340 H   0  0  0  0  0  0  0  0  0  0  0  0
   -1.7718   -8.0649   31.6572 H   0  0  0  0  0  0  0  0  0  0  0  0
   -1.1784   -6.9768   33.9678 H   0  0  0  0  0  0  0  0  0  0  0  0
  1  2  1  0
  2  3  1  0
  3  4  1  0
  4  5  1  0
  5  6  2  0
  5  7  1  0
  7  8  2  0
  8  9  1  0
  9 10  2  0
 10 11  1  0
 11 12  1  0
 12 13  2  0
 13 14  1  0
 14 15  2  0
  2 16  1  0
 16 17  1  0
 17 18  2  0
 17 19  1  0
 19 20  2  0
 20 21  1  0
 21 22  2  0
 22 23  1  0
 15  7  1  0
 23 19  1  0
 14 10  1  0
  1 24  1  0
  1 25  1  0
  1 26  1  0
  2 27  1  0
  3 28  1  0
  3 29  1  0
  4 30  1  0
  8 31  1  0
  9 32  1  0
 11 33  1  0
 12 34  1  0
 15 35  1  0
 16 36  1  0
 20 37  1  0
 21 38  1  0
M  END
>  <Energy>  (285) 
728.20524721993149

>  <compound_id>  (285) 
6535

>  <target_id>  (285) 
1

>  <reference_id>  (285) 
94

>  <inspiration_ids>  (285) 
[94, 187]

>  <energy_score>  (285) 
700.0068914143808

>  <distance_score>  (285) 
7.551039811259041

>  <path>  (285) 
/opt/xchem-fragalysis-2/maxwin/BulkDock/SCRATCH/511013/C6535-P94/C6535-P94.minimised.mol

>  <scratch_subdir>  (285) 
/opt/xchem-fragalysis-2/maxwin/BulkDock/SCRATCH/511013/C6535-P94

>  <fragmenstein_runtime>  (285) 
34.32501721382141

>  <fragmenstein_outcome>  (285) 
too moved

>  <fragmenstein_mode>  (285) 
expansion

>  <fragmenstein_error>  (285) 


$$$$
C6535-P187
     RDKit          3D

 38 40  0  0  0  0  0  0  0  0999 V2000
   -6.0053  -11.4959   32.8856 C   0  0  0  0  0  0  0  0  0  0  0  0
   -6.6970  -12.9062   32.2237 C   0  0  0  0  0  0  0  0  0  0  0  0
   -6.0398  -13.9238   30.4391 C   0  0  0  0  0  0  0  0  0  0  0  0
   -6.6094  -15.5805   29.6947 N   0  0  0  0  0  0  0  0  0  0  0  0
   -8.0705  -16.0161   28.3525 C   0  0  0  0  0  0  0  0  0  0  0  0
   -8.5810  -15.0470   27.8102 O   0  0  0  0  0  0  0  0  0  0  0  0
   -9.1831  -17.7356   27.8805 C   0  0  0  0  0  0  0  0  0  0  0  0
   -8.9156  -18.9302   27.8581 C   0  0  0  0  0  0  0  0  0  0  0  0
   -9.7958  -20.6150   27.4351 C   0  0  0  0  0  0  0  0  0  0  0  0
  -10.8939  -21.4611   28.1145 C   0  0  0  0  0  0  0  0  0  0  0  0
  -11.6126  -22.5826   28.2070 N   0  0  0  0  0  0  0  0  0  0  0  0
  -12.4401  -22.3736   29.2823 C   0  0  0  0  0  0  0  0  0  0  0  0
  -12.3014  -21.1601   29.7930 N   0  0  0  0  0  0  0  0  0  0  0  0
  -11.2430  -20.5292   29.1426 C   0  0  0  0  0  0  0  0  0  0  0  0
  -10.7496  -18.6687   28.7925 C   0  0  0  0  0  0  0  0  0  0  0  0
   -8.1740  -12.3878   33.3591 N   0  0  0  0  0  0  0  0  0  0  0  0
   -8.2001  -11.5854   35.0548 C   0  0  0  0  0  0  0  0  0  0  0  0
   -7.2349  -11.3297   35.7729 O   0  0  0  0  0  0  0  0  0  0  0  0
   -9.5454  -11.0010   35.7485 C   0  0  0  0  0  0  0  0  0  0  0  0
   -9.7637  -11.0976   37.1201 C   0  0  0  0  0  0  0  0  0  0  0  0
  -10.4815   -9.9813   37.6377 C   0  0  0  0  0  0  0  0  0  0  0  0
  -10.8760   -9.0407   36.7947 N   0  0  0  0  0  0  0  0  0  0  0  0
  -10.3351   -9.4250   35.2919 S   0  0  0  0  0  0  0  0  0  0  0  0
   -5.6193  -10.7545   32.2292 H   0  0  0  0  0  0  0  0  0  0  0  0
   -6.5526  -11.1088   33.6647 H   0  0  0  0  0  0  0  0  0  0  0  0
   -5.1972  -11.5633   33.5810 H   0  0  0  0  0  0  0  0  0  0  0  0
   -6.2190  -13.5323   32.9297 H   0  0  0  0  0  0  0  0  0  0  0  0
   -5.3541  -13.3336   29.8870 H   0  0  0  0  0  0  0  0  0  0  0  0
   -6.9207  -13.7167   29.9007 H   0  0  0  0  0  0  0  0  0  0  0  0
   -6.1954  -16.4572   30.0186 H   0  0  0  0  0  0  0  0  0  0  0  0
   -8.2420  -18.6467   28.7021 H   0  0  0  0  0  0  0  0  0  0  0  0
   -8.6810  -21.1980   27.2346 H   0  0  0  0  0  0  0  0  0  0  0  0
  -11.5734  -23.4041   27.6192 H   0  0  0  0  0  0  0  0  0  0  0  0
  -13.1413  -23.1246   29.6248 H   0  0  0  0  0  0  0  0  0  0  0  0
  -11.7841  -18.0964   28.7880 H   0  0  0  0  0  0  0  0  0  0  0  0
   -9.0974  -12.3966   32.9730 H   0  0  0  0  0  0  0  0  0  0  0  0
   -9.2918  -11.8543   37.7330 H   0  0  0  0  0  0  0  0  0  0  0  0
  -10.7186   -9.8277   38.6829 H   0  0  0  0  0  0  0  0  0  0  0  0
  1  2  1  0
  2  3  1  0
  3  4  1  0
  4  5  1  0
  5  6  2  0
  5  7  1  0
  7  8  2  0
  8  9  1  0
  9 10  2  0
 10 11  1  0
 11 12  1  0
 12 13  2  0
 13 14  1  0
 14 15  2  0
  2 16  1  0
 16 17  1  0
 17 18  2  0
 17 19  1  0
 19 20  2  0
 20 21  1  0
 21 22  2  0
 22 23  1  0
 15  7  1  0
 23 19  1  0
 14 10  1  0
  1 24  1  0
  1 25  1  0
  1 26  1  0
  2 27  1  0
  3 28  1  0
  3 29  1  0
  4 30  1  0
  8 31  1  0
  9 32  1  0
 11 33  1  0
 12 34  1  0
 15 35  1  0
 16 36  1  0
 20 37  1  0
 21 38  1  0
M  END
>  <Energy>  (286) 
1188.1363025101812

>  <compound_id>  (286) 
6535

>  <target_id>  (286) 
1

>  <reference_id>  (286) 
187

>  <inspiration_ids>  (286) 
[94, 187]

>  <energy_score>  (286) 
1159.9379467046429

>  <distance_score>  (286) 
10.314333030586317

>  <path>  (286) 
/opt/xchem-fragalysis-2/maxwin/BulkDock/SCRATCH/511013/C6535-P187/C6535-P187.minimised.mol

>  <scratch_subdir>  (286) 
/opt/xchem-fragalysis-2/maxwin/BulkDock/SCRATCH/511013/C6535-P187

>  <fragmenstein_runtime>  (286) 
34.521761417388916

>  <fragmenstein_outcome>  (286) 
too moved

>  <fragmenstein_mode>  (286) 
expansion

>  <fragmenstein_error>  (286) 


$$$$
C6548-P94
     RDKit          3D

 37 39  0  0  0  0  0  0  0  0999 V2000
   -3.3585   -8.0234   36.6867 C   0  0  0  0  0  0  0  0  0  0  0  0
   -4.5142   -9.0094   36.6690 C   0  0  0  0  0  0  0  0  0  0  0  0
   -4.5413   -9.8065   35.4566 O   0  0  0  0  0  0  0  0  0  0  0  0
   -5.2897   -9.3156   34.4118 C   0  0  0  0  0  0  0  0  0  0  0  0
   -5.8513   -8.2230   34.5204 O   0  0  0  0  0  0  0  0  0  0  0  0
   -5.4400  -10.4777   32.8903 C   0  0  0  0  0  0  0  0  0  0  0  0
   -6.6587  -11.8836   32.0953 N   0  0  0  0  0  0  0  0  0  0  0  0
   -7.4227  -13.5487   32.8289 C   0  0  0  0  0  0  0  0  0  0  0  0
   -7.0213  -13.7739   33.8772 O   0  0  0  0  0  0  0  0  0  0  0  0
   -8.3785  -14.8692   32.3545 C   0  0  0  0  0  0  0  0  0  0  0  0
   -9.5905  -15.5192   33.0300 C   0  0  0  0  0  0  0  0  0  0  0  0
   -9.7215  -16.6210   34.0499 C   0  0  0  0  0  0  0  0  0  0  0  0
   -8.6408  -17.4104   34.3135 C   0  0  0  0  0  0  0  0  0  0  0  0
   -8.1974  -18.6607   33.8743 N   0  0  0  0  0  0  0  0  0  0  0  0
   -7.0219  -18.8809   34.5125 C   0  0  0  0  0  0  0  0  0  0  0  0
   -6.5288  -17.6965   34.7508 N   0  0  0  0  0  0  0  0  0  0  0  0
   -7.4155  -16.8946   34.1232 C   0  0  0  0  0  0  0  0  0  0  0  0
   -7.3613  -15.9244   33.1108 C   0  0  0  0  0  0  0  0  0  0  0  0
   -3.9472   -9.4923   32.5344 C   0  0  0  0  0  0  0  0  0  0  0  0
   -3.4733   -8.5131   31.7219 C   0  0  0  0  0  0  0  0  0  0  0  0
   -2.2312   -7.8407   31.9154 C   0  0  0  0  0  0  0  0  0  0  0  0
   -1.6016   -8.1433   33.0153 N   0  0  0  0  0  0  0  0  0  0  0  0
   -2.4442   -9.2833   33.8033 S   0  0  0  0  0  0  0  0  0  0  0  0
   -3.3436   -7.3881   35.8028 H   0  0  0  0  0  0  0  0  0  0  0  0
   -3.4121   -7.3896   37.5767 H   0  0  0  0  0  0  0  0  0  0  0  0
   -2.4105   -8.5590   36.7209 H   0  0  0  0  0  0  0  0  0  0  0  0
   -5.4724   -8.5011   36.8243 H   0  0  0  0  0  0  0  0  0  0  0  0
   -4.3900   -9.7026   37.5075 H   0  0  0  0  0  0  0  0  0  0  0  0
   -6.3066  -10.1872   33.3647 H   0  0  0  0  0  0  0  0  0  0  0  0
   -7.0715  -11.7043   31.2994 H   0  0  0  0  0  0  0  0  0  0  0  0
  -10.5622  -15.0523   33.0782 H   0  0  0  0  0  0  0  0  0  0  0  0
  -10.6786  -16.8093   34.5288 H   0  0  0  0  0  0  0  0  0  0  0  0
   -8.7006  -19.3435   33.3246 H   0  0  0  0  0  0  0  0  0  0  0  0
   -6.5698  -19.8491   34.6758 H   0  0  0  0  0  0  0  0  0  0  0  0
   -6.3203  -16.0353   32.7868 H   0  0  0  0  0  0  0  0  0  0  0  0
   -4.0916   -8.3229   30.9204 H   0  0  0  0  0  0  0  0  0  0  0  0
   -1.7791   -7.0912   31.2773 H   0  0  0  0  0  0  0  0  0  0  0  0
  1  2  1  0
  2  3  1  0
  3  4  1  0
  4  5  2  0
  4  6  1  0
  6  7  1  0
  7  8  1  0
  8  9  2  0
  8 10  1  0
 10 11  2  0
 11 12  1  0
 12 13  2  0
 13 14  1  0
 14 15  1  0
 15 16  2  0
 16 17  1  0
 17 18  2  0
  6 19  1  0
 19 20  2  0
 20 21  1  0
 21 22  2  0
 22 23  1  0
 18 10  1  0
 23 19  1  0
 17 13  1  0
  1 24  1  0
  1 25  1  0
  1 26  1  0
  2 27  1  0
  2 28  1  0
  6 29  1  0
  7 30  1  0
 11 31  1  0
 12 32  1  0
 14 33  1  0
 15 34  1  0
 18 35  1  0
 20 36  1  0
 21 37  1  0
M  END
>  <Energy>  (287) 
672.34346437634451

>  <compound_id>  (287) 
6548

>  <target_id>  (287) 
1

>  <reference_id>  (287) 
94

>  <inspiration_ids>  (287) 
[94, 187]

>  <energy_score>  (287) 
611.3110605919014

>  <distance_score>  (287) 
8.820666642785213

>  <path>  (287) 
/opt/xchem-fragalysis-2/maxwin/BulkDock/SCRATCH/511013/C6548-P94/C6548-P94.minimised.mol

>  <scratch_subdir>  (287) 
/opt/xchem-fragalysis-2/maxwin/BulkDock/SCRATCH/511013/C6548-P94

>  <fragmenstein_runtime>  (287) 
25.005732774734497

>  <fragmenstein_outcome>  (287) 
too moved

>  <fragmenstein_mode>  (287) 
expansion

>  <fragmenstein_error>  (287) 


$$$$
C6548-P187
     RDKit          3D

 37 39  0  0  0  0  0  0  0  0999 V2000
   -1.2464   -7.7321   29.2336 C   0  0  0  0  0  0  0  0  0  0  0  0
   -0.8391   -9.2408   28.7149 C   0  0  0  0  0  0  0  0  0  0  0  0
   -1.8524  -10.7842   29.0452 O   0  0  0  0  0  0  0  0  0  0  0  0
   -2.6512  -12.1264   28.7988 C   0  0  0  0  0  0  0  0  0  0  0  0
   -3.1747  -12.3181   27.7130 O   0  0  0  0  0  0  0  0  0  0  0  0
   -2.5446  -13.3076   30.2498 C   0  0  0  0  0  0  0  0  0  0  0  0
   -3.5039  -14.9802   31.0127 N   0  0  0  0  0  0  0  0  0  0  0  0
   -5.3964  -15.4449   31.2108 C   0  0  0  0  0  0  0  0  0  0  0  0
   -6.1611  -14.6311   30.7831 O   0  0  0  0  0  0  0  0  0  0  0  0
   -6.4679  -16.9652   32.1492 C   0  0  0  0  0  0  0  0  0  0  0  0
   -8.1523  -16.9223   32.6976 C   0  0  0  0  0  0  0  0  0  0  0  0
   -9.5938  -17.1954   33.4720 C   0  0  0  0  0  0  0  0  0  0  0  0
   -9.5411  -18.4606   34.0041 C   0  0  0  0  0  0  0  0  0  0  0  0
  -10.4755  -19.2562   34.5821 N   0  0  0  0  0  0  0  0  0  0  0  0
  -10.1121  -20.5114   34.2467 C   0  0  0  0  0  0  0  0  0  0  0  0
   -8.8866  -20.5298   33.7220 N   0  0  0  0  0  0  0  0  0  0  0  0
   -8.4612  -19.2665   33.4974 C   0  0  0  0  0  0  0  0  0  0  0  0
   -7.2302  -18.5425   32.4806 C   0  0  0  0  0  0  0  0  0  0  0  0
   -1.2481  -11.8689   30.8612 C   0  0  0  0  0  0  0  0  0  0  0  0
   -0.5104  -10.6313   30.5346 C   0  0  0  0  0  0  0  0  0  0  0  0
   -0.1696   -9.0990   31.1968 C   0  0  0  0  0  0  0  0  0  0  0  0
   -0.8582   -9.0088   32.2705 N   0  0  0  0  0  0  0  0  0  0  0  0
   -1.9712   -9.7129   31.3529 S   0  0  0  0  0  0  0  0  0  0  0  0
   -0.3562   -7.1159   29.4071 H   0  0  0  0  0  0  0  0  0  0  0  0
   -1.7612   -7.5665   30.1793 H   0  0  0  0  0  0  0  0  0  0  0  0
   -1.9130   -7.2684   28.5096 H   0  0  0  0  0  0  0  0  0  0  0  0
   -0.6754   -9.3304   27.7092 H   0  0  0  0  0  0  0  0  0  0  0  0
    0.2425   -9.3298   28.9015 H   0  0  0  0  0  0  0  0  0  0  0  0
   -1.7113  -13.9453   29.8971 H   0  0  0  0  0  0  0  0  0  0  0  0
   -2.9537  -15.6890   31.4781 H   0  0  0  0  0  0  0  0  0  0  0  0
   -7.9744  -17.3687   33.6376 H   0  0  0  0  0  0  0  0  0  0  0  0
  -10.3726  -16.4492   33.5025 H   0  0  0  0  0  0  0  0  0  0  0  0
  -11.3947  -18.9624   34.8756 H   0  0  0  0  0  0  0  0  0  0  0  0
  -10.7365  -21.3831   34.4027 H   0  0  0  0  0  0  0  0  0  0  0  0
   -7.5864  -19.0433   31.5662 H   0  0  0  0  0  0  0  0  0  0  0  0
    0.0869  -10.6947   29.6894 H   0  0  0  0  0  0  0  0  0  0  0  0
    0.5707   -8.3777   30.8639 H   0  0  0  0  0  0  0  0  0  0  0  0
  1  2  1  0
  2  3  1  0
  3  4  1  0
  4  5  2  0
  4  6  1  0
  6  7  1  0
  7  8  1  0
  8  9  2  0
  8 10  1  0
 10 11  2  0
 11 12  1  0
 12 13  2  0
 13 14  1  0
 14 15  1  0
 15 16  2  0
 16 17  1  0
 17 18  2  0
  6 19  1  0
 19 20  2  0
 20 21  1  0
 21 22  2  0
 22 23  1  0
 18 10  1  0
 23 19  1  0
 17 13  1  0
  1 24  1  0
  1 25  1  0
  1 26  1  0
  2 27  1  0
  2 28  1  0
  6 29  1  0
  7 30  1  0
 11 31  1  0
 12 32  1  0
 14 33  1  0
 15 34  1  0
 18 35  1  0
 20 36  1  0
 21 37  1  0
M  END
>  <Energy>  (288) 
1389.2993164794279

>  <compound_id>  (288) 
6548

>  <target_id>  (288) 
1

>  <reference_id>  (288) 
187

>  <inspiration_ids>  (288) 
[94, 187]

>  <energy_score>  (288) 
1328.2669126949945

>  <distance_score>  (288) 
8.298416472942126

>  <path>  (288) 
/opt/xchem-fragalysis-2/maxwin/BulkDock/SCRATCH/511013/C6548-P187/C6548-P187.minimised.mol

>  <scratch_subdir>  (288) 
/opt/xchem-fragalysis-2/maxwin/BulkDock/SCRATCH/511013/C6548-P187

>  <fragmenstein_runtime>  (288) 
19.23293375968933

>  <fragmenstein_outcome>  (288) 
too moved

>  <fragmenstein_mode>  (288) 
expansion

>  <fragmenstein_error>  (288) 


$$$$
C6550-P94
     RDKit          3D

 34 36  0  0  0  0  0  0  0  0999 V2000
   -3.0645  -10.4346   31.2916 O   0  0  0  0  0  0  0  0  0  0  0  0
   -3.9136  -10.0197   32.0641 C   0  0  0  0  0  0  0  0  0  0  0  0
   -3.6511   -8.8111   32.8402 C   0  0  0  0  0  0  0  0  0  0  0  0
   -2.3297   -8.0423   32.7208 C   0  0  0  0  0  0  0  0  0  0  0  0
   -1.6823   -7.3051   33.7084 C   0  0  0  0  0  0  0  0  0  0  0  0
   -0.8037   -6.3329   33.1341 C   0  0  0  0  0  0  0  0  0  0  0  0
   -0.7150   -6.3267   31.8106 N   0  0  0  0  0  0  0  0  0  0  0  0
   -1.5268   -7.6513   31.2564 S   0  0  0  0  0  0  0  0  0  0  0  0
   -5.4338  -10.6175   32.4277 N   0  0  0  0  0  0  0  0  0  0  0  0
   -6.3270  -12.2259   31.8614 C   0  0  0  0  0  0  0  0  0  0  0  0
   -7.4502  -13.7164   32.8128 C   0  0  0  0  0  0  0  0  0  0  0  0
   -6.9134  -15.2118   33.9381 N   0  0  0  0  0  0  0  0  0  0  0  0
   -5.5203  -15.5004   34.4807 C   0  0  0  0  0  0  0  0  0  0  0  0
   -5.2431  -16.6599   34.9522 N   0  0  0  0  0  0  0  0  0  0  0  0
   -6.2883  -17.3424   34.5557 C   0  0  0  0  0  0  0  0  0  0  0  0
   -6.2491  -18.7212   34.6015 C   0  0  0  0  0  0  0  0  0  0  0  0
   -7.3340  -19.2975   34.0751 C   0  0  0  0  0  0  0  0  0  0  0  0
   -8.4518  -18.4922   33.7818 C   0  0  0  0  0  0  0  0  0  0  0  0
   -8.5836  -17.1110   33.9653 C   0  0  0  0  0  0  0  0  0  0  0  0
   -7.3693  -16.5294   34.1015 C   0  0  0  0  0  0  0  0  0  0  0  0
   -3.9282   -8.9474   33.8909 H   0  0  0  0  0  0  0  0  0  0  0  0
   -4.4126   -8.2618   32.2971 H   0  0  0  0  0  0  0  0  0  0  0  0
   -1.9212   -7.3473   34.7613 H   0  0  0  0  0  0  0  0  0  0  0  0
   -0.2345   -5.5887   33.6762 H   0  0  0  0  0  0  0  0  0  0  0  0
   -5.8434  -10.0752   33.1779 H   0  0  0  0  0  0  0  0  0  0  0  0
   -5.6470  -12.5954   31.0748 H   0  0  0  0  0  0  0  0  0  0  0  0
   -7.2120  -11.6872   31.7136 H   0  0  0  0  0  0  0  0  0  0  0  0
   -7.8060  -14.4532   32.0671 H   0  0  0  0  0  0  0  0  0  0  0  0
   -8.2525  -13.1037   33.2207 H   0  0  0  0  0  0  0  0  0  0  0  0
   -4.7341  -14.7582   34.5695 H   0  0  0  0  0  0  0  0  0  0  0  0
   -5.3707  -19.2694   34.9088 H   0  0  0  0  0  0  0  0  0  0  0  0
   -7.3370  -20.3697   33.9106 H   0  0  0  0  0  0  0  0  0  0  0  0
   -9.3274  -19.0282   33.3937 H   0  0  0  0  0  0  0  0  0  0  0  0
   -9.4838  -16.5553   33.7583 H   0  0  0  0  0  0  0  0  0  0  0  0
  1  2  2  0
  2  3  1  0
  3  4  1  0
  4  5  2  0
  5  6  1  0
  6  7  2  0
  7  8  1  0
  2  9  1  0
  9 10  1  0
 10 11  1  0
 11 12  1  0
 12 13  1  0
 13 14  2  0
 14 15  1  0
 15 16  2  0
 16 17  1  0
 17 18  2  0
 18 19  1  0
 19 20  2  0
  8  4  1  0
 20 12  1  0
 20 15  1  0
  3 21  1  0
  3 22  1  0
  5 23  1  0
  6 24  1  0
  9 25  1  0
 10 26  1  0
 10 27  1  0
 11 28  1  0
 11 29  1  0
 13 30  1  0
 16 31  1  0
 17 32  1  0
 18 33  1  0
 19 34  1  0
M  END
>  <Energy>  (289) 
345.33183664976195

>  <compound_id>  (289) 
6550

>  <target_id>  (289) 
1

>  <reference_id>  (289) 
94

>  <inspiration_ids>  (289) 
[94, 187]

>  <energy_score>  (289) 
298.34814070055825

>  <distance_score>  (289) 
8.723567418158028

>  <path>  (289) 
/opt/xchem-fragalysis-2/maxwin/BulkDock/SCRATCH/511013/C6550-P94/C6550-P94.minimised.mol

>  <scratch_subdir>  (289) 
/opt/xchem-fragalysis-2/maxwin/BulkDock/SCRATCH/511013/C6550-P94

>  <fragmenstein_runtime>  (289) 
7.349626779556274

>  <fragmenstein_outcome>  (289) 
too moved

>  <fragmenstein_mode>  (289) 
expansion

>  <fragmenstein_error>  (289) 


$$$$
C6550-P187
     RDKit          3D

 34 36  0  0  0  0  0  0  0  0999 V2000
   -6.2999  -13.7030   31.9821 O   0  0  0  0  0  0  0  0  0  0  0  0
   -7.1893  -13.1817   32.6009 C   0  0  0  0  0  0  0  0  0  0  0  0
   -6.9360  -11.7607   33.3750 C   0  0  0  0  0  0  0  0  0  0  0  0
   -5.5459  -10.5722   34.1391 C   0  0  0  0  0  0  0  0  0  0  0  0
   -4.1793  -10.1061   35.0019 C   0  0  0  0  0  0  0  0  0  0  0  0
   -3.9055   -8.7472   35.1682 C   0  0  0  0  0  0  0  0  0  0  0  0
   -4.6506   -8.6409   36.2504 N   0  0  0  0  0  0  0  0  0  0  0  0
   -5.2189  -10.3239   36.2247 S   0  0  0  0  0  0  0  0  0  0  0  0
   -8.7864  -13.9296   32.8690 N   0  0  0  0  0  0  0  0  0  0  0  0
   -9.4101  -15.5746   32.4537 C   0  0  0  0  0  0  0  0  0  0  0  0
  -10.0405  -16.6721   33.8550 C   0  0  0  0  0  0  0  0  0  0  0  0
  -10.2699  -18.1085   34.1672 N   0  0  0  0  0  0  0  0  0  0  0  0
   -9.4064  -19.1474   34.0149 C   0  0  0  0  0  0  0  0  0  0  0  0
   -9.9430  -20.3039   34.3054 N   0  0  0  0  0  0  0  0  0  0  0  0
  -11.2123  -20.0542   34.6683 C   0  0  0  0  0  0  0  0  0  0  0  0
  -12.2306  -20.9708   34.9491 C   0  0  0  0  0  0  0  0  0  0  0  0
  -13.4826  -20.4787   35.3026 C   0  0  0  0  0  0  0  0  0  0  0  0
  -13.6919  -19.1023   35.4056 C   0  0  0  0  0  0  0  0  0  0  0  0
  -12.6720  -18.1731   35.1371 C   0  0  0  0  0  0  0  0  0  0  0  0
  -11.4290  -18.6805   34.7336 C   0  0  0  0  0  0  0  0  0  0  0  0
   -7.6197  -11.4506   32.6232 H   0  0  0  0  0  0  0  0  0  0  0  0
   -7.6760  -11.7950   34.1968 H   0  0  0  0  0  0  0  0  0  0  0  0
   -3.2791  -10.6676   35.2210 H   0  0  0  0  0  0  0  0  0  0  0  0
   -3.0080   -8.1459   35.1162 H   0  0  0  0  0  0  0  0  0  0  0  0
   -9.3911  -13.2631   33.3324 H   0  0  0  0  0  0  0  0  0  0  0  0
   -8.5516  -16.0580   31.9689 H   0  0  0  0  0  0  0  0  0  0  0  0
  -10.2009  -15.5754   31.7111 H   0  0  0  0  0  0  0  0  0  0  0  0
  -11.0161  -16.2075   34.0566 H   0  0  0  0  0  0  0  0  0  0  0  0
   -9.3835  -16.5689   34.7222 H   0  0  0  0  0  0  0  0  0  0  0  0
   -8.4219  -19.0667   33.5850 H   0  0  0  0  0  0  0  0  0  0  0  0
  -12.0331  -22.0329   34.8669 H   0  0  0  0  0  0  0  0  0  0  0  0
  -14.2901  -21.1750   35.5112 H   0  0  0  0  0  0  0  0  0  0  0  0
  -14.6750  -18.7387   35.6966 H   0  0  0  0  0  0  0  0  0  0  0  0
  -12.8702  -17.1092   35.1684 H   0  0  0  0  0  0  0  0  0  0  0  0
  1  2  2  0
  2  3  1  0
  3  4  1  0
  4  5  2  0
  5  6  1  0
  6  7  2  0
  7  8  1  0
  2  9  1  0
  9 10  1  0
 10 11  1  0
 11 12  1  0
 12 13  1  0
 13 14  2  0
 14 15  1  0
 15 16  2  0
 16 17  1  0
 17 18  2  0
 18 19  1  0
 19 20  2  0
  8  4  1  0
 20 12  1  0
 20 15  1  0
  3 21  1  0
  3 22  1  0
  5 23  1  0
  6 24  1  0
  9 25  1  0
 10 26  1  0
 10 27  1  0
 11 28  1  0
 11 29  1  0
 13 30  1  0
 16 31  1  0
 17 32  1  0
 18 33  1  0
 19 34  1  0
M  END
>  <Energy>  (290) 
475.58127128148061

>  <compound_id>  (290) 
6550

>  <target_id>  (290) 
1

>  <reference_id>  (290) 
187

>  <inspiration_ids>  (290) 
[94, 187]

>  <energy_score>  (290) 
428.59757533227116

>  <distance_score>  (290) 
9.421270369678767

>  <path>  (290) 
/opt/xchem-fragalysis-2/maxwin/BulkDock/SCRATCH/511013/C6550-P187/C6550-P187.minimised.mol

>  <scratch_subdir>  (290) 
/opt/xchem-fragalysis-2/maxwin/BulkDock/SCRATCH/511013/C6550-P187

>  <fragmenstein_runtime>  (290) 
10.243220567703247

>  <fragmenstein_outcome>  (290) 
too moved

>  <fragmenstein_mode>  (290) 
expansion

>  <fragmenstein_error>  (290) 


$$$$
C21253-P146
     RDKit          3D

 47 49  0  0  0  0  0  0  0  0999 V2000
    4.3045    5.3681   16.0612 C   0  0  0  0  0  0  0  0  0  0  0  0
    5.7058    5.1014   16.0176 O   0  0  0  0  0  0  0  0  0  0  0  0
    6.3035    5.0356   17.2309 C   0  0  0  0  0  0  0  0  0  0  0  0
    5.7743    5.2522   18.3074 O   0  0  0  0  0  0  0  0  0  0  0  0
    7.7149    4.6019   17.0664 C   0  0  0  0  0  0  0  0  0  0  0  0
    8.4109    4.9671   15.8917 C   0  0  0  0  0  0  0  0  0  0  0  0
    9.7162    4.5361   15.6505 C   0  0  0  0  0  0  0  0  0  0  0  0
   10.3377    3.7335   16.5823 C   0  0  0  0  0  0  0  0  0  0  0  0
    9.6362    3.3976   17.7404 C   0  0  0  0  0  0  0  0  0  0  0  0
    8.3517    3.8017   18.0301 C   0  0  0  0  0  0  0  0  0  0  0  0
    7.6570    3.1713   19.2663 C   0  0  0  0  0  0  0  0  0  0  0  0
    8.0869    2.1408   20.4268 N   0  0  0  0  0  0  0  0  0  0  0  0
    7.4332    0.7220   20.1842 C   0  0  0  0  0  0  0  0  0  0  0  0
    7.8837   -0.2220   19.5628 O   0  0  0  0  0  0  0  0  0  0  0  0
    5.6468    0.3881   21.1885 C   0  0  0  0  0  0  0  0  0  0  0  0
    5.4791   -1.1253   21.5617 F   0  0  0  0  0  0  0  0  0  0  0  0
    4.6209    0.9610   22.5496 C   0  0  0  0  0  0  0  0  0  0  0  0
    3.4020    2.3446   23.0143 C   0  0  0  0  0  0  0  0  0  0  0  0
    2.8685    2.4947   24.4646 C   0  0  0  0  0  0  0  0  0  0  0  0
    3.4518    1.7903   25.5928 N   0  0  0  0  0  0  0  0  0  0  0  0
    3.7554    0.3836   25.3715 C   0  0  0  0  0  0  0  0  0  0  0  0
    4.6390   -0.0780   24.1804 C   0  0  0  0  0  0  0  0  0  0  0  0
    9.4356    2.6619   20.0749 C   0  0  0  0  0  0  0  0  0  0  0  0
   10.1129    2.4334   18.7143 C   0  0  0  0  0  0  0  0  0  0  0  0
    3.9233    5.3507   15.0365 H   0  0  0  0  0  0  0  0  0  0  0  0
    3.7847    4.5960   16.6376 H   0  0  0  0  0  0  0  0  0  0  0  0
    4.1184    6.3595   16.4853 H   0  0  0  0  0  0  0  0  0  0  0  0
    7.9246    5.5893   15.1416 H   0  0  0  0  0  0  0  0  0  0  0  0
   10.2274    4.8175   14.7341 H   0  0  0  0  0  0  0  0  0  0  0  0
   11.3389    3.3535   16.3964 H   0  0  0  0  0  0  0  0  0  0  0  0
    7.0640    2.5254   18.6560 H   0  0  0  0  0  0  0  0  0  0  0  0
    7.1659    3.9794   19.8175 H   0  0  0  0  0  0  0  0  0  0  0  0
    6.1438    0.9313   21.8337 H   0  0  0  0  0  0  0  0  0  0  0  0
    3.9524    0.8614   21.6694 H   0  0  0  0  0  0  0  0  0  0  0  0
    2.5772    2.2885   22.3007 H   0  0  0  0  0  0  0  0  0  0  0  0
    3.7804    3.3595   22.7910 H   0  0  0  0  0  0  0  0  0  0  0  0
    1.7825    2.4031   24.4670 H   0  0  0  0  0  0  0  0  0  0  0  0
    2.9780    3.5612   24.7144 H   0  0  0  0  0  0  0  0  0  0  0  0
    4.2826    2.2784   25.9043 H   0  0  0  0  0  0  0  0  0  0  0  0
    4.2739    0.0470   26.2811 H   0  0  0  0  0  0  0  0  0  0  0  0
    2.8537   -0.2104   25.4096 H   0  0  0  0  0  0  0  0  0  0  0  0
    4.4382   -1.1408   23.9448 H   0  0  0  0  0  0  0  0  0  0  0  0
    5.6356   -0.1339   24.6238 H   0  0  0  0  0  0  0  0  0  0  0  0
   10.0546    2.1171   20.8021 H   0  0  0  0  0  0  0  0  0  0  0  0
    9.5385    3.7033   20.4324 H   0  0  0  0  0  0  0  0  0  0  0  0
   11.1849    2.5887   18.8333 H   0  0  0  0  0  0  0  0  0  0  0  0
    9.8346    1.4747   18.2639 H   0  0  0  0  0  0  0  0  0  0  0  0
  1  2  1  0
  2  3  1  0
  3  4  2  0
  3  5  1  0
  5  6  2  0
  6  7  1  0
  7  8  2  0
  8  9  1  0
  9 10  2  0
 10 11  1  0
 11 12  1  0
 12 13  1  0
 13 14  2  0
 13 15  1  0
 15 16  1  0
 15 17  1  0
 17 18  1  0
 18 19  1  0
 19 20  1  0
 20 21  1  0
 21 22  1  0
 12 23  1  0
 23 24  1  0
 10  5  1  0
 22 17  1  0
 24  9  1  0
  1 25  1  0
  1 26  1  0
  1 27  1  0
  6 28  1  0
  7 29  1  0
  8 30  1  0
 11 31  1  0
 11 32  1  0
 15 33  1  0
 17 34  1  0
 18 35  1  0
 18 36  1  0
 19 37  1  0
 19 38  1  0
 20 39  1  0
 21 40  1  0
 21 41  1  0
 22 42  1  0
 22 43  1  0
 23 44  1  0
 23 45  1  0
 24 46  1  0
 24 47  1  0
M  END
>  <Energy>  (291) 
468.26582850689022

>  <compound_id>  (291) 
21253

>  <target_id>  (291) 
1

>  <reference_id>  (291) 
146

>  <inspiration_ids>  (291) 
[146, 44]

>  <energy_score>  (291) 
376.67071501536134

>  <distance_score>  (291) 
7.975855888960657

>  <path>  (291) 
/opt/xchem-fragalysis-2/maxwin/BulkDock/SCRATCH/511013/C21253-P146/C21253-P146.minimised.mol

>  <scratch_subdir>  (291) 
/opt/xchem-fragalysis-2/maxwin/BulkDock/SCRATCH/511013/C21253-P146

>  <fragmenstein_runtime>  (291) 
15.059942960739136

>  <fragmenstein_outcome>  (291) 
too moved

>  <fragmenstein_mode>  (291) 
expansion

>  <fragmenstein_error>  (291) 


$$$$
C21253-P44
     RDKit          3D

 47 49  0  0  0  0  0  0  0  0999 V2000
   10.1775   -1.7069   15.2277 C   0  0  0  0  0  0  0  0  0  0  0  0
    9.9774   -0.6637   16.1902 O   0  0  0  0  0  0  0  0  0  0  0  0
    8.9007    0.1280   15.9443 C   0  0  0  0  0  0  0  0  0  0  0  0
    7.7815   -0.2561   15.6740 O   0  0  0  0  0  0  0  0  0  0  0  0
    9.3891    1.5195   15.9712 C   0  0  0  0  0  0  0  0  0  0  0  0
   10.3140    1.7414   14.9106 C   0  0  0  0  0  0  0  0  0  0  0  0
   10.8005    3.0028   14.6110 C   0  0  0  0  0  0  0  0  0  0  0  0
   10.3133    4.0759   15.3255 C   0  0  0  0  0  0  0  0  0  0  0  0
    9.4060    3.8515   16.3667 C   0  0  0  0  0  0  0  0  0  0  0  0
    8.9786    2.5821   16.7894 C   0  0  0  0  0  0  0  0  0  0  0  0
    7.9864    2.6479   18.0044 C   0  0  0  0  0  0  0  0  0  0  0  0
    8.0651    3.5360   19.3883 N   0  0  0  0  0  0  0  0  0  0  0  0
    6.6822    3.8677   19.8715 C   0  0  0  0  0  0  0  0  0  0  0  0
    5.9755    4.8300   19.6327 O   0  0  0  0  0  0  0  0  0  0  0  0
    6.1083    2.5052   21.2047 C   0  0  0  0  0  0  0  0  0  0  0  0
    5.0098    1.3219   21.2971 F   0  0  0  0  0  0  0  0  0  0  0  0
    5.1337    3.4198   22.7938 C   0  0  0  0  0  0  0  0  0  0  0  0
    5.6638    3.7783   24.2855 C   0  0  0  0  0  0  0  0  0  0  0  0
    4.4726    3.8215   25.2750 C   0  0  0  0  0  0  0  0  0  0  0  0
    3.2579    4.4116   24.7174 N   0  0  0  0  0  0  0  0  0  0  0  0
    3.5663    5.3613   23.6560 C   0  0  0  0  0  0  0  0  0  0  0  0
    4.2203    4.6854   22.4304 C   0  0  0  0  0  0  0  0  0  0  0  0
    9.0084    4.3232   18.5841 C   0  0  0  0  0  0  0  0  0  0  0  0
    8.8479    4.9406   17.2051 C   0  0  0  0  0  0  0  0  0  0  0  0
   10.7426   -1.3101   14.3819 H   0  0  0  0  0  0  0  0  0  0  0  0
   10.8038   -2.4792   15.6826 H   0  0  0  0  0  0  0  0  0  0  0  0
    9.2343   -2.1460   14.8924 H   0  0  0  0  0  0  0  0  0  0  0  0
   10.6265    0.9224   14.2658 H   0  0  0  0  0  0  0  0  0  0  0  0
   11.4974    3.1506   13.7920 H   0  0  0  0  0  0  0  0  0  0  0  0
   10.6326    5.0860   15.0814 H   0  0  0  0  0  0  0  0  0  0  0  0
    7.8687    1.6292   18.3912 H   0  0  0  0  0  0  0  0  0  0  0  0
    7.0509    3.0043   17.5628 H   0  0  0  0  0  0  0  0  0  0  0  0
    6.9440    1.8585   20.9356 H   0  0  0  0  0  0  0  0  0  0  0  0
    4.3824    2.6452   23.1028 H   0  0  0  0  0  0  0  0  0  0  0  0
    6.3986    3.0888   24.7049 H   0  0  0  0  0  0  0  0  0  0  0  0
    6.1424    4.7681   24.2944 H   0  0  0  0  0  0  0  0  0  0  0  0
    4.7819    4.3825   26.1649 H   0  0  0  0  0  0  0  0  0  0  0  0
    4.2370    2.8040   25.6062 H   0  0  0  0  0  0  0  0  0  0  0  0
    2.7176    4.8622   25.4541 H   0  0  0  0  0  0  0  0  0  0  0  0
    4.2139    6.1605   24.0386 H   0  0  0  0  0  0  0  0  0  0  0  0
    2.6416    5.8535   23.3327 H   0  0  0  0  0  0  0  0  0  0  0  0
    3.3890    4.4167   21.7726 H   0  0  0  0  0  0  0  0  0  0  0  0
    4.8222    5.4330   21.9037 H   0  0  0  0  0  0  0  0  0  0  0  0
    9.0386    5.2295   19.2132 H   0  0  0  0  0  0  0  0  0  0  0  0
   10.0043    3.9150   18.7791 H   0  0  0  0  0  0  0  0  0  0  0  0
    9.4577    5.8467   17.1172 H   0  0  0  0  0  0  0  0  0  0  0  0
    7.8110    5.1817   16.9507 H   0  0  0  0  0  0  0  0  0  0  0  0
  1  2  1  0
  2  3  1  0
  3  4  2  0
  3  5  1  0
  5  6  2  0
  6  7  1  0
  7  8  2  0
  8  9  1  0
  9 10  2  0
 10 11  1  0
 11 12  1  0
 12 13  1  0
 13 14  2  0
 13 15  1  0
 15 16  1  0
 15 17  1  0
 17 18  1  0
 18 19  1  0
 19 20  1  0
 20 21  1  0
 21 22  1  0
 12 23  1  0
 23 24  1  0
 10  5  1  0
 22 17  1  0
 24  9  1  0
  1 25  1  0
  1 26  1  0
  1 27  1  0
  6 28  1  0
  7 29  1  0
  8 30  1  0
 11 31  1  0
 11 32  1  0
 15 33  1  0
 17 34  1  0
 18 35  1  0
 18 36  1  0
 19 37  1  0
 19 38  1  0
 20 39  1  0
 21 40  1  0
 21 41  1  0
 22 42  1  0
 22 43  1  0
 23 44  1  0
 23 45  1  0
 24 46  1  0
 24 47  1  0
M  END
>  <Energy>  (292) 
377.8416846544842

>  <compound_id>  (292) 
21253

>  <target_id>  (292) 
1

>  <reference_id>  (292) 
44

>  <inspiration_ids>  (292) 
[146, 44]

>  <energy_score>  (292) 
286.24657116295003

>  <distance_score>  (292) 
7.829709023700805

>  <path>  (292) 
/opt/xchem-fragalysis-2/maxwin/BulkDock/SCRATCH/511013/C21253-P44/C21253-P44.minimised.mol

>  <scratch_subdir>  (292) 
/opt/xchem-fragalysis-2/maxwin/BulkDock/SCRATCH/511013/C21253-P44

>  <fragmenstein_runtime>  (292) 
11.309334516525269

>  <fragmenstein_outcome>  (292) 
too moved

>  <fragmenstein_mode>  (292) 
expansion

>  <fragmenstein_error>  (292) 


$$$$
C21254-P146
     RDKit          3D

 47 49  0  0  0  0  0  0  0  0999 V2000
   10.5844   -1.9066   14.8579 C   0  0  0  0  0  0  0  0  0  0  0  0
   10.5153   -0.4832   14.8301 O   0  0  0  0  0  0  0  0  0  0  0  0
    9.8988    0.0912   15.8904 C   0  0  0  0  0  0  0  0  0  0  0  0
    9.3134   -0.5193   16.7655 O   0  0  0  0  0  0  0  0  0  0  0  0
   10.1199    1.5608   15.9064 C   0  0  0  0  0  0  0  0  0  0  0  0
   10.9582    2.0906   14.8974 C   0  0  0  0  0  0  0  0  0  0  0  0
   11.3956    3.4117   14.9325 C   0  0  0  0  0  0  0  0  0  0  0  0
   10.9660    4.2470   15.9481 C   0  0  0  0  0  0  0  0  0  0  0  0
   10.0999    3.7427   16.9121 C   0  0  0  0  0  0  0  0  0  0  0  0
    9.6828    2.4032   16.9478 C   0  0  0  0  0  0  0  0  0  0  0  0
    8.9416    2.0984   18.2774 C   0  0  0  0  0  0  0  0  0  0  0  0
    7.6763    2.7643   18.9491 N   0  0  0  0  0  0  0  0  0  0  0  0
    7.7663    2.6618   20.3849 C   0  0  0  0  0  0  0  0  0  0  0  0
    8.2413    3.4198   21.1953 O   0  0  0  0  0  0  0  0  0  0  0  0
    7.0089    1.1418   21.0185 C   0  0  0  0  0  0  0  0  0  0  0  0
    5.2015    0.9038   22.2145 C   0  0  0  0  0  0  0  0  0  0  0  0
    4.8834   -0.0731   23.9897 C   0  0  0  0  0  0  0  0  0  0  0  0
    3.9163    0.3034   25.1752 C   0  0  0  0  0  0  0  0  0  0  0  0
    3.5969    1.6834   25.4497 N   0  0  0  0  0  0  0  0  0  0  0  0
    3.0644    2.3371   24.2720 C   0  0  0  0  0  0  0  0  0  0  0  0
    3.6482    2.0974   22.7993 C   0  0  0  0  0  0  0  0  0  0  0  0
    8.0364    3.8843   18.0289 C   0  0  0  0  0  0  0  0  0  0  0  0
    9.4223    4.5680   17.9520 C   0  0  0  0  0  0  0  0  0  0  0  0
   11.0912   -2.2457   15.7666 H   0  0  0  0  0  0  0  0  0  0  0  0
    9.5814   -2.3334   14.7866 H   0  0  0  0  0  0  0  0  0  0  0  0
   11.1759   -2.2396   14.0007 H   0  0  0  0  0  0  0  0  0  0  0  0
   11.3382    1.4697   14.0881 H   0  0  0  0  0  0  0  0  0  0  0  0
   12.0706    3.7833   14.1660 H   0  0  0  0  0  0  0  0  0  0  0  0
   11.2742    5.2889   15.9651 H   0  0  0  0  0  0  0  0  0  0  0  0
    9.7186    2.1937   19.0480 H   0  0  0  0  0  0  0  0  0  0  0  0
    8.6740    1.0394   18.2935 H   0  0  0  0  0  0  0  0  0  0  0  0
    8.0719    1.0061   21.4044 H   0  0  0  0  0  0  0  0  0  0  0  0
    7.0691    0.4375   20.1010 H   0  0  0  0  0  0  0  0  0  0  0  0
    4.6934    0.2559   21.5697 H   0  0  0  0  0  0  0  0  0  0  0  0
    5.8069   -0.2089   24.5643 H   0  0  0  0  0  0  0  0  0  0  0  0
    4.6294   -1.1303   23.7335 H   0  0  0  0  0  0  0  0  0  0  0  0
    4.3914   -0.0844   26.0882 H   0  0  0  0  0  0  0  0  0  0  0  0
    3.0121   -0.2860   25.1239 H   0  0  0  0  0  0  0  0  0  0  0  0
    2.9387    1.7522   26.2221 H   0  0  0  0  0  0  0  0  0  0  0  0
    1.9788    2.2810   24.2381 H   0  0  0  0  0  0  0  0  0  0  0  0
    3.1984    3.4097   24.4878 H   0  0  0  0  0  0  0  0  0  0  0  0
    2.8361    1.9523   22.0680 H   0  0  0  0  0  0  0  0  0  0  0  0
    3.8173    3.1973   22.6409 H   0  0  0  0  0  0  0  0  0  0  0  0
    7.4010    4.6834   18.4440 H   0  0  0  0  0  0  0  0  0  0  0  0
    7.5624    3.7018   17.0471 H   0  0  0  0  0  0  0  0  0  0  0  0
    9.3074    5.5993   17.6006 H   0  0  0  0  0  0  0  0  0  0  0  0
    9.9584    4.5655   18.9061 H   0  0  0  0  0  0  0  0  0  0  0  0
  1  2  1  0
  2  3  1  0
  3  4  2  0
  3  5  1  0
  5  6  2  0
  6  7  1  0
  7  8  2  0
  8  9  1  0
  9 10  2  0
 10 11  1  0
 11 12  1  0
 12 13  1  0
 13 14  2  0
 13 15  1  0
 15 16  1  0
 16 17  1  0
 17 18  1  0
 18 19  1  0
 19 20  1  0
 20 21  1  0
 12 22  1  0
 22 23  1  0
 10  5  1  0
 21 16  1  0
 23  9  1  0
  1 24  1  0
  1 25  1  0
  1 26  1  0
  6 27  1  0
  7 28  1  0
  8 29  1  0
 11 30  1  0
 11 31  1  0
 15 32  1  0
 15 33  1  0
 16 34  1  0
 17 35  1  0
 17 36  1  0
 18 37  1  0
 18 38  1  0
 19 39  1  0
 20 40  1  0
 20 41  1  0
 21 42  1  0
 21 43  1  0
 22 44  1  0
 22 45  1  0
 23 46  1  0
 23 47  1  0
M  END
>  <Energy>  (293) 
475.68816402787314

>  <compound_id>  (293) 
21254

>  <target_id>  (293) 
1

>  <reference_id>  (293) 
146

>  <inspiration_ids>  (293) 
[146, 44]

>  <energy_score>  (293) 
387.5071204927944

>  <distance_score>  (293) 
7.524885809807952

>  <path>  (293) 
/opt/xchem-fragalysis-2/maxwin/BulkDock/SCRATCH/511013/C21254-P146/C21254-P146.minimised.mol

>  <scratch_subdir>  (293) 
/opt/xchem-fragalysis-2/maxwin/BulkDock/SCRATCH/511013/C21254-P146

>  <fragmenstein_runtime>  (293) 
9.211929082870483

>  <fragmenstein_outcome>  (293) 
too moved

>  <fragmenstein_mode>  (293) 
expansion

>  <fragmenstein_error>  (293) 


$$$$
C21254-P44
     RDKit          3D

 47 49  0  0  0  0  0  0  0  0999 V2000
   10.0380   -1.6475   15.1950 C   0  0  0  0  0  0  0  0  0  0  0  0
    9.6609   -0.8783   16.3435 O   0  0  0  0  0  0  0  0  0  0  0  0
    8.4579   -0.2472   16.2355 C   0  0  0  0  0  0  0  0  0  0  0  0
    7.4874   -0.6287   15.6164 O   0  0  0  0  0  0  0  0  0  0  0  0
    8.6666    1.0146   16.9496 C   0  0  0  0  0  0  0  0  0  0  0  0
    9.3590    1.7971   15.9529 C   0  0  0  0  0  0  0  0  0  0  0  0
    9.7677    3.0828   16.1680 C   0  0  0  0  0  0  0  0  0  0  0  0
    9.4827    3.6003   17.3978 C   0  0  0  0  0  0  0  0  0  0  0  0
    8.8172    2.8256   18.3854 C   0  0  0  0  0  0  0  0  0  0  0  0
    8.3544    1.5082   18.2597 C   0  0  0  0  0  0  0  0  0  0  0  0
    7.2556    0.8912   19.5024 C   0  0  0  0  0  0  0  0  0  0  0  0
    6.6232    1.7985   21.1155 N   0  0  0  0  0  0  0  0  0  0  0  0
    4.9924    1.2856   22.2005 C   0  0  0  0  0  0  0  0  0  0  0  0
    3.8308    1.6840   22.0807 O   0  0  0  0  0  0  0  0  0  0  0  0
    5.1182    0.1970   23.7219 C   0  0  0  0  0  0  0  0  0  0  0  0
    5.4995    0.6128   25.2409 C   0  0  0  0  0  0  0  0  0  0  0  0
    5.0242    2.0389   25.6466 C   0  0  0  0  0  0  0  0  0  0  0  0
    3.5287    2.1423   25.9821 C   0  0  0  0  0  0  0  0  0  0  0  0
    3.0080    1.0594   26.8147 N   0  0  0  0  0  0  0  0  0  0  0  0
    4.0478    0.2075   27.3638 C   0  0  0  0  0  0  0  0  0  0  0  0
    4.8949   -0.4155   26.2484 C   0  0  0  0  0  0  0  0  0  0  0  0
    6.8682    3.0995   19.7570 C   0  0  0  0  0  0  0  0  0  0  0  0
    8.3820    3.5505   19.5699 C   0  0  0  0  0  0  0  0  0  0  0  0
   10.4835   -0.9748   14.4590 H   0  0  0  0  0  0  0  0  0  0  0  0
    9.1892   -2.1939   14.7784 H   0  0  0  0  0  0  0  0  0  0  0  0
   10.8068   -2.3641   15.4982 H   0  0  0  0  0  0  0  0  0  0  0  0
    9.5571    1.3836   14.9613 H   0  0  0  0  0  0  0  0  0  0  0  0
   10.2754    3.6636   15.4083 H   0  0  0  0  0  0  0  0  0  0  0  0
    9.7738    4.6272   17.6138 H   0  0  0  0  0  0  0  0  0  0  0  0
    7.7936   -0.0239   19.7535 H   0  0  0  0  0  0  0  0  0  0  0  0
    6.4519    0.4846   18.9360 H   0  0  0  0  0  0  0  0  0  0  0  0
    4.1274    0.4521   24.1070 H   0  0  0  0  0  0  0  0  0  0  0  0
    4.9457   -0.8692   23.5136 H   0  0  0  0  0  0  0  0  0  0  0  0
    6.5792    0.5593   25.3914 H   0  0  0  0  0  0  0  0  0  0  0  0
    5.2693    2.7826   24.8828 H   0  0  0  0  0  0  0  0  0  0  0  0
    5.5970    2.3398   26.5351 H   0  0  0  0  0  0  0  0  0  0  0  0
    3.3600    3.0975   26.4940 H   0  0  0  0  0  0  0  0  0  0  0  0
    2.9446    2.1875   25.0572 H   0  0  0  0  0  0  0  0  0  0  0  0
    2.4157    1.4374   27.5520 H   0  0  0  0  0  0  0  0  0  0  0  0
    3.5801   -0.5977   27.9415 H   0  0  0  0  0  0  0  0  0  0  0  0
    4.6794    0.7667   28.0645 H   0  0  0  0  0  0  0  0  0  0  0  0
    5.7174   -0.9772   26.7096 H   0  0  0  0  0  0  0  0  0  0  0  0
    4.2961   -1.1644   25.7190 H   0  0  0  0  0  0  0  0  0  0  0  0
    6.6788    2.8268   18.7026 H   0  0  0  0  0  0  0  0  0  0  0  0
    6.3345    4.0477   20.0118 H   0  0  0  0  0  0  0  0  0  0  0  0
    8.3735    4.6310   19.3629 H   0  0  0  0  0  0  0  0  0  0  0  0
    9.1285    3.3777   20.3441 H   0  0  0  0  0  0  0  0  0  0  0  0
  1  2  1  0
  2  3  1  0
  3  4  2  0
  3  5  1  0
  5  6  2  0
  6  7  1  0
  7  8  2  0
  8  9  1  0
  9 10  2  0
 10 11  1  0
 11 12  1  0
 12 13  1  0
 13 14  2  0
 13 15  1  0
 15 16  1  0
 16 17  1  0
 17 18  1  0
 18 19  1  0
 19 20  1  0
 20 21  1  0
 12 22  1  0
 22 23  1  0
 10  5  1  0
 21 16  1  0
 23  9  1  0
  1 24  1  0
  1 25  1  0
  1 26  1  0
  6 27  1  0
  7 28  1  0
  8 29  1  0
 11 30  1  0
 11 31  1  0
 15 32  1  0
 15 33  1  0
 16 34  1  0
 17 35  1  0
 17 36  1  0
 18 37  1  0
 18 38  1  0
 19 39  1  0
 20 40  1  0
 20 41  1  0
 21 42  1  0
 21 43  1  0
 22 44  1  0
 22 45  1  0
 23 46  1  0
 23 47  1  0
M  END
>  <Energy>  (294) 
517.2174207651434

>  <compound_id>  (294) 
21254

>  <target_id>  (294) 
1

>  <reference_id>  (294) 
44

>  <inspiration_ids>  (294) 
[146, 44]

>  <energy_score>  (294) 
429.0363772300616

>  <distance_score>  (294) 
7.660720521195377

>  <path>  (294) 
/opt/xchem-fragalysis-2/maxwin/BulkDock/SCRATCH/511013/C21254-P44/C21254-P44.minimised.mol

>  <scratch_subdir>  (294) 
/opt/xchem-fragalysis-2/maxwin/BulkDock/SCRATCH/511013/C21254-P44

>  <fragmenstein_runtime>  (294) 
11.945705890655518

>  <fragmenstein_outcome>  (294) 
too moved

>  <fragmenstein_mode>  (294) 
expansion

>  <fragmenstein_error>  (294) 


$$$$
C21255-P146
     RDKit          3D

 48 50  0  0  0  0  0  0  0  0999 V2000
   12.9302    0.5669   13.6552 C   0  0  0  0  0  0  0  0  0  0  0  0
   11.4192    0.4571   13.7038 C   0  0  0  0  0  0  0  0  0  0  0  0
   11.0208   -0.2843   14.8602 O   0  0  0  0  0  0  0  0  0  0  0  0
   10.3484    0.4021   15.8238 C   0  0  0  0  0  0  0  0  0  0  0  0
   10.4924    1.7555   16.1178 C   0  0  0  0  0  0  0  0  0  0  0  0
    9.6544    2.3038   17.0870 C   0  0  0  0  0  0  0  0  0  0  0  0
    8.5438    1.5270   17.5050 C   0  0  0  0  0  0  0  0  0  0  0  0
    8.6374    0.1791   17.7801 C   0  0  0  0  0  0  0  0  0  0  0  0
    9.5035   -0.3747   16.6704 C   0  0  0  0  0  0  0  0  0  0  0  0
    7.0992   -0.7049   18.5500 C   0  0  0  0  0  0  0  0  0  0  0  0
    5.7220   -0.5126   18.0754 N   0  0  0  0  0  0  0  0  0  0  0  0
    4.3244   -1.6183   17.7943 C   0  0  0  0  0  0  0  0  0  0  0  0
    4.2594   -2.8022   17.8488 O   0  0  0  0  0  0  0  0  0  0  0  0
    2.4582   -0.8623   17.5668 C   0  0  0  0  0  0  0  0  0  0  0  0
    1.9376   -0.9120   18.8910 F   0  0  0  0  0  0  0  0  0  0  0  0
    1.3011    0.2807   17.1183 C   0  0  0  0  0  0  0  0  0  0  0  0
    1.3226    1.4106   16.0664 C   0  0  0  0  0  0  0  0  0  0  0  0
    0.1706    2.4014   16.3368 C   0  0  0  0  0  0  0  0  0  0  0  0
   -1.1130    1.7624   16.5965 N   0  0  0  0  0  0  0  0  0  0  0  0
   -1.1548    0.3673   16.2232 C   0  0  0  0  0  0  0  0  0  0  0  0
   -0.0819   -0.4307   16.9621 C   0  0  0  0  0  0  0  0  0  0  0  0
    6.7241   -0.1895   16.4404 C   0  0  0  0  0  0  0  0  0  0  0  0
    7.5813    1.3686   16.2665 C   0  0  0  0  0  0  0  0  0  0  0  0
   13.2542    1.0445   12.7260 H   0  0  0  0  0  0  0  0  0  0  0  0
   13.3922   -0.4236   13.7221 H   0  0  0  0  0  0  0  0  0  0  0  0
   13.3066    1.1535   14.4959 H   0  0  0  0  0  0  0  0  0  0  0  0
   10.9399    1.4387   13.6176 H   0  0  0  0  0  0  0  0  0  0  0  0
   11.0887   -0.1116   12.8326 H   0  0  0  0  0  0  0  0  0  0  0  0
   11.2325    2.3804   15.6300 H   0  0  0  0  0  0  0  0  0  0  0  0
    9.6828    3.3685   17.3027 H   0  0  0  0  0  0  0  0  0  0  0  0
    9.4555   -1.4132   16.3596 H   0  0  0  0  0  0  0  0  0  0  0  0
    7.3933   -0.9613   19.5734 H   0  0  0  0  0  0  0  0  0  0  0  0
    7.0918    0.2553   19.1233 H   0  0  0  0  0  0  0  0  0  0  0  0
    1.8903   -1.8044   17.3560 H   0  0  0  0  0  0  0  0  0  0  0  0
    1.2432    0.8837   18.0205 H   0  0  0  0  0  0  0  0  0  0  0  0
    2.2335    2.0143   16.0662 H   0  0  0  0  0  0  0  0  0  0  0  0
    1.1858    1.0039   15.0618 H   0  0  0  0  0  0  0  0  0  0  0  0
    0.4215    3.0380   17.1929 H   0  0  0  0  0  0  0  0  0  0  0  0
    0.0775    3.0642   15.4682 H   0  0  0  0  0  0  0  0  0  0  0  0
   -1.8676    2.2895   16.1591 H   0  0  0  0  0  0  0  0  0  0  0  0
   -2.1399   -0.0480   16.4648 H   0  0  0  0  0  0  0  0  0  0  0  0
   -1.0349    0.2590   15.1381 H   0  0  0  0  0  0  0  0  0  0  0  0
   -0.4775   -0.6581   17.9424 H   0  0  0  0  0  0  0  0  0  0  0  0
    0.0342   -1.3845   16.4357 H   0  0  0  0  0  0  0  0  0  0  0  0
    6.8419   -0.8457   15.5303 H   0  0  0  0  0  0  0  0  0  0  0  0
    7.4889   -0.9166   16.5129 H   0  0  0  0  0  0  0  0  0  0  0  0
    8.1672    1.2881   15.3542 H   0  0  0  0  0  0  0  0  0  0  0  0
    6.9518    2.2678   16.1733 H   0  0  0  0  0  0  0  0  0  0  0  0
  1  2  1  0
  2  3  1  0
  3  4  1  0
  4  5  2  0
  5  6  1  0
  6  7  2  0
  7  8  1  0
  8  9  2  0
  8 10  1  0
 10 11  1  0
 11 12  1  0
 12 13  2  0
 12 14  1  0
 14 15  1  0
 14 16  1  0
 16 17  1  0
 17 18  1  0
 18 19  1  0
 19 20  1  0
 20 21  1  0
 11 22  1  0
 22 23  1  0
  9  4  1  0
 21 16  1  0
 23  7  1  0
  1 24  1  0
  1 25  1  0
  1 26  1  0
  2 27  1  0
  2 28  1  0
  5 29  1  0
  6 30  1  0
  9 31  1  0
 10 32  1  0
 10 33  1  0
 14 34  1  0
 16 35  1  0
 17 36  1  0
 17 37  1  0
 18 38  1  0
 18 39  1  0
 19 40  1  0
 20 41  1  0
 20 42  1  0
 21 43  1  0
 21 44  1  0
 22 45  1  0
 22 46  1  0
 23 47  1  0
 23 48  1  0
M  END
>  <Energy>  (295) 
610.02766657110226

>  <compound_id>  (295) 
21255

>  <target_id>  (295) 
1

>  <reference_id>  (295) 
146

>  <inspiration_ids>  (295) 
[146, 44]

>  <energy_score>  (295) 
526.5609259190924

>  <distance_score>  (295) 
9.122503053488082

>  <path>  (295) 
/opt/xchem-fragalysis-2/maxwin/BulkDock/SCRATCH/511013/C21255-P146/C21255-P146.minimised.mol

>  <scratch_subdir>  (295) 
/opt/xchem-fragalysis-2/maxwin/BulkDock/SCRATCH/511013/C21255-P146

>  <fragmenstein_runtime>  (295) 
6.378426551818848

>  <fragmenstein_outcome>  (295) 
too moved

>  <fragmenstein_mode>  (295) 
expansion

>  <fragmenstein_error>  (295) 


$$$$
C21255-P44
     RDKit          3D

 48 50  0  0  0  0  0  0  0  0999 V2000
   12.4734    5.0474   12.8976 C   0  0  0  0  0  0  0  0  0  0  0  0
   11.0157    4.7375   12.6040 C   0  0  0  0  0  0  0  0  0  0  0  0
   10.2517    4.7231   13.8079 O   0  0  0  0  0  0  0  0  0  0  0  0
   10.0882    3.5371   14.4716 C   0  0  0  0  0  0  0  0  0  0  0  0
   10.7747    2.3504   14.2077 C   0  0  0  0  0  0  0  0  0  0  0  0
   10.5058    1.2265   14.9725 C   0  0  0  0  0  0  0  0  0  0  0  0
    9.5701    1.3317   15.9991 C   0  0  0  0  0  0  0  0  0  0  0  0
    8.8570    2.4606   16.2729 C   0  0  0  0  0  0  0  0  0  0  0  0
    9.1340    3.5856   15.5046 C   0  0  0  0  0  0  0  0  0  0  0  0
    7.8932    2.4260   17.4552 C   0  0  0  0  0  0  0  0  0  0  0  0
    7.6386    1.2712   18.6993 N   0  0  0  0  0  0  0  0  0  0  0  0
    6.8217   -0.1014   18.7133 C   0  0  0  0  0  0  0  0  0  0  0  0
    6.2760   -0.6554   17.7623 O   0  0  0  0  0  0  0  0  0  0  0  0
    6.5356   -0.9057   20.5801 C   0  0  0  0  0  0  0  0  0  0  0  0
    6.3212    0.4100   20.2653 F   0  0  0  0  0  0  0  0  0  0  0  0
    5.0868   -0.7980   22.1879 C   0  0  0  0  0  0  0  0  0  0  0  0
    4.9421   -1.9918   23.2337 C   0  0  0  0  0  0  0  0  0  0  0  0
    4.6427   -2.2257   24.7653 C   0  0  0  0  0  0  0  0  0  0  0  0
    4.5740   -1.1168   25.6795 N   0  0  0  0  0  0  0  0  0  0  0  0
    4.0905    0.0412   24.9940 C   0  0  0  0  0  0  0  0  0  0  0  0
    4.9459    0.3170   23.7309 C   0  0  0  0  0  0  0  0  0  0  0  0
    8.9808    1.0211   18.4562 C   0  0  0  0  0  0  0  0  0  0  0  0
    9.2066    0.2966   16.9585 C   0  0  0  0  0  0  0  0  0  0  0  0
   12.5609    5.9920   13.4451 H   0  0  0  0  0  0  0  0  0  0  0  0
   13.0469    5.1252   11.9694 H   0  0  0  0  0  0  0  0  0  0  0  0
   12.9286    4.2756   13.5252 H   0  0  0  0  0  0  0  0  0  0  0  0
   10.6079    5.5471   11.9881 H   0  0  0  0  0  0  0  0  0  0  0  0
   10.8932    3.8224   12.0138 H   0  0  0  0  0  0  0  0  0  0  0  0
   11.5174    2.2728   13.4233 H   0  0  0  0  0  0  0  0  0  0  0  0
   11.0254    0.2932   14.7762 H   0  0  0  0  0  0  0  0  0  0  0  0
    8.6094    4.5183   15.7012 H   0  0  0  0  0  0  0  0  0  0  0  0
    8.2639    3.2593   18.0897 H   0  0  0  0  0  0  0  0  0  0  0  0
    6.9571    2.9090   17.1567 H   0  0  0  0  0  0  0  0  0  0  0  0
    6.0382   -1.9059   20.4543 H   0  0  0  0  0  0  0  0  0  0  0  0
    4.4158   -0.2281   21.6054 H   0  0  0  0  0  0  0  0  0  0  0  0
    5.0134   -2.6546   22.3949 H   0  0  0  0  0  0  0  0  0  0  0  0
    5.8763   -2.4988   23.5006 H   0  0  0  0  0  0  0  0  0  0  0  0
    3.8504   -2.9577   24.9119 H   0  0  0  0  0  0  0  0  0  0  0  0
    5.4683   -2.8103   25.2091 H   0  0  0  0  0  0  0  0  0  0  0  0
    4.0111   -1.3332   26.4981 H   0  0  0  0  0  0  0  0  0  0  0  0
    3.0365   -0.0528   24.8248 H   0  0  0  0  0  0  0  0  0  0  0  0
    4.1925    0.9040   25.6655 H   0  0  0  0  0  0  0  0  0  0  0  0
    5.8642    0.4034   24.2969 H   0  0  0  0  0  0  0  0  0  0  0  0
    4.5520    1.2881   23.3865 H   0  0  0  0  0  0  0  0  0  0  0  0
    9.0480    0.2616   19.2219 H   0  0  0  0  0  0  0  0  0  0  0  0
    9.5934    1.9128   18.6418 H   0  0  0  0  0  0  0  0  0  0  0  0
    9.9884   -0.4451   16.8258 H   0  0  0  0  0  0  0  0  0  0  0  0
    8.2887   -0.1537   16.5759 H   0  0  0  0  0  0  0  0  0  0  0  0
  1  2  1  0
  2  3  1  0
  3  4  1  0
  4  5  2  0
  5  6  1  0
  6  7  2  0
  7  8  1  0
  8  9  2  0
  8 10  1  0
 10 11  1  0
 11 12  1  0
 12 13  2  0
 12 14  1  0
 14 15  1  0
 14 16  1  0
 16 17  1  0
 17 18  1  0
 18 19  1  0
 19 20  1  0
 20 21  1  0
 11 22  1  0
 22 23  1  0
  9  4  1  0
 21 16  1  0
 23  7  1  0
  1 24  1  0
  1 25  1  0
  1 26  1  0
  2 27  1  0
  2 28  1  0
  5 29  1  0
  6 30  1  0
  9 31  1  0
 10 32  1  0
 10 33  1  0
 14 34  1  0
 16 35  1  0
 17 36  1  0
 17 37  1  0
 18 38  1  0
 18 39  1  0
 19 40  1  0
 20 41  1  0
 20 42  1  0
 21 43  1  0
 21 44  1  0
 22 45  1  0
 22 46  1  0
 23 47  1  0
 23 48  1  0
M  END
>  <Energy>  (296) 
629.74252792180334

>  <compound_id>  (296) 
21255

>  <target_id>  (296) 
1

>  <reference_id>  (296) 
44

>  <inspiration_ids>  (296) 
[146, 44]

>  <energy_score>  (296) 
546.2757872697978

>  <distance_score>  (296) 
7.617494209523662

>  <path>  (296) 
/opt/xchem-fragalysis-2/maxwin/BulkDock/SCRATCH/511013/C21255-P44/C21255-P44.minimised.mol

>  <scratch_subdir>  (296) 
/opt/xchem-fragalysis-2/maxwin/BulkDock/SCRATCH/511013/C21255-P44

>  <fragmenstein_runtime>  (296) 
8.868955373764038

>  <fragmenstein_outcome>  (296) 
too moved

>  <fragmenstein_mode>  (296) 
expansion

>  <fragmenstein_error>  (296) 


$$$$
C21256-P146
     RDKit          3D

 47 49  0  0  0  0  0  0  0  0999 V2000
   12.7250    3.8127   14.7839 C   0  0  0  0  0  0  0  0  0  0  0  0
   11.7590    3.9799   15.9606 C   0  0  0  0  0  0  0  0  0  0  0  0
   10.7224    2.8981   16.1853 C   0  0  0  0  0  0  0  0  0  0  0  0
   10.7048    1.7273   15.4026 C   0  0  0  0  0  0  0  0  0  0  0  0
    9.7636    0.7229   15.6226 C   0  0  0  0  0  0  0  0  0  0  0  0
    8.8183    0.8823   16.6299 C   0  0  0  0  0  0  0  0  0  0  0  0
    8.8152    2.0313   17.4337 C   0  0  0  0  0  0  0  0  0  0  0  0
    9.7572    3.0215   17.2042 C   0  0  0  0  0  0  0  0  0  0  0  0
    9.5292    4.1231   18.1834 C   0  0  0  0  0  0  0  0  0  0  0  0
    9.0731    3.3894   19.4890 C   0  0  0  0  0  0  0  0  0  0  0  0
    7.7650    2.7465   19.9526 N   0  0  0  0  0  0  0  0  0  0  0  0
    7.4391    1.4173   20.8777 C   0  0  0  0  0  0  0  0  0  0  0  0
    8.3857    0.7684   21.1801 O   0  0  0  0  0  0  0  0  0  0  0  0
    5.4792    0.9247   21.7112 C   0  0  0  0  0  0  0  0  0  0  0  0
    5.0192   -0.4148   21.7025 F   0  0  0  0  0  0  0  0  0  0  0  0
    3.9084    1.8177   22.8189 C   0  0  0  0  0  0  0  0  0  0  0  0
    3.4080    3.5143   22.9211 C   0  0  0  0  0  0  0  0  0  0  0  0
    2.0834    3.7543   23.6757 C   0  0  0  0  0  0  0  0  0  0  0  0
    1.8854    3.0799   24.9442 N   0  0  0  0  0  0  0  0  0  0  0  0
    3.1001    2.4875   25.4633 C   0  0  0  0  0  0  0  0  0  0  0  0
    3.5716    1.3484   24.5604 C   0  0  0  0  0  0  0  0  0  0  0  0
    7.6991    2.3984   18.4807 C   0  0  0  0  0  0  0  0  0  0  0  0
   12.1770    3.8072   13.8351 H   0  0  0  0  0  0  0  0  0  0  0  0
   13.3182    2.8976   14.8288 H   0  0  0  0  0  0  0  0  0  0  0  0
   13.4211    4.6578   14.7561 H   0  0  0  0  0  0  0  0  0  0  0  0
   12.3432    4.1067   16.8793 H   0  0  0  0  0  0  0  0  0  0  0  0
   11.2183    4.9224   15.8028 H   0  0  0  0  0  0  0  0  0  0  0  0
   11.4327    1.5733   14.6097 H   0  0  0  0  0  0  0  0  0  0  0  0
    9.7546   -0.1593   14.9864 H   0  0  0  0  0  0  0  0  0  0  0  0
    8.0467    0.1319   16.7429 H   0  0  0  0  0  0  0  0  0  0  0  0
   10.4620    4.6600   18.3841 H   0  0  0  0  0  0  0  0  0  0  0  0
    8.7750    4.8340   17.8293 H   0  0  0  0  0  0  0  0  0  0  0  0
    9.1637    4.1754   20.2558 H   0  0  0  0  0  0  0  0  0  0  0  0
    9.8621    2.6828   19.7964 H   0  0  0  0  0  0  0  0  0  0  0  0
    4.7711    0.8819   20.9837 H   0  0  0  0  0  0  0  0  0  0  0  0
    3.0434    1.6995   22.1288 H   0  0  0  0  0  0  0  0  0  0  0  0
    3.2029    3.9333   21.9281 H   0  0  0  0  0  0  0  0  0  0  0  0
    4.1729    4.1705   23.3544 H   0  0  0  0  0  0  0  0  0  0  0  0
    1.2420    3.5108   23.0193 H   0  0  0  0  0  0  0  0  0  0  0  0
    2.0036    4.8361   23.8464 H   0  0  0  0  0  0  0  0  0  0  0  0
    1.4844    3.7242   25.6254 H   0  0  0  0  0  0  0  0  0  0  0  0
    2.8853    2.0713   26.4547 H   0  0  0  0  0  0  0  0  0  0  0  0
    3.8791    3.2427   25.6163 H   0  0  0  0  0  0  0  0  0  0  0  0
    2.9019    0.5177   24.6824 H   0  0  0  0  0  0  0  0  0  0  0  0
    4.4053    0.8079   25.0342 H   0  0  0  0  0  0  0  0  0  0  0  0
    6.9636    3.0278   17.9724 H   0  0  0  0  0  0  0  0  0  0  0  0
    7.5059    1.3567   18.6980 H   0  0  0  0  0  0  0  0  0  0  0  0
  1  2  1  0
  2  3  1  0
  3  4  2  0
  4  5  1  0
  5  6  2  0
  6  7  1  0
  7  8  2  0
  8  9  1  0
  9 10  1  0
 10 11  1  0
 11 12  1  0
 12 13  2  0
 12 14  1  0
 14 15  1  0
 14 16  1  0
 16 17  1  0
 17 18  1  0
 18 19  1  0
 19 20  1  0
 20 21  1  0
 11 22  1  0
  8  3  1  0
 21 16  1  0
 22  7  1  0
  1 23  1  0
  1 24  1  0
  1 25  1  0
  2 26  1  0
  2 27  1  0
  4 28  1  0
  5 29  1  0
  6 30  1  0
  9 31  1  0
  9 32  1  0
 10 33  1  0
 10 34  1  0
 14 35  1  0
 16 36  1  0
 17 37  1  0
 17 38  1  0
 18 39  1  0
 18 40  1  0
 19 41  1  0
 20 42  1  0
 20 43  1  0
 21 44  1  0
 21 45  1  0
 22 46  1  0
 22 47  1  0
M  END
>  <Energy>  (297) 
513.46196820075886

>  <compound_id>  (297) 
21256

>  <target_id>  (297) 
1

>  <reference_id>  (297) 
146

>  <inspiration_ids>  (297) 
[146, 44]

>  <energy_score>  (297) 
421.3285551593792

>  <distance_score>  (297) 
7.181505361746698

>  <path>  (297) 
/opt/xchem-fragalysis-2/maxwin/BulkDock/SCRATCH/511013/C21256-P146/C21256-P146.minimised.mol

>  <scratch_subdir>  (297) 
/opt/xchem-fragalysis-2/maxwin/BulkDock/SCRATCH/511013/C21256-P146

>  <fragmenstein_runtime>  (297) 
6.315685033798218

>  <fragmenstein_outcome>  (297) 
too moved

>  <fragmenstein_mode>  (297) 
expansion

>  <fragmenstein_error>  (297) 


$$$$
C21256-P44
     RDKit          3D

 47 49  0  0  0  0  0  0  0  0999 V2000
   14.9492   -0.5839   21.4696 C   0  0  0  0  0  0  0  0  0  0  0  0
   14.2425   -0.2647   22.7913 C   0  0  0  0  0  0  0  0  0  0  0  0
   13.3861    0.9930   22.8579 C   0  0  0  0  0  0  0  0  0  0  0  0
   13.5739    2.0284   21.9330 C   0  0  0  0  0  0  0  0  0  0  0  0
   12.7709    3.1685   21.9683 C   0  0  0  0  0  0  0  0  0  0  0  0
   11.8368    3.3498   22.9907 C   0  0  0  0  0  0  0  0  0  0  0  0
   11.6705    2.3793   23.9820 C   0  0  0  0  0  0  0  0  0  0  0  0
   12.4098    1.1918   23.8795 C   0  0  0  0  0  0  0  0  0  0  0  0
   12.0224    0.1896   24.9170 C   0  0  0  0  0  0  0  0  0  0  0  0
   11.3316    0.8957   26.0987 C   0  0  0  0  0  0  0  0  0  0  0  0
    9.9949    1.6104   25.9681 N   0  0  0  0  0  0  0  0  0  0  0  0
    9.1536    2.2335   26.9769 C   0  0  0  0  0  0  0  0  0  0  0  0
    9.3496    2.4179   28.1569 O   0  0  0  0  0  0  0  0  0  0  0  0
    7.7991    2.8422   26.4596 C   0  0  0  0  0  0  0  0  0  0  0  0
    7.9187    3.3262   25.1924 F   0  0  0  0  0  0  0  0  0  0  0  0
    6.4967    2.0010   26.5366 C   0  0  0  0  0  0  0  0  0  0  0  0
    6.1589    1.4935   27.9472 C   0  0  0  0  0  0  0  0  0  0  0  0
    4.7980    0.7837   27.9919 C   0  0  0  0  0  0  0  0  0  0  0  0
    3.7171    1.6401   27.5104 N   0  0  0  0  0  0  0  0  0  0  0  0
    3.9698    2.0791   26.1390 C   0  0  0  0  0  0  0  0  0  0  0  0
    5.2922    2.8405   26.0381 C   0  0  0  0  0  0  0  0  0  0  0  0
   10.8840    2.6751   25.2814 C   0  0  0  0  0  0  0  0  0  0  0  0
   14.2369   -0.6498   20.6440 H   0  0  0  0  0  0  0  0  0  0  0  0
   15.4658   -1.5461   21.5479 H   0  0  0  0  0  0  0  0  0  0  0  0
   15.7006    0.1727   21.2232 H   0  0  0  0  0  0  0  0  0  0  0  0
   13.6259   -1.1325   23.0476 H   0  0  0  0  0  0  0  0  0  0  0  0
   15.0064   -0.1788   23.5744 H   0  0  0  0  0  0  0  0  0  0  0  0
   14.3167    1.9554   21.1444 H   0  0  0  0  0  0  0  0  0  0  0  0
   12.8983    3.9417   21.2138 H   0  0  0  0  0  0  0  0  0  0  0  0
   11.2759    4.2810   23.0323 H   0  0  0  0  0  0  0  0  0  0  0  0
   11.3303   -0.5540   24.5236 H   0  0  0  0  0  0  0  0  0  0  0  0
   12.9100   -0.3310   25.2933 H   0  0  0  0  0  0  0  0  0  0  0  0
   11.0497    0.0676   26.7698 H   0  0  0  0  0  0  0  0  0  0  0  0
   12.0425    1.4359   26.7506 H   0  0  0  0  0  0  0  0  0  0  0  0
    7.6492    3.7391   27.0764 H   0  0  0  0  0  0  0  0  0  0  0  0
    6.6078    1.1297   25.8818 H   0  0  0  0  0  0  0  0  0  0  0  0
    6.1538    2.3341   28.6533 H   0  0  0  0  0  0  0  0  0  0  0  0
    6.9349    0.7979   28.2874 H   0  0  0  0  0  0  0  0  0  0  0  0
    4.5838    0.4933   29.0264 H   0  0  0  0  0  0  0  0  0  0  0  0
    4.8380   -0.1408   27.4026 H   0  0  0  0  0  0  0  0  0  0  0  0
    2.8372    1.1247   27.5384 H   0  0  0  0  0  0  0  0  0  0  0  0
    3.1522    2.7349   25.8203 H   0  0  0  0  0  0  0  0  0  0  0  0
    3.9751    1.2186   25.4587 H   0  0  0  0  0  0  0  0  0  0  0  0
    5.2212    3.7645   26.6279 H   0  0  0  0  0  0  0  0  0  0  0  0
    5.4500    3.1497   24.9996 H   0  0  0  0  0  0  0  0  0  0  0  0
   11.5161    3.2106   26.0118 H   0  0  0  0  0  0  0  0  0  0  0  0
   10.1651    3.4532   24.9917 H   0  0  0  0  0  0  0  0  0  0  0  0
  1  2  1  0
  2  3  1  0
  3  4  2  0
  4  5  1  0
  5  6  2  0
  6  7  1  0
  7  8  2  0
  8  9  1  0
  9 10  1  0
 10 11  1  0
 11 12  1  0
 12 13  2  0
 12 14  1  0
 14 15  1  0
 14 16  1  0
 16 17  1  0
 17 18  1  0
 18 19  1  0
 19 20  1  0
 20 21  1  0
 11 22  1  0
  8  3  1  0
 21 16  1  0
 22  7  1  0
  1 23  1  0
  1 24  1  0
  1 25  1  0
  2 26  1  0
  2 27  1  0
  4 28  1  0
  5 29  1  0
  6 30  1  0
  9 31  1  0
  9 32  1  0
 10 33  1  0
 10 34  1  0
 14 35  1  0
 16 36  1  0
 17 37  1  0
 17 38  1  0
 18 39  1  0
 18 40  1  0
 19 41  1  0
 20 42  1  0
 20 43  1  0
 21 44  1  0
 21 45  1  0
 22 46  1  0
 22 47  1  0
M  END
>  <Energy>  (298) 
130.32669748470369

>  <compound_id>  (298) 
21256

>  <target_id>  (298) 
1

>  <reference_id>  (298) 
44

>  <inspiration_ids>  (298) 
[146, 44]

>  <energy_score>  (298) 
38.19328444332865

>  <distance_score>  (298) 
8.525520339285622

>  <path>  (298) 
/opt/xchem-fragalysis-2/maxwin/BulkDock/SCRATCH/511013/C21256-P44/C21256-P44.minimised.mol

>  <scratch_subdir>  (298) 
/opt/xchem-fragalysis-2/maxwin/BulkDock/SCRATCH/511013/C21256-P44

>  <fragmenstein_runtime>  (298) 
7.831298351287842

>  <fragmenstein_outcome>  (298) 
too moved

>  <fragmenstein_mode>  (298) 
expansion

>  <fragmenstein_error>  (298) 


$$$$
C21253-P146
     RDKit          3D

 47 49  0  0  0  0  0  0  0  0999 V2000
    4.3045    5.3681   16.0612 C   0  0  0  0  0  0  0  0  0  0  0  0
    5.7058    5.1014   16.0176 O   0  0  0  0  0  0  0  0  0  0  0  0
    6.3035    5.0356   17.2309 C   0  0  0  0  0  0  0  0  0  0  0  0
    5.7743    5.2522   18.3074 O   0  0  0  0  0  0  0  0  0  0  0  0
    7.7149    4.6019   17.0664 C   0  0  0  0  0  0  0  0  0  0  0  0
    8.4109    4.9671   15.8917 C   0  0  0  0  0  0  0  0  0  0  0  0
    9.7162    4.5361   15.6505 C   0  0  0  0  0  0  0  0  0  0  0  0
   10.3377    3.7335   16.5823 C   0  0  0  0  0  0  0  0  0  0  0  0
    9.6362    3.3976   17.7404 C   0  0  0  0  0  0  0  0  0  0  0  0
    8.3517    3.8017   18.0301 C   0  0  0  0  0  0  0  0  0  0  0  0
    7.6570    3.1713   19.2663 C   0  0  0  0  0  0  0  0  0  0  0  0
    8.0869    2.1408   20.4268 N   0  0  0  0  0  0  0  0  0  0  0  0
    7.4332    0.7220   20.1842 C   0  0  0  0  0  0  0  0  0  0  0  0
    7.8837   -0.2220   19.5628 O   0  0  0  0  0  0  0  0  0  0  0  0
    5.6468    0.3881   21.1885 C   0  0  0  0  0  0  0  0  0  0  0  0
    5.4791   -1.1253   21.5617 F   0  0  0  0  0  0  0  0  0  0  0  0
    4.6209    0.9610   22.5496 C   0  0  0  0  0  0  0  0  0  0  0  0
    3.4020    2.3446   23.0143 C   0  0  0  0  0  0  0  0  0  0  0  0
    2.8685    2.4947   24.4646 C   0  0  0  0  0  0  0  0  0  0  0  0
    3.4518    1.7903   25.5928 N   0  0  0  0  0  0  0  0  0  0  0  0
    3.7554    0.3836   25.3715 C   0  0  0  0  0  0  0  0  0  0  0  0
    4.6390   -0.0780   24.1804 C   0  0  0  0  0  0  0  0  0  0  0  0
    9.4356    2.6619   20.0749 C   0  0  0  0  0  0  0  0  0  0  0  0
   10.1129    2.4334   18.7143 C   0  0  0  0  0  0  0  0  0  0  0  0
    3.9233    5.3507   15.0365 H   0  0  0  0  0  0  0  0  0  0  0  0
    3.7847    4.5960   16.6376 H   0  0  0  0  0  0  0  0  0  0  0  0
    4.1184    6.3595   16.4853 H   0  0  0  0  0  0  0  0  0  0  0  0
    7.9246    5.5893   15.1416 H   0  0  0  0  0  0  0  0  0  0  0  0
   10.2274    4.8175   14.7341 H   0  0  0  0  0  0  0  0  0  0  0  0
   11.3389    3.3535   16.3964 H   0  0  0  0  0  0  0  0  0  0  0  0
    7.0640    2.5254   18.6560 H   0  0  0  0  0  0  0  0  0  0  0  0
    7.1659    3.9794   19.8175 H   0  0  0  0  0  0  0  0  0  0  0  0
    6.1438    0.9313   21.8337 H   0  0  0  0  0  0  0  0  0  0  0  0
    3.9524    0.8614   21.6694 H   0  0  0  0  0  0  0  0  0  0  0  0
    2.5772    2.2885   22.3007 H   0  0  0  0  0  0  0  0  0  0  0  0
    3.7804    3.3595   22.7910 H   0  0  0  0  0  0  0  0  0  0  0  0
    1.7825    2.4031   24.4670 H   0  0  0  0  0  0  0  0  0  0  0  0
    2.9780    3.5612   24.7144 H   0  0  0  0  0  0  0  0  0  0  0  0
    4.2826    2.2784   25.9043 H   0  0  0  0  0  0  0  0  0  0  0  0
    4.2739    0.0470   26.2811 H   0  0  0  0  0  0  0  0  0  0  0  0
    2.8537   -0.2104   25.4096 H   0  0  0  0  0  0  0  0  0  0  0  0
    4.4382   -1.1408   23.9448 H   0  0  0  0  0  0  0  0  0  0  0  0
    5.6356   -0.1339   24.6238 H   0  0  0  0  0  0  0  0  0  0  0  0
   10.0546    2.1171   20.8021 H   0  0  0  0  0  0  0  0  0  0  0  0
    9.5385    3.7033   20.4324 H   0  0  0  0  0  0  0  0  0  0  0  0
   11.1849    2.5887   18.8333 H   0  0  0  0  0  0  0  0  0  0  0  0
    9.8346    1.4747   18.2639 H   0  0  0  0  0  0  0  0  0  0  0  0
  1  2  1  0
  2  3  1  0
  3  4  2  0
  3  5  1  0
  5  6  2  0
  6  7  1  0
  7  8  2  0
  8  9  1  0
  9 10  2  0
 10 11  1  0
 11 12  1  0
 12 13  1  0
 13 14  2  0
 13 15  1  0
 15 16  1  0
 15 17  1  0
 17 18  1  0
 18 19  1  0
 19 20  1  0
 20 21  1  0
 21 22  1  0
 12 23  1  0
 23 24  1  0
 10  5  1  0
 22 17  1  0
 24  9  1  0
  1 25  1  0
  1 26  1  0
  1 27  1  0
  6 28  1  0
  7 29  1  0
  8 30  1  0
 11 31  1  0
 11 32  1  0
 15 33  1  0
 17 34  1  0
 18 35  1  0
 18 36  1  0
 19 37  1  0
 19 38  1  0
 20 39  1  0
 21 40  1  0
 21 41  1  0
 22 42  1  0
 22 43  1  0
 23 44  1  0
 23 45  1  0
 24 46  1  0
 24 47  1  0
M  END
>  <Energy>  (299) 
468.26582850689022

>  <compound_id>  (299) 
21253

>  <target_id>  (299) 
1

>  <reference_id>  (299) 
146

>  <inspiration_ids>  (299) 
[146, 44]

>  <energy_score>  (299) 
376.67071501536134

>  <distance_score>  (299) 
7.975855888960657

>  <path>  (299) 
/opt/xchem-fragalysis-2/maxwin/BulkDock/SCRATCH/511013/C21253-P146/C21253-P146.minimised.mol

>  <scratch_subdir>  (299) 
/opt/xchem-fragalysis-2/maxwin/BulkDock/SCRATCH/511013/C21253-P146

>  <fragmenstein_runtime>  (299) 
15.30797815322876

>  <fragmenstein_outcome>  (299) 
too moved

>  <fragmenstein_mode>  (299) 
expansion

>  <fragmenstein_error>  (299) 


$$$$
C21253-P44
     RDKit          3D

 47 49  0  0  0  0  0  0  0  0999 V2000
   10.1775   -1.7069   15.2277 C   0  0  0  0  0  0  0  0  0  0  0  0
    9.9774   -0.6637   16.1902 O   0  0  0  0  0  0  0  0  0  0  0  0
    8.9007    0.1280   15.9443 C   0  0  0  0  0  0  0  0  0  0  0  0
    7.7815   -0.2561   15.6740 O   0  0  0  0  0  0  0  0  0  0  0  0
    9.3891    1.5195   15.9712 C   0  0  0  0  0  0  0  0  0  0  0  0
   10.3140    1.7414   14.9106 C   0  0  0  0  0  0  0  0  0  0  0  0
   10.8005    3.0028   14.6110 C   0  0  0  0  0  0  0  0  0  0  0  0
   10.3133    4.0759   15.3255 C   0  0  0  0  0  0  0  0  0  0  0  0
    9.4060    3.8515   16.3667 C   0  0  0  0  0  0  0  0  0  0  0  0
    8.9786    2.5821   16.7894 C   0  0  0  0  0  0  0  0  0  0  0  0
    7.9864    2.6479   18.0044 C   0  0  0  0  0  0  0  0  0  0  0  0
    8.0651    3.5360   19.3883 N   0  0  0  0  0  0  0  0  0  0  0  0
    6.6822    3.8677   19.8715 C   0  0  0  0  0  0  0  0  0  0  0  0
    5.9755    4.8300   19.6327 O   0  0  0  0  0  0  0  0  0  0  0  0
    6.1083    2.5052   21.2047 C   0  0  0  0  0  0  0  0  0  0  0  0
    5.0098    1.3219   21.2971 F   0  0  0  0  0  0  0  0  0  0  0  0
    5.1337    3.4198   22.7938 C   0  0  0  0  0  0  0  0  0  0  0  0
    5.6638    3.7783   24.2855 C   0  0  0  0  0  0  0  0  0  0  0  0
    4.4726    3.8215   25.2750 C   0  0  0  0  0  0  0  0  0  0  0  0
    3.2579    4.4116   24.7174 N   0  0  0  0  0  0  0  0  0  0  0  0
    3.5663    5.3613   23.6560 C   0  0  0  0  0  0  0  0  0  0  0  0
    4.2203    4.6854   22.4304 C   0  0  0  0  0  0  0  0  0  0  0  0
    9.0084    4.3232   18.5841 C   0  0  0  0  0  0  0  0  0  0  0  0
    8.8479    4.9406   17.2051 C   0  0  0  0  0  0  0  0  0  0  0  0
   10.7426   -1.3101   14.3819 H   0  0  0  0  0  0  0  0  0  0  0  0
   10.8038   -2.4792   15.6826 H   0  0  0  0  0  0  0  0  0  0  0  0
    9.2343   -2.1460   14.8924 H   0  0  0  0  0  0  0  0  0  0  0  0
   10.6265    0.9224   14.2658 H   0  0  0  0  0  0  0  0  0  0  0  0
   11.4974    3.1506   13.7920 H   0  0  0  0  0  0  0  0  0  0  0  0
   10.6326    5.0860   15.0814 H   0  0  0  0  0  0  0  0  0  0  0  0
    7.8687    1.6292   18.3912 H   0  0  0  0  0  0  0  0  0  0  0  0
    7.0509    3.0043   17.5628 H   0  0  0  0  0  0  0  0  0  0  0  0
    6.9440    1.8585   20.9356 H   0  0  0  0  0  0  0  0  0  0  0  0
    4.3824    2.6452   23.1028 H   0  0  0  0  0  0  0  0  0  0  0  0
    6.3986    3.0888   24.7049 H   0  0  0  0  0  0  0  0  0  0  0  0
    6.1424    4.7681   24.2944 H   0  0  0  0  0  0  0  0  0  0  0  0
    4.7819    4.3825   26.1649 H   0  0  0  0  0  0  0  0  0  0  0  0
    4.2370    2.8040   25.6062 H   0  0  0  0  0  0  0  0  0  0  0  0
    2.7176    4.8622   25.4541 H   0  0  0  0  0  0  0  0  0  0  0  0
    4.2139    6.1605   24.0386 H   0  0  0  0  0  0  0  0  0  0  0  0
    2.6416    5.8535   23.3327 H   0  0  0  0  0  0  0  0  0  0  0  0
    3.3890    4.4167   21.7726 H   0  0  0  0  0  0  0  0  0  0  0  0
    4.8222    5.4330   21.9037 H   0  0  0  0  0  0  0  0  0  0  0  0
    9.0386    5.2295   19.2132 H   0  0  0  0  0  0  0  0  0  0  0  0
   10.0043    3.9150   18.7791 H   0  0  0  0  0  0  0  0  0  0  0  0
    9.4577    5.8467   17.1172 H   0  0  0  0  0  0  0  0  0  0  0  0
    7.8110    5.1817   16.9507 H   0  0  0  0  0  0  0  0  0  0  0  0
  1  2  1  0
  2  3  1  0
  3  4  2  0
  3  5  1  0
  5  6  2  0
  6  7  1  0
  7  8  2  0
  8  9  1  0
  9 10  2  0
 10 11  1  0
 11 12  1  0
 12 13  1  0
 13 14  2  0
 13 15  1  0
 15 16  1  0
 15 17  1  0
 17 18  1  0
 18 19  1  0
 19 20  1  0
 20 21  1  0
 21 22  1  0
 12 23  1  0
 23 24  1  0
 10  5  1  0
 22 17  1  0
 24  9  1  0
  1 25  1  0
  1 26  1  0
  1 27  1  0
  6 28  1  0
  7 29  1  0
  8 30  1  0
 11 31  1  0
 11 32  1  0
 15 33  1  0
 17 34  1  0
 18 35  1  0
 18 36  1  0
 19 37  1  0
 19 38  1  0
 20 39  1  0
 21 40  1  0
 21 41  1  0
 22 42  1  0
 22 43  1  0
 23 44  1  0
 23 45  1  0
 24 46  1  0
 24 47  1  0
M  END
>  <Energy>  (300) 
377.8416846544842

>  <compound_id>  (300) 
21253

>  <target_id>  (300) 
1

>  <reference_id>  (300) 
44

>  <inspiration_ids>  (300) 
[146, 44]

>  <energy_score>  (300) 
286.24657116295003

>  <distance_score>  (300) 
7.829709023700805

>  <path>  (300) 
/opt/xchem-fragalysis-2/maxwin/BulkDock/SCRATCH/511013/C21253-P44/C21253-P44.minimised.mol

>  <scratch_subdir>  (300) 
/opt/xchem-fragalysis-2/maxwin/BulkDock/SCRATCH/511013/C21253-P44

>  <fragmenstein_runtime>  (300) 
11.247677087783813

>  <fragmenstein_outcome>  (300) 
too moved

>  <fragmenstein_mode>  (300) 
expansion

>  <fragmenstein_error>  (300) 


$$$$
C21257-P146
     RDKit          3D

 41 43  0  0  0  0  0  0  0  0999 V2000
    6.0405    0.2094   24.5737 O   0  0  0  0  0  0  0  0  0  0  0  0
    5.1896    0.1701   23.6848 C   0  0  0  0  0  0  0  0  0  0  0  0
    3.9431   -0.5666   24.2701 C   0  0  0  0  0  0  0  0  0  0  0  0
    4.0025   -1.8831   23.8794 F   0  0  0  0  0  0  0  0  0  0  0  0
    4.0057   -0.6426   25.9138 C   0  0  0  0  0  0  0  0  0  0  0  0
    5.0492   -1.5057   26.6080 C   0  0  0  0  0  0  0  0  0  0  0  0
    4.6630   -1.6461   28.0916 C   0  0  0  0  0  0  0  0  0  0  0  0
    4.4861   -0.3579   28.7697 N   0  0  0  0  0  0  0  0  0  0  0  0
    3.5129    0.5038   28.1009 C   0  0  0  0  0  0  0  0  0  0  0  0
    3.8842    0.7228   26.6333 C   0  0  0  0  0  0  0  0  0  0  0  0
    5.8517    0.9087   21.8051 N   0  0  0  0  0  0  0  0  0  0  0  0
    7.7087    1.5473   21.1687 C   0  0  0  0  0  0  0  0  0  0  0  0
    7.9068    2.8512   20.3944 C   0  0  0  0  0  0  0  0  0  0  0  0
    8.4454    2.2080   19.2039 C   0  0  0  0  0  0  0  0  0  0  0  0
    9.2966    2.9423   18.3435 C   0  0  0  0  0  0  0  0  0  0  0  0
    9.7260    2.3927   17.1545 C   0  0  0  0  0  0  0  0  0  0  0  0
   10.6404    3.3254   16.0438 Cl  0  0  0  0  0  0  0  0  0  0  0  0
    9.2778    1.1372   16.8179 C   0  0  0  0  0  0  0  0  0  0  0  0
    8.4226    0.4406   17.7035 C   0  0  0  0  0  0  0  0  0  0  0  0
    8.0455    0.8665   19.0109 C   0  0  0  0  0  0  0  0  0  0  0  0
    6.7554    0.0305   20.1679 C   0  0  0  0  0  0  0  0  0  0  0  0
    2.9829   -0.0861   24.5037 H   0  0  0  0  0  0  0  0  0  0  0  0
    3.0729   -1.1539   26.1833 H   0  0  0  0  0  0  0  0  0  0  0  0
    5.0921   -2.4987   26.1472 H   0  0  0  0  0  0  0  0  0  0  0  0
    6.0513   -1.0705   26.5436 H   0  0  0  0  0  0  0  0  0  0  0  0
    3.7444   -2.2391   28.1843 H   0  0  0  0  0  0  0  0  0  0  0  0
    5.4509   -2.2061   28.6078 H   0  0  0  0  0  0  0  0  0  0  0  0
    4.1931   -0.5184   29.7321 H   0  0  0  0  0  0  0  0  0  0  0  0
    2.5088    0.0694   28.1800 H   0  0  0  0  0  0  0  0  0  0  0  0
    3.4847    1.4712   28.6138 H   0  0  0  0  0  0  0  0  0  0  0  0
    4.8312    1.2683   26.5907 H   0  0  0  0  0  0  0  0  0  0  0  0
    3.1218    1.3521   26.1623 H   0  0  0  0  0  0  0  0  0  0  0  0
    8.4284    1.9399   21.9431 H   0  0  0  0  0  0  0  0  0  0  0  0
    8.4822    0.7342   21.0576 H   0  0  0  0  0  0  0  0  0  0  0  0
    7.0656    3.5227   20.2849 H   0  0  0  0  0  0  0  0  0  0  0  0
    8.6942    3.4698   20.8529 H   0  0  0  0  0  0  0  0  0  0  0  0
    9.5647    3.9671   18.5923 H   0  0  0  0  0  0  0  0  0  0  0  0
    9.4592    0.7448   15.8194 H   0  0  0  0  0  0  0  0  0  0  0  0
    7.8082   -0.2346   17.1251 H   0  0  0  0  0  0  0  0  0  0  0  0
    6.2498    0.2572   19.2534 H   0  0  0  0  0  0  0  0  0  0  0  0
    7.2386   -0.9556   20.1801 H   0  0  0  0  0  0  0  0  0  0  0  0
  1  2  2  0
  2  3  1  0
  3  4  1  0
  3  5  1  0
  5  6  1  0
  6  7  1  0
  7  8  1  0
  8  9  1  0
  9 10  1  0
  2 11  1  0
 11 12  1  0
 12 13  1  0
 13 14  1  0
 14 15  2  0
 15 16  1  0
 16 17  1  0
 16 18  2  0
 18 19  1  0
 19 20  2  0
 20 21  1  0
 10  5  1  0
 21 11  1  0
 20 14  1  0
  3 22  1  0
  5 23  1  0
  6 24  1  0
  6 25  1  0
  7 26  1  0
  7 27  1  0
  8 28  1  0
  9 29  1  0
  9 30  1  0
 10 31  1  0
 10 32  1  0
 12 33  1  0
 12 34  1  0
 13 35  1  0
 13 36  1  0
 15 37  1  0
 18 38  1  0
 19 39  1  0
 21 40  1  0
 21 41  1  0
M  END
>  <Energy>  (301) 
806.20432307384965

>  <compound_id>  (301) 
21257

>  <target_id>  (301) 
1

>  <reference_id>  (301) 
146

>  <inspiration_ids>  (301) 
[146, 44]

>  <energy_score>  (301) 
737.2539028149971

>  <distance_score>  (301) 
7.713695436506165

>  <path>  (301) 
/opt/xchem-fragalysis-2/maxwin/BulkDock/SCRATCH/511013/C21257-P146/C21257-P146.minimised.mol

>  <scratch_subdir>  (301) 
/opt/xchem-fragalysis-2/maxwin/BulkDock/SCRATCH/511013/C21257-P146

>  <fragmenstein_runtime>  (301) 
7.320258617401123

>  <fragmenstein_outcome>  (301) 
too moved

>  <fragmenstein_mode>  (301) 
expansion

>  <fragmenstein_error>  (301) 


$$$$
C21257-P44
     RDKit          3D

 41 43  0  0  0  0  0  0  0  0999 V2000
    6.5203    6.3872   16.9966 O   0  0  0  0  0  0  0  0  0  0  0  0
    6.7156    5.9350   18.0979 C   0  0  0  0  0  0  0  0  0  0  0  0
    5.4836    5.7298   19.0757 C   0  0  0  0  0  0  0  0  0  0  0  0
    5.8517    4.9633   20.1305 F   0  0  0  0  0  0  0  0  0  0  0  0
    4.6779    6.9197   19.6591 C   0  0  0  0  0  0  0  0  0  0  0  0
    3.1426    6.7143   19.5391 C   0  0  0  0  0  0  0  0  0  0  0  0
    2.5409    5.7636   20.5798 C   0  0  0  0  0  0  0  0  0  0  0  0
    2.8418    6.1989   21.9417 N   0  0  0  0  0  0  0  0  0  0  0  0
    4.2885    6.2572   22.1455 C   0  0  0  0  0  0  0  0  0  0  0  0
    4.9858    7.2044   21.1515 C   0  0  0  0  0  0  0  0  0  0  0  0
    7.9469    5.5018   18.7340 N   0  0  0  0  0  0  0  0  0  0  0  0
    9.3794    5.5851   18.2653 C   0  0  0  0  0  0  0  0  0  0  0  0
    9.7189    5.4491   16.7585 C   0  0  0  0  0  0  0  0  0  0  0  0
    9.6302    4.0080   16.4078 C   0  0  0  0  0  0  0  0  0  0  0  0
   10.3216    3.3969   15.3543 C   0  0  0  0  0  0  0  0  0  0  0  0
   10.2323    2.0156   15.1801 C   0  0  0  0  0  0  0  0  0  0  0  0
   11.0987    1.2619   13.8999 Cl  0  0  0  0  0  0  0  0  0  0  0  0
    9.4560    1.2465   16.0427 C   0  0  0  0  0  0  0  0  0  0  0  0
    8.7737    1.8719   17.0924 C   0  0  0  0  0  0  0  0  0  0  0  0
    8.8317    3.2676   17.2644 C   0  0  0  0  0  0  0  0  0  0  0  0
    8.1881    3.9616   18.4680 C   0  0  0  0  0  0  0  0  0  0  0  0
    4.7949    5.1327   18.4668 H   0  0  0  0  0  0  0  0  0  0  0  0
    4.9403    7.8068   19.0689 H   0  0  0  0  0  0  0  0  0  0  0  0
    2.8867    6.3666   18.5310 H   0  0  0  0  0  0  0  0  0  0  0  0
    2.6601    7.6954   19.6502 H   0  0  0  0  0  0  0  0  0  0  0  0
    1.4527    5.7457   20.4527 H   0  0  0  0  0  0  0  0  0  0  0  0
    2.8923    4.7442   20.4079 H   0  0  0  0  0  0  0  0  0  0  0  0
    2.4481    5.5219   22.5950 H   0  0  0  0  0  0  0  0  0  0  0  0
    4.7061    5.2493   22.0895 H   0  0  0  0  0  0  0  0  0  0  0  0
    4.4823    6.6163   23.1626 H   0  0  0  0  0  0  0  0  0  0  0  0
    6.0691    7.1834   21.3202 H   0  0  0  0  0  0  0  0  0  0  0  0
    4.6607    8.2299   21.3744 H   0  0  0  0  0  0  0  0  0  0  0  0
    9.5955    6.6448   18.4737 H   0  0  0  0  0  0  0  0  0  0  0  0
   10.0872    5.0709   18.9393 H   0  0  0  0  0  0  0  0  0  0  0  0
   10.7395    5.8120   16.5911 H   0  0  0  0  0  0  0  0  0  0  0  0
    9.0338    6.0365   16.1393 H   0  0  0  0  0  0  0  0  0  0  0  0
   10.9385    3.9954   14.6905 H   0  0  0  0  0  0  0  0  0  0  0  0
    9.3756    0.1739   15.9005 H   0  0  0  0  0  0  0  0  0  0  0  0
    8.1865    1.2703   17.7828 H   0  0  0  0  0  0  0  0  0  0  0  0
    8.6809    3.5726   19.3736 H   0  0  0  0  0  0  0  0  0  0  0  0
    7.1816    3.5399   18.4986 H   0  0  0  0  0  0  0  0  0  0  0  0
  1  2  2  0
  2  3  1  0
  3  4  1  0
  3  5  1  0
  5  6  1  0
  6  7  1  0
  7  8  1  0
  8  9  1  0
  9 10  1  0
  2 11  1  0
 11 12  1  0
 12 13  1  0
 13 14  1  0
 14 15  2  0
 15 16  1  0
 16 17  1  0
 16 18  2  0
 18 19  1  0
 19 20  2  0
 20 21  1  0
 10  5  1  0
 21 11  1  0
 20 14  1  0
  3 22  1  0
  5 23  1  0
  6 24  1  0
  6 25  1  0
  7 26  1  0
  7 27  1  0
  8 28  1  0
  9 29  1  0
  9 30  1  0
 10 31  1  0
 10 32  1  0
 12 33  1  0
 12 34  1  0
 13 35  1  0
 13 36  1  0
 15 37  1  0
 18 38  1  0
 19 39  1  0
 21 40  1  0
 21 41  1  0
M  END
>  <Energy>  (302) 
133.8713948071219

>  <compound_id>  (302) 
21257

>  <target_id>  (302) 
1

>  <reference_id>  (302) 
44

>  <inspiration_ids>  (302) 
[146, 44]

>  <energy_score>  (302) 
64.9209745482741

>  <distance_score>  (302) 
8.70926644585532

>  <path>  (302) 
/opt/xchem-fragalysis-2/maxwin/BulkDock/SCRATCH/511013/C21257-P44/C21257-P44.minimised.mol

>  <scratch_subdir>  (302) 
/opt/xchem-fragalysis-2/maxwin/BulkDock/SCRATCH/511013/C21257-P44

>  <fragmenstein_runtime>  (302) 
5.507909774780273

>  <fragmenstein_outcome>  (302) 
too moved

>  <fragmenstein_mode>  (302) 
expansion

>  <fragmenstein_error>  (302) 


$$$$
C21258-P146
     RDKit          3D

 41 43  0  0  0  0  0  0  0  0999 V2000
    8.3120    1.5972   21.5410 O   0  0  0  0  0  0  0  0  0  0  0  0
    7.3943    1.5288   20.7924 C   0  0  0  0  0  0  0  0  0  0  0  0
    5.5181    0.9916   21.7810 C   0  0  0  0  0  0  0  0  0  0  0  0
    4.3667    0.8113   21.1331 F   0  0  0  0  0  0  0  0  0  0  0  0
    3.8761    1.9194   22.8058 C   0  0  0  0  0  0  0  0  0  0  0  0
    2.4926    2.6552   21.9771 C   0  0  0  0  0  0  0  0  0  0  0  0
    1.6289    3.6082   22.8587 C   0  0  0  0  0  0  0  0  0  0  0  0
    1.3535    3.2746   24.2402 N   0  0  0  0  0  0  0  0  0  0  0  0
    2.5443    2.9449   24.9873 C   0  0  0  0  0  0  0  0  0  0  0  0
    3.3672    1.7538   24.4792 C   0  0  0  0  0  0  0  0  0  0  0  0
    7.6415    1.9605   19.3148 N   0  0  0  0  0  0  0  0  0  0  0  0
    8.8005    2.5661   18.6339 C   0  0  0  0  0  0  0  0  0  0  0  0
    8.7093    3.1111   17.2257 C   0  0  0  0  0  0  0  0  0  0  0  0
    9.2018    1.9580   16.4500 C   0  0  0  0  0  0  0  0  0  0  0  0
   10.0872    2.0891   15.3646 C   0  0  0  0  0  0  0  0  0  0  0  0
   10.5608    0.9573   14.7210 C   0  0  0  0  0  0  0  0  0  0  0  0
   10.0720   -0.2657   15.1234 C   0  0  0  0  0  0  0  0  0  0  0  0
   10.5305   -1.3883   14.5571 F   0  0  0  0  0  0  0  0  0  0  0  0
    9.1466   -0.3695   16.1676 C   0  0  0  0  0  0  0  0  0  0  0  0
    8.7620    0.7300   16.9443 C   0  0  0  0  0  0  0  0  0  0  0  0
    8.1087    0.6972   18.4217 C   0  0  0  0  0  0  0  0  0  0  0  0
    5.4935   -0.0169   21.4776 H   0  0  0  0  0  0  0  0  0  0  0  0
    4.0285    3.0491   22.8670 H   0  0  0  0  0  0  0  0  0  0  0  0
    2.0025    1.9529   21.3037 H   0  0  0  0  0  0  0  0  0  0  0  0
    2.7669    3.4148   21.2266 H   0  0  0  0  0  0  0  0  0  0  0  0
    0.6743    3.7747   22.3435 H   0  0  0  0  0  0  0  0  0  0  0  0
    2.1169    4.5932   22.8612 H   0  0  0  0  0  0  0  0  0  0  0  0
    0.6248    2.5843   24.3442 H   0  0  0  0  0  0  0  0  0  0  0  0
    3.1928    3.8288   25.0414 H   0  0  0  0  0  0  0  0  0  0  0  0
    2.2470    2.7421   26.0235 H   0  0  0  0  0  0  0  0  0  0  0  0
    2.9233    0.7944   24.6781 H   0  0  0  0  0  0  0  0  0  0  0  0
    4.1356    1.6756   25.2472 H   0  0  0  0  0  0  0  0  0  0  0  0
    9.7810    2.1804   18.9358 H   0  0  0  0  0  0  0  0  0  0  0  0
    8.8354    3.5022   19.2202 H   0  0  0  0  0  0  0  0  0  0  0  0
    9.3685    3.9775   17.1035 H   0  0  0  0  0  0  0  0  0  0  0  0
    7.6900    3.3909   16.9412 H   0  0  0  0  0  0  0  0  0  0  0  0
   10.4348    3.0713   15.0525 H   0  0  0  0  0  0  0  0  0  0  0  0
   11.2805    1.0220   13.9129 H   0  0  0  0  0  0  0  0  0  0  0  0
    8.7938   -1.3662   16.3088 H   0  0  0  0  0  0  0  0  0  0  0  0
    8.8917    0.2685   19.0531 H   0  0  0  0  0  0  0  0  0  0  0  0
    7.3691   -0.0849   18.5788 H   0  0  0  0  0  0  0  0  0  0  0  0
  1  2  2  0
  2  3  1  0
  3  4  1  0
  3  5  1  0
  5  6  1  0
  6  7  1  0
  7  8  1  0
  8  9  1  0
  9 10  1  0
  2 11  1  0
 11 12  1  0
 12 13  1  0
 13 14  1  0
 14 15  2  0
 15 16  1  0
 16 17  2  0
 17 18  1  0
 17 19  1  0
 19 20  2  0
 20 21  1  0
 10  5  1  0
 21 11  1  0
 20 14  1  0
  3 22  1  0
  5 23  1  0
  6 24  1  0
  6 25  1  0
  7 26  1  0
  7 27  1  0
  8 28  1  0
  9 29  1  0
  9 30  1  0
 10 31  1  0
 10 32  1  0
 12 33  1  0
 12 34  1  0
 13 35  1  0
 13 36  1  0
 15 37  1  0
 16 38  1  0
 19 39  1  0
 21 40  1  0
 21 41  1  0
M  END
>  <Energy>  (303) 
564.84392081205556

>  <compound_id>  (303) 
21258

>  <target_id>  (303) 
1

>  <reference_id>  (303) 
146

>  <inspiration_ids>  (303) 
[146, 44]

>  <energy_score>  (303) 
489.382101950088

>  <distance_score>  (303) 
6.679114025602792

>  <path>  (303) 
/opt/xchem-fragalysis-2/maxwin/BulkDock/SCRATCH/511013/C21258-P146/C21258-P146.minimised.mol

>  <scratch_subdir>  (303) 
/opt/xchem-fragalysis-2/maxwin/BulkDock/SCRATCH/511013/C21258-P146

>  <fragmenstein_runtime>  (303) 
5.530102252960205

>  <fragmenstein_outcome>  (303) 
too moved

>  <fragmenstein_mode>  (303) 
expansion

>  <fragmenstein_error>  (303) 


$$$$
C21258-P44
     RDKit          3D

 41 43  0  0  0  0  0  0  0  0999 V2000
    4.4496    5.9936   17.6347 O   0  0  0  0  0  0  0  0  0  0  0  0
    5.4887    5.8538   18.2345 C   0  0  0  0  0  0  0  0  0  0  0  0
    5.4261    6.0363   19.8010 C   0  0  0  0  0  0  0  0  0  0  0  0
    5.8680    7.2771   20.1724 F   0  0  0  0  0  0  0  0  0  0  0  0
    4.0188    5.7838   20.4721 C   0  0  0  0  0  0  0  0  0  0  0  0
    2.9608    6.8807   20.2664 C   0  0  0  0  0  0  0  0  0  0  0  0
    1.6354    6.5120   20.9611 C   0  0  0  0  0  0  0  0  0  0  0  0
    1.7951    6.2783   22.3972 N   0  0  0  0  0  0  0  0  0  0  0  0
    2.7803    5.2350   22.6504 C   0  0  0  0  0  0  0  0  0  0  0  0
    4.1261    5.5757   22.0030 C   0  0  0  0  0  0  0  0  0  0  0  0
    6.8540    5.6304   17.7357 N   0  0  0  0  0  0  0  0  0  0  0  0
    7.3939    5.6202   16.3244 C   0  0  0  0  0  0  0  0  0  0  0  0
    8.9091    5.4666   16.0567 C   0  0  0  0  0  0  0  0  0  0  0  0
    9.2123    4.0181   16.1917 C   0  0  0  0  0  0  0  0  0  0  0  0
   10.1839    3.3159   15.4634 C   0  0  0  0  0  0  0  0  0  0  0  0
   10.2851    1.9299   15.6046 C   0  0  0  0  0  0  0  0  0  0  0  0
    9.4755    1.2860   16.5322 C   0  0  0  0  0  0  0  0  0  0  0  0
    9.5482   -0.0455   16.6765 F   0  0  0  0  0  0  0  0  0  0  0  0
    8.5766    2.0009   17.3150 C   0  0  0  0  0  0  0  0  0  0  0  0
    8.3816    3.3725   17.0949 C   0  0  0  0  0  0  0  0  0  0  0  0
    7.1362    4.1044   17.6203 C   0  0  0  0  0  0  0  0  0  0  0  0
    6.1359    5.3236   20.2117 H   0  0  0  0  0  0  0  0  0  0  0  0
    3.6060    4.8780   20.0181 H   0  0  0  0  0  0  0  0  0  0  0  0
    3.3300    7.8361   20.6606 H   0  0  0  0  0  0  0  0  0  0  0  0
    2.7669    7.0329   19.1998 H   0  0  0  0  0  0  0  0  0  0  0  0
    1.1987    5.6258   20.4839 H   0  0  0  0  0  0  0  0  0  0  0  0
    0.9240    7.3328   20.8184 H   0  0  0  0  0  0  0  0  0  0  0  0
    0.8975    6.0107   22.7992 H   0  0  0  0  0  0  0  0  0  0  0  0
    2.9185    5.1312   23.7321 H   0  0  0  0  0  0  0  0  0  0  0  0
    2.4123    4.2706   22.2803 H   0  0  0  0  0  0  0  0  0  0  0  0
    4.8066    4.7596   22.2262 H   0  0  0  0  0  0  0  0  0  0  0  0
    4.5474    6.4755   22.4698 H   0  0  0  0  0  0  0  0  0  0  0  0
    6.7484    5.0623   15.6204 H   0  0  0  0  0  0  0  0  0  0  0  0
    7.1783    6.6578   16.0228 H   0  0  0  0  0  0  0  0  0  0  0  0
    9.1349    5.8084   15.0406 H   0  0  0  0  0  0  0  0  0  0  0  0
    9.4983    6.0532   16.7696 H   0  0  0  0  0  0  0  0  0  0  0  0
   10.8192    3.8365   14.7523 H   0  0  0  0  0  0  0  0  0  0  0  0
   10.9892    1.3583   15.0097 H   0  0  0  0  0  0  0  0  0  0  0  0
    7.9692    1.4612   18.0342 H   0  0  0  0  0  0  0  0  0  0  0  0
    7.1173    3.8045   18.6747 H   0  0  0  0  0  0  0  0  0  0  0  0
    6.2498    3.6611   17.1451 H   0  0  0  0  0  0  0  0  0  0  0  0
  1  2  2  0
  2  3  1  0
  3  4  1  0
  3  5  1  0
  5  6  1  0
  6  7  1  0
  7  8  1  0
  8  9  1  0
  9 10  1  0
  2 11  1  0
 11 12  1  0
 12 13  1  0
 13 14  1  0
 14 15  2  0
 15 16  1  0
 16 17  2  0
 17 18  1  0
 17 19  1  0
 19 20  2  0
 20 21  1  0
 10  5  1  0
 21 11  1  0
 20 14  1  0
  3 22  1  0
  5 23  1  0
  6 24  1  0
  6 25  1  0
  7 26  1  0
  7 27  1  0
  8 28  1  0
  9 29  1  0
  9 30  1  0
 10 31  1  0
 10 32  1  0
 12 33  1  0
 12 34  1  0
 13 35  1  0
 13 36  1  0
 15 37  1  0
 16 38  1  0
 19 39  1  0
 21 40  1  0
 21 41  1  0
M  END
>  <Energy>  (304) 
128.91014004102644

>  <compound_id>  (304) 
21258

>  <target_id>  (304) 
1

>  <reference_id>  (304) 
44

>  <inspiration_ids>  (304) 
[146, 44]

>  <energy_score>  (304) 
53.44832117905986

>  <distance_score>  (304) 
8.420886891112609

>  <path>  (304) 
/opt/xchem-fragalysis-2/maxwin/BulkDock/SCRATCH/511013/C21258-P44/C21258-P44.minimised.mol

>  <scratch_subdir>  (304) 
/opt/xchem-fragalysis-2/maxwin/BulkDock/SCRATCH/511013/C21258-P44

>  <fragmenstein_runtime>  (304) 
6.219054222106934

>  <fragmenstein_outcome>  (304) 
too moved

>  <fragmenstein_mode>  (304) 
expansion

>  <fragmenstein_error>  (304) 


$$$$
C21259-P146
     RDKit          3D

 50 52  0  0  0  0  0  0  0  0999 V2000
    8.2441    8.3075   17.1028 C   0  0  0  0  0  0  0  0  0  0  0  0
    8.1494    7.0638   17.9763 C   0  0  0  0  0  0  0  0  0  0  0  0
    9.4056    6.8959   18.8370 C   0  0  0  0  0  0  0  0  0  0  0  0
    9.5529    5.5272   19.5885 C   0  0  0  0  0  0  0  0  0  0  0  0
    9.6452    4.3473   18.5842 C   0  0  0  0  0  0  0  0  0  0  0  0
   10.3337    4.4030   17.3601 C   0  0  0  0  0  0  0  0  0  0  0  0
   10.3871    3.2979   16.4974 C   0  0  0  0  0  0  0  0  0  0  0  0
    9.7388    2.1176   16.8332 C   0  0  0  0  0  0  0  0  0  0  0  0
    9.1093    2.0246   18.0664 C   0  0  0  0  0  0  0  0  0  0  0  0
    9.1255    3.1143   18.9476 C   0  0  0  0  0  0  0  0  0  0  0  0
    8.6039    3.0299   20.3282 C   0  0  0  0  0  0  0  0  0  0  0  0
    9.1043    4.2454   21.1268 C   0  0  0  0  0  0  0  0  0  0  0  0
    8.5275    5.6207   20.8236 N   0  0  0  0  0  0  0  0  0  0  0  0
    7.0606    5.5710   20.8551 C   0  0  0  0  0  0  0  0  0  0  0  0
    6.2678    5.3570   19.9753 O   0  0  0  0  0  0  0  0  0  0  0  0
    6.5751    5.8903   22.3314 C   0  0  0  0  0  0  0  0  0  0  0  0
    6.8800    4.8329   23.1506 F   0  0  0  0  0  0  0  0  0  0  0  0
    5.0863    6.2869   22.6373 C   0  0  0  0  0  0  0  0  0  0  0  0
    4.0446    5.2314   22.2498 C   0  0  0  0  0  0  0  0  0  0  0  0
    2.6352    5.4938   22.7859 C   0  0  0  0  0  0  0  0  0  0  0  0
    2.6311    5.6531   24.2411 N   0  0  0  0  0  0  0  0  0  0  0  0
    3.4912    6.7724   24.6151 C   0  0  0  0  0  0  0  0  0  0  0  0
    4.9380    6.5645   24.1592 C   0  0  0  0  0  0  0  0  0  0  0  0
    8.3748    9.2067   17.7132 H   0  0  0  0  0  0  0  0  0  0  0  0
    9.0876    8.2360   16.4086 H   0  0  0  0  0  0  0  0  0  0  0  0
    7.3295    8.4266   16.5134 H   0  0  0  0  0  0  0  0  0  0  0  0
    7.2683    7.1696   18.6135 H   0  0  0  0  0  0  0  0  0  0  0  0
    7.9887    6.1935   17.3328 H   0  0  0  0  0  0  0  0  0  0  0  0
   10.2921    7.0613   18.2123 H   0  0  0  0  0  0  0  0  0  0  0  0
    9.4244    7.7061   19.5793 H   0  0  0  0  0  0  0  0  0  0  0  0
   10.5612    5.6337   20.0296 H   0  0  0  0  0  0  0  0  0  0  0  0
   10.8384    5.3125   17.0447 H   0  0  0  0  0  0  0  0  0  0  0  0
   10.9211    3.3763   15.5538 H   0  0  0  0  0  0  0  0  0  0  0  0
    9.7323    1.2790   16.1446 H   0  0  0  0  0  0  0  0  0  0  0  0
    8.6003    1.1069   18.3504 H   0  0  0  0  0  0  0  0  0  0  0  0
    7.5208    3.0145   20.3050 H   0  0  0  0  0  0  0  0  0  0  0  0
    8.9626    2.1123   20.8076 H   0  0  0  0  0  0  0  0  0  0  0  0
    8.7449    4.0583   22.1463 H   0  0  0  0  0  0  0  0  0  0  0  0
   10.1942    4.2394   21.3034 H   0  0  0  0  0  0  0  0  0  0  0  0
    7.2010    6.7259   22.6719 H   0  0  0  0  0  0  0  0  0  0  0  0
    4.8571    7.2075   22.0854 H   0  0  0  0  0  0  0  0  0  0  0  0
    4.3707    4.2790   22.6541 H   0  0  0  0  0  0  0  0  0  0  0  0
    3.9933    5.1470   21.1601 H   0  0  0  0  0  0  0  0  0  0  0  0
    1.9841    4.6530   22.5214 H   0  0  0  0  0  0  0  0  0  0  0  0
    2.2076    6.3841   22.3092 H   0  0  0  0  0  0  0  0  0  0  0  0
    2.9829    4.7962   24.6675 H   0  0  0  0  0  0  0  0  0  0  0  0
    3.4689    6.8861   25.7046 H   0  0  0  0  0  0  0  0  0  0  0  0
    3.0951    7.7060   24.1972 H   0  0  0  0  0  0  0  0  0  0  0  0
    5.3598    5.7258   24.7290 H   0  0  0  0  0  0  0  0  0  0  0  0
    5.5293    7.4493   24.4244 H   0  0  0  0  0  0  0  0  0  0  0  0
  1  2  1  0
  2  3  1  0
  3  4  1  0
  4  5  1  0
  5  6  2  0
  6  7  1  0
  7  8  2  0
  8  9  1  0
  9 10  2  0
 10 11  1  0
 11 12  1  0
 12 13  1  0
 13 14  1  0
 14 15  2  0
 14 16  1  0
 16 17  1  0
 16 18  1  0
 18 19  1  0
 19 20  1  0
 20 21  1  0
 21 22  1  0
 22 23  1  0
 13  4  1  0
 23 18  1  0
 10  5  1  0
  1 24  1  0
  1 25  1  0
  1 26  1  0
  2 27  1  0
  2 28  1  0
  3 29  1  0
  3 30  1  0
  4 31  1  0
  6 32  1  0
  7 33  1  0
  8 34  1  0
  9 35  1  0
 11 36  1  0
 11 37  1  0
 12 38  1  0
 12 39  1  0
 16 40  1  0
 18 41  1  0
 19 42  1  0
 19 43  1  0
 20 44  1  0
 20 45  1  0
 21 46  1  0
 22 47  1  0
 22 48  1  0
 23 49  1  0
 23 50  1  0
M  END
>  <Energy>  (305) 
137.09266996533239

>  <compound_id>  (305) 
21259

>  <target_id>  (305) 
1

>  <reference_id>  (305) 
146

>  <inspiration_ids>  (305) 
[146, 44]

>  <energy_score>  (305) 
25.133096157203568

>  <distance_score>  (305) 
8.503904991234567

>  <path>  (305) 
/opt/xchem-fragalysis-2/maxwin/BulkDock/SCRATCH/511013/C21259-P146/C21259-P146.minimised.mol

>  <scratch_subdir>  (305) 
/opt/xchem-fragalysis-2/maxwin/BulkDock/SCRATCH/511013/C21259-P146

>  <fragmenstein_runtime>  (305) 
14.869768857955933

>  <fragmenstein_outcome>  (305) 
too moved

>  <fragmenstein_mode>  (305) 
expansion

>  <fragmenstein_error>  (305) 


$$$$
C21259-P44
     RDKit          3D

 50 52  0  0  0  0  0  0  0  0999 V2000
    9.3085   -0.3640   15.4705 C   0  0  0  0  0  0  0  0  0  0  0  0
    7.9853   -1.0276   15.7429 C   0  0  0  0  0  0  0  0  0  0  0  0
    6.9476   -0.3602   16.7670 C   0  0  0  0  0  0  0  0  0  0  0  0
    6.8697    0.4717   18.4210 C   0  0  0  0  0  0  0  0  0  0  0  0
    7.8033    1.8604   17.6289 C   0  0  0  0  0  0  0  0  0  0  0  0
    7.2954    3.0449   16.9426 C   0  0  0  0  0  0  0  0  0  0  0  0
    8.1067    3.8735   16.1739 C   0  0  0  0  0  0  0  0  0  0  0  0
    9.4132    3.5065   16.0204 C   0  0  0  0  0  0  0  0  0  0  0  0
    9.8618    2.4438   16.7895 C   0  0  0  0  0  0  0  0  0  0  0  0
    9.1213    1.8617   17.8358 C   0  0  0  0  0  0  0  0  0  0  0  0
    8.9285    2.5042   19.1999 C   0  0  0  0  0  0  0  0  0  0  0  0
    7.5876    1.8684   19.9714 C   0  0  0  0  0  0  0  0  0  0  0  0
    6.4968    0.4818   20.2115 N   0  0  0  0  0  0  0  0  0  0  0  0
    4.7590    0.7988   21.2730 C   0  0  0  0  0  0  0  0  0  0  0  0
    3.6593    1.1202   20.9187 O   0  0  0  0  0  0  0  0  0  0  0  0
    4.8063    0.7385   23.2520 C   0  0  0  0  0  0  0  0  0  0  0  0
    4.5340    2.1610   23.3292 F   0  0  0  0  0  0  0  0  0  0  0  0
    3.9782    0.5470   24.7519 C   0  0  0  0  0  0  0  0  0  0  0  0
    3.3178    1.8571   25.2996 C   0  0  0  0  0  0  0  0  0  0  0  0
    2.6624    1.6864   26.6753 C   0  0  0  0  0  0  0  0  0  0  0  0
    3.6132    1.1846   27.6625 N   0  0  0  0  0  0  0  0  0  0  0  0
    4.2101   -0.0714   27.2239 C   0  0  0  0  0  0  0  0  0  0  0  0
    4.9335    0.0716   25.8797 C   0  0  0  0  0  0  0  0  0  0  0  0
    9.9000   -0.9757   14.7823 H   0  0  0  0  0  0  0  0  0  0  0  0
    9.1685    0.6060   14.9909 H   0  0  0  0  0  0  0  0  0  0  0  0
    9.8957   -0.2778   16.3769 H   0  0  0  0  0  0  0  0  0  0  0  0
    8.1650   -2.0813   15.8671 H   0  0  0  0  0  0  0  0  0  0  0  0
    7.4732   -1.1075   14.7772 H   0  0  0  0  0  0  0  0  0  0  0  0
    5.9962   -0.8454   16.8292 H   0  0  0  0  0  0  0  0  0  0  0  0
    6.8805    0.4369   16.0265 H   0  0  0  0  0  0  0  0  0  0  0  0
    7.7805   -0.0815   18.7128 H   0  0  0  0  0  0  0  0  0  0  0  0
    6.2435    3.3268   16.9516 H   0  0  0  0  0  0  0  0  0  0  0  0
    7.6821    4.7144   15.6362 H   0  0  0  0  0  0  0  0  0  0  0  0
   10.0570    3.9888   15.2949 H   0  0  0  0  0  0  0  0  0  0  0  0
   10.7769    1.9804   16.4430 H   0  0  0  0  0  0  0  0  0  0  0  0
    9.8149    2.5450   19.8429 H   0  0  0  0  0  0  0  0  0  0  0  0
    8.7277    3.5864   19.0867 H   0  0  0  0  0  0  0  0  0  0  0  0
    7.0773    2.7695   20.1685 H   0  0  0  0  0  0  0  0  0  0  0  0
    8.4248    1.2732   20.3091 H   0  0  0  0  0  0  0  0  0  0  0  0
    5.6483    0.2991   23.7083 H   0  0  0  0  0  0  0  0  0  0  0  0
    3.2481   -0.2526   24.7094 H   0  0  0  0  0  0  0  0  0  0  0  0
    2.5850    2.2489   24.5859 H   0  0  0  0  0  0  0  0  0  0  0  0
    4.0898    2.6328   25.4058 H   0  0  0  0  0  0  0  0  0  0  0  0
    1.7997    1.0156   26.6368 H   0  0  0  0  0  0  0  0  0  0  0  0
    2.2885    2.6598   27.0117 H   0  0  0  0  0  0  0  0  0  0  0  0
    3.1338    1.0465   28.5509 H   0  0  0  0  0  0  0  0  0  0  0  0
    3.4439   -0.8537   27.1597 H   0  0  0  0  0  0  0  0  0  0  0  0
    4.9331   -0.3977   27.9796 H   0  0  0  0  0  0  0  0  0  0  0  0
    5.3586   -0.9033   25.6140 H   0  0  0  0  0  0  0  0  0  0  0  0
    5.7705    0.7741   25.9841 H   0  0  0  0  0  0  0  0  0  0  0  0
  1  2  1  0
  2  3  1  0
  3  4  1  0
  4  5  1  0
  5  6  2  0
  6  7  1  0
  7  8  2  0
  8  9  1  0
  9 10  2  0
 10 11  1  0
 11 12  1  0
 12 13  1  0
 13 14  1  0
 14 15  2  0
 14 16  1  0
 16 17  1  0
 16 18  1  0
 18 19  1  0
 19 20  1  0
 20 21  1  0
 21 22  1  0
 22 23  1  0
 13  4  1  0
 23 18  1  0
 10  5  1  0
  1 24  1  0
  1 25  1  0
  1 26  1  0
  2 27  1  0
  2 28  1  0
  3 29  1  0
  3 30  1  0
  4 31  1  0
  6 32  1  0
  7 33  1  0
  8 34  1  0
  9 35  1  0
 11 36  1  0
 11 37  1  0
 12 38  1  0
 12 39  1  0
 16 40  1  0
 18 41  1  0
 19 42  1  0
 19 43  1  0
 20 44  1  0
 20 45  1  0
 21 46  1  0
 22 47  1  0
 22 48  1  0
 23 49  1  0
 23 50  1  0
M  END
>  <Energy>  (306) 
784.31211546416512

>  <compound_id>  (306) 
21259

>  <target_id>  (306) 
1

>  <reference_id>  (306) 
44

>  <inspiration_ids>  (306) 
[146, 44]

>  <energy_score>  (306) 
672.3525416560325

>  <distance_score>  (306) 
7.320266513615793

>  <path>  (306) 
/opt/xchem-fragalysis-2/maxwin/BulkDock/SCRATCH/511013/C21259-P44/C21259-P44.minimised.mol

>  <scratch_subdir>  (306) 
/opt/xchem-fragalysis-2/maxwin/BulkDock/SCRATCH/511013/C21259-P44

>  <fragmenstein_runtime>  (306) 
11.109416484832764

>  <fragmenstein_outcome>  (306) 
too moved

>  <fragmenstein_mode>  (306) 
expansion

>  <fragmenstein_error>  (306) 


$$$$
C21260-P146
     RDKit          3D

 45 47  0  0  0  0  0  0  0  0999 V2000
   14.4176   -0.6887   15.0727 N   0  0  0  0  0  0  0  0  0  0  0  0
   13.6562    0.1123   14.7060 C   0  0  0  0  0  0  0  0  0  0  0  0
   12.6696    1.1196   14.2200 C   0  0  0  0  0  0  0  0  0  0  0  0
   11.3145    1.0377   14.9186 C   0  0  0  0  0  0  0  0  0  0  0  0
   10.6326   -0.1887   14.8441 C   0  0  0  0  0  0  0  0  0  0  0  0
    9.4717   -0.4015   15.5762 C   0  0  0  0  0  0  0  0  0  0  0  0
    9.0113    0.5828   16.4490 C   0  0  0  0  0  0  0  0  0  0  0  0
    9.6362    1.8305   16.5312 C   0  0  0  0  0  0  0  0  0  0  0  0
   10.7373    2.0763   15.7015 C   0  0  0  0  0  0  0  0  0  0  0  0
   11.1691    3.5024   15.7743 C   0  0  0  0  0  0  0  0  0  0  0  0
   10.8075    4.0385   17.1741 C   0  0  0  0  0  0  0  0  0  0  0  0
    9.3809    4.3631   17.5627 N   0  0  0  0  0  0  0  0  0  0  0  0
    8.8440    4.9782   18.7731 C   0  0  0  0  0  0  0  0  0  0  0  0
    9.3945    5.2964   19.7984 O   0  0  0  0  0  0  0  0  0  0  0  0
    7.3142    5.3346   18.6445 C   0  0  0  0  0  0  0  0  0  0  0  0
    6.6230    4.3057   18.0828 F   0  0  0  0  0  0  0  0  0  0  0  0
    6.5684    5.8305   19.9636 C   0  0  0  0  0  0  0  0  0  0  0  0
    6.8385    5.0326   21.2559 C   0  0  0  0  0  0  0  0  0  0  0  0
    6.0158    5.5299   22.4538 C   0  0  0  0  0  0  0  0  0  0  0  0
    4.5846    5.5091   22.1918 N   0  0  0  0  0  0  0  0  0  0  0  0
    4.2624    6.3324   21.0293 C   0  0  0  0  0  0  0  0  0  0  0  0
    5.0330    5.9293   19.7612 C   0  0  0  0  0  0  0  0  0  0  0  0
    9.2896    2.8227   17.6651 C   0  0  0  0  0  0  0  0  0  0  0  0
   13.0998    2.1204   14.3138 H   0  0  0  0  0  0  0  0  0  0  0  0
   12.5010    0.9679   13.1460 H   0  0  0  0  0  0  0  0  0  0  0  0
   11.0027   -0.9950   14.2117 H   0  0  0  0  0  0  0  0  0  0  0  0
    8.9434   -1.3443   15.4734 H   0  0  0  0  0  0  0  0  0  0  0  0
    8.1519    0.3759   17.0741 H   0  0  0  0  0  0  0  0  0  0  0  0
   12.2440    3.6165   15.6172 H   0  0  0  0  0  0  0  0  0  0  0  0
   10.6507    4.0801   15.0001 H   0  0  0  0  0  0  0  0  0  0  0  0
   11.2455    5.0500   17.1824 H   0  0  0  0  0  0  0  0  0  0  0  0
   11.3786    3.5709   17.9959 H   0  0  0  0  0  0  0  0  0  0  0  0
    7.2636    6.1578   17.9208 H   0  0  0  0  0  0  0  0  0  0  0  0
    6.9430    6.8468   20.1537 H   0  0  0  0  0  0  0  0  0  0  0  0
    6.6559    3.9758   21.0769 H   0  0  0  0  0  0  0  0  0  0  0  0
    7.8901    5.1120   21.5444 H   0  0  0  0  0  0  0  0  0  0  0  0
    6.3329    6.5454   22.7225 H   0  0  0  0  0  0  0  0  0  0  0  0
    6.2300    4.8998   23.3223 H   0  0  0  0  0  0  0  0  0  0  0  0
    4.0752    5.8559   23.0029 H   0  0  0  0  0  0  0  0  0  0  0  0
    4.4666    7.3860   21.2574 H   0  0  0  0  0  0  0  0  0  0  0  0
    3.1878    6.2569   20.8292 H   0  0  0  0  0  0  0  0  0  0  0  0
    4.6359    4.9764   19.4009 H   0  0  0  0  0  0  0  0  0  0  0  0
    4.8246    6.6622   18.9720 H   0  0  0  0  0  0  0  0  0  0  0  0
    9.7464    2.4870   18.6111 H   0  0  0  0  0  0  0  0  0  0  0  0
    8.2185    2.6619   17.8459 H   0  0  0  0  0  0  0  0  0  0  0  0
  1  2  3  0
  2  3  1  0
  3  4  1  0
  4  5  2  0
  5  6  1  0
  6  7  2  0
  7  8  1  0
  8  9  2  0
  9 10  1  0
 10 11  1  0
 11 12  1  0
 12 13  1  0
 13 14  2  0
 13 15  1  0
 15 16  1  0
 15 17  1  0
 17 18  1  0
 18 19  1  0
 19 20  1  0
 20 21  1  0
 21 22  1  0
 12 23  1  0
  9  4  1  0
 22 17  1  0
 23  8  1  0
  3 24  1  0
  3 25  1  0
  5 26  1  0
  6 27  1  0
  7 28  1  0
 10 29  1  0
 10 30  1  0
 11 31  1  0
 11 32  1  0
 15 33  1  0
 17 34  1  0
 18 35  1  0
 18 36  1  0
 19 37  1  0
 19 38  1  0
 20 39  1  0
 21 40  1  0
 21 41  1  0
 22 42  1  0
 22 43  1  0
 23 44  1  0
 23 45  1  0
M  END
>  <Energy>  (307) 
149.9044168571269

>  <compound_id>  (307) 
21260

>  <target_id>  (307) 
1

>  <reference_id>  (307) 
146

>  <inspiration_ids>  (307) 
[146, 44]

>  <energy_score>  (307) 
52.409924171145974

>  <distance_score>  (307) 
7.915186020850724

>  <path>  (307) 
/opt/xchem-fragalysis-2/maxwin/BulkDock/SCRATCH/511013/C21260-P146/C21260-P146.minimised.mol

>  <scratch_subdir>  (307) 
/opt/xchem-fragalysis-2/maxwin/BulkDock/SCRATCH/511013/C21260-P146

>  <fragmenstein_runtime>  (307) 
7.745481252670288

>  <fragmenstein_outcome>  (307) 
too moved

>  <fragmenstein_mode>  (307) 
expansion

>  <fragmenstein_error>  (307) 


$$$$
C21260-P44
     RDKit          3D

 45 47  0  0  0  0  0  0  0  0999 V2000
   13.0272    1.1754   14.5962 N   0  0  0  0  0  0  0  0  0  0  0  0
   11.8758    1.2623   14.7342 C   0  0  0  0  0  0  0  0  0  0  0  0
   10.4058    1.2666   14.8674 C   0  0  0  0  0  0  0  0  0  0  0  0
    9.7179    2.5778   15.2355 C   0  0  0  0  0  0  0  0  0  0  0  0
    9.6107    3.6181   14.3237 C   0  0  0  0  0  0  0  0  0  0  0  0
    8.8241    4.7486   14.6301 C   0  0  0  0  0  0  0  0  0  0  0  0
    8.1097    4.8730   15.8400 C   0  0  0  0  0  0  0  0  0  0  0  0
    8.2409    3.8919   16.8013 C   0  0  0  0  0  0  0  0  0  0  0  0
    9.0732    2.8020   16.4710 C   0  0  0  0  0  0  0  0  0  0  0  0
    9.3412    2.0431   17.6897 C   0  0  0  0  0  0  0  0  0  0  0  0
    9.4209    3.1895   18.7672 C   0  0  0  0  0  0  0  0  0  0  0  0
    8.2726    3.1569   19.6062 N   0  0  0  0  0  0  0  0  0  0  0  0
    7.4315    2.0577   20.0103 C   0  0  0  0  0  0  0  0  0  0  0  0
    7.4510    0.8940   19.6494 O   0  0  0  0  0  0  0  0  0  0  0  0
    6.0978    2.2944   21.4857 C   0  0  0  0  0  0  0  0  0  0  0  0
    4.8984    1.3714   22.2504 F   0  0  0  0  0  0  0  0  0  0  0  0
    5.0739    3.5740   22.7335 C   0  0  0  0  0  0  0  0  0  0  0  0
    5.6067    3.8522   24.2624 C   0  0  0  0  0  0  0  0  0  0  0  0
    4.6191    4.6831   25.0957 C   0  0  0  0  0  0  0  0  0  0  0  0
    3.4087    3.9555   25.4466 N   0  0  0  0  0  0  0  0  0  0  0  0
    3.1011    2.9110   24.4785 C   0  0  0  0  0  0  0  0  0  0  0  0
    3.4544    3.3091   23.0462 C   0  0  0  0  0  0  0  0  0  0  0  0
    7.6164    3.9602   18.2968 C   0  0  0  0  0  0  0  0  0  0  0  0
    9.9744    0.9434   13.9099 H   0  0  0  0  0  0  0  0  0  0  0  0
   10.1079    0.4827   15.5735 H   0  0  0  0  0  0  0  0  0  0  0  0
   10.0910    3.5614   13.3494 H   0  0  0  0  0  0  0  0  0  0  0  0
    8.7362    5.5428   13.8894 H   0  0  0  0  0  0  0  0  0  0  0  0
    7.5015    5.7548   16.0194 H   0  0  0  0  0  0  0  0  0  0  0  0
   10.2395    1.4838   17.5522 H   0  0  0  0  0  0  0  0  0  0  0  0
    8.5523    1.3045   17.8134 H   0  0  0  0  0  0  0  0  0  0  0  0
   10.1383    2.8520   19.5223 H   0  0  0  0  0  0  0  0  0  0  0  0
    9.8297    4.1880   18.5226 H   0  0  0  0  0  0  0  0  0  0  0  0
    5.6557    1.4638   21.0688 H   0  0  0  0  0  0  0  0  0  0  0  0
    5.0063    4.5325   22.1719 H   0  0  0  0  0  0  0  0  0  0  0  0
    5.7788    2.9163   24.8058 H   0  0  0  0  0  0  0  0  0  0  0  0
    6.5596    4.3922   24.3009 H   0  0  0  0  0  0  0  0  0  0  0  0
    4.3527    5.5949   24.5482 H   0  0  0  0  0  0  0  0  0  0  0  0
    5.1083    5.0119   26.0201 H   0  0  0  0  0  0  0  0  0  0  0  0
    3.5055    3.5289   26.3672 H   0  0  0  0  0  0  0  0  0  0  0  0
    3.6118    1.9779   24.7436 H   0  0  0  0  0  0  0  0  0  0  0  0
    2.0261    2.7188   24.5411 H   0  0  0  0  0  0  0  0  0  0  0  0
    2.9744    2.5644   22.4122 H   0  0  0  0  0  0  0  0  0  0  0  0
    2.9383    4.2517   22.8098 H   0  0  0  0  0  0  0  0  0  0  0  0
    6.6238    3.5907   18.1249 H   0  0  0  0  0  0  0  0  0  0  0  0
    7.5763    5.0123   18.6082 H   0  0  0  0  0  0  0  0  0  0  0  0
  1  2  3  0
  2  3  1  0
  3  4  1  0
  4  5  2  0
  5  6  1  0
  6  7  2  0
  7  8  1  0
  8  9  2  0
  9 10  1  0
 10 11  1  0
 11 12  1  0
 12 13  1  0
 13 14  2  0
 13 15  1  0
 15 16  1  0
 15 17  1  0
 17 18  1  0
 18 19  1  0
 19 20  1  0
 20 21  1  0
 21 22  1  0
 12 23  1  0
  9  4  1  0
 22 17  1  0
 23  8  1  0
  3 24  1  0
  3 25  1  0
  5 26  1  0
  6 27  1  0
  7 28  1  0
 10 29  1  0
 10 30  1  0
 11 31  1  0
 11 32  1  0
 15 33  1  0
 17 34  1  0
 18 35  1  0
 18 36  1  0
 19 37  1  0
 19 38  1  0
 20 39  1  0
 21 40  1  0
 21 41  1  0
 22 42  1  0
 22 43  1  0
 23 44  1  0
 23 45  1  0
M  END
>  <Energy>  (308) 
484.57837601758388

>  <compound_id>  (308) 
21260

>  <target_id>  (308) 
1

>  <reference_id>  (308) 
44

>  <inspiration_ids>  (308) 
[146, 44]

>  <energy_score>  (308) 
387.0838833316015

>  <distance_score>  (308) 
7.792160539921996

>  <path>  (308) 
/opt/xchem-fragalysis-2/maxwin/BulkDock/SCRATCH/511013/C21260-P44/C21260-P44.minimised.mol

>  <scratch_subdir>  (308) 
/opt/xchem-fragalysis-2/maxwin/BulkDock/SCRATCH/511013/C21260-P44

>  <fragmenstein_runtime>  (308) 
6.681652069091797

>  <fragmenstein_outcome>  (308) 
too moved

>  <fragmenstein_mode>  (308) 
expansion

>  <fragmenstein_error>  (308) 


$$$$
C21261-P146
     RDKit          3D

 49 51  0  0  0  0  0  0  0  0999 V2000
    2.6303    1.5296   20.7825 O   0  0  0  0  0  0  0  0  0  0  0  0
    3.4573    1.4966   21.6884 C   0  0  0  0  0  0  0  0  0  0  0  0
    3.0448    2.2360   23.2905 C   0  0  0  0  0  0  0  0  0  0  0  0
    1.8174    3.0704   23.8147 C   0  0  0  0  0  0  0  0  0  0  0  0
    1.2231    4.0771   22.8290 C   0  0  0  0  0  0  0  0  0  0  0  0
    0.0098    4.7660   23.4685 C   0  0  0  0  0  0  0  0  0  0  0  0
    0.3443    5.4208   24.7360 N   0  0  0  0  0  0  0  0  0  0  0  0
    0.9420    4.5051   25.7030 C   0  0  0  0  0  0  0  0  0  0  0  0
    2.1789    3.8149   25.1235 C   0  0  0  0  0  0  0  0  0  0  0  0
    5.2629    0.9049   21.7127 N   0  0  0  0  0  0  0  0  0  0  0  0
    6.5589    0.2466   20.2274 C   0  0  0  0  0  0  0  0  0  0  0  0
    7.9866    1.3814   19.9668 C   0  0  0  0  0  0  0  0  0  0  0  0
    8.9179    1.4203   18.7472 N   0  0  0  0  0  0  0  0  0  0  0  0
    9.5673    2.7608   18.5912 C   0  0  0  0  0  0  0  0  0  0  0  0
   10.2629    3.1091   17.2179 C   0  0  0  0  0  0  0  0  0  0  0  0
   10.3902    1.9703   16.2361 C   0  0  0  0  0  0  0  0  0  0  0  0
   11.3261    1.9531   15.1980 C   0  0  0  0  0  0  0  0  0  0  0  0
   11.5037    0.8001   14.4302 C   0  0  0  0  0  0  0  0  0  0  0  0
   10.6968   -0.3130   14.6469 C   0  0  0  0  0  0  0  0  0  0  0  0
    9.6805   -0.2605   15.5966 C   0  0  0  0  0  0  0  0  0  0  0  0
    9.5395    0.8767   16.4020 C   0  0  0  0  0  0  0  0  0  0  0  0
    8.4460    1.0421   17.4218 C   0  0  0  0  0  0  0  0  0  0  0  0
    3.4150    1.6461   24.1324 H   0  0  0  0  0  0  0  0  0  0  0  0
    3.6519    3.1328   23.1533 H   0  0  0  0  0  0  0  0  0  0  0  0
    1.0007    2.4377   24.1376 H   0  0  0  0  0  0  0  0  0  0  0  0
    1.9742    4.8269   22.5507 H   0  0  0  0  0  0  0  0  0  0  0  0
    0.9091    3.5791   21.9053 H   0  0  0  0  0  0  0  0  0  0  0  0
   -0.7959    4.0383   23.6267 H   0  0  0  0  0  0  0  0  0  0  0  0
   -0.3757    5.5214   22.7750 H   0  0  0  0  0  0  0  0  0  0  0  0
   -0.5041    5.8267   25.1339 H   0  0  0  0  0  0  0  0  0  0  0  0
    1.2303    5.0691   26.5966 H   0  0  0  0  0  0  0  0  0  0  0  0
    0.2035    3.7583   26.0194 H   0  0  0  0  0  0  0  0  0  0  0  0
    2.5703    3.1056   25.8625 H   0  0  0  0  0  0  0  0  0  0  0  0
    2.9671    4.5548   24.9347 H   0  0  0  0  0  0  0  0  0  0  0  0
    5.6116    0.9512   22.6345 H   0  0  0  0  0  0  0  0  0  0  0  0
    7.1198   -0.7434   20.1523 H   0  0  0  0  0  0  0  0  0  0  0  0
    6.2796    0.3101   19.1971 H   0  0  0  0  0  0  0  0  0  0  0  0
    7.6172    2.4011   20.1187 H   0  0  0  0  0  0  0  0  0  0  0  0
    8.6498    1.1834   20.8149 H   0  0  0  0  0  0  0  0  0  0  0  0
   10.3078    2.8802   19.3917 H   0  0  0  0  0  0  0  0  0  0  0  0
    8.8224    3.5513   18.7571 H   0  0  0  0  0  0  0  0  0  0  0  0
    9.6803    3.8991   16.7267 H   0  0  0  0  0  0  0  0  0  0  0  0
   11.2543    3.5238   17.4330 H   0  0  0  0  0  0  0  0  0  0  0  0
   11.9823    2.8056   15.0380 H   0  0  0  0  0  0  0  0  0  0  0  0
   12.2768    0.7717   13.6672 H   0  0  0  0  0  0  0  0  0  0  0  0
   10.8329   -1.2050   14.0432 H   0  0  0  0  0  0  0  0  0  0  0  0
    9.0028   -1.1018   15.6890 H   0  0  0  0  0  0  0  0  0  0  0  0
    7.9386    0.0943   17.4649 H   0  0  0  0  0  0  0  0  0  0  0  0
    7.8327    1.8423   16.9915 H   0  0  0  0  0  0  0  0  0  0  0  0
  1  2  2  0
  2  3  1  0
  3  4  1  0
  4  5  1  0
  5  6  1  0
  6  7  1  0
  7  8  1  0
  8  9  1  0
  2 10  1  0
 10 11  1  0
 11 12  1  0
 12 13  1  0
 13 14  1  0
 14 15  1  0
 15 16  1  0
 16 17  2  0
 17 18  1  0
 18 19  2  0
 19 20  1  0
 20 21  2  0
 21 22  1  0
  9  4  1  0
 22 13  1  0
 21 16  1  0
  3 23  1  0
  3 24  1  0
  4 25  1  0
  5 26  1  0
  5 27  1  0
  6 28  1  0
  6 29  1  0
  7 30  1  0
  8 31  1  0
  8 32  1  0
  9 33  1  0
  9 34  1  0
 10 35  1  0
 11 36  1  0
 11 37  1  0
 12 38  1  0
 12 39  1  0
 14 40  1  0
 14 41  1  0
 15 42  1  0
 15 43  1  0
 17 44  1  0
 18 45  1  0
 19 46  1  0
 20 47  1  0
 22 48  1  0
 22 49  1  0
M  END
>  <Energy>  (309) 
313.93189348145967

>  <compound_id>  (309) 
21261

>  <target_id>  (309) 
1

>  <reference_id>  (309) 
146

>  <inspiration_ids>  (309) 
[146, 44]

>  <energy_score>  (309) 
229.17817620104688

>  <distance_score>  (309) 
5.816608419506747

>  <path>  (309) 
/opt/xchem-fragalysis-2/maxwin/BulkDock/SCRATCH/511013/C21261-P146/C21261-P146.minimised.mol

>  <scratch_subdir>  (309) 
/opt/xchem-fragalysis-2/maxwin/BulkDock/SCRATCH/511013/C21261-P146

>  <fragmenstein_runtime>  (309) 
6.181948900222778

>  <fragmenstein_outcome>  (309) 
too moved

>  <fragmenstein_mode>  (309) 
expansion

>  <fragmenstein_error>  (309) 


$$$$
C21261-P44
     RDKit          3D

 49 51  0  0  0  0  0  0  0  0999 V2000
    4.9084   -0.0266   22.8857 O   0  0  0  0  0  0  0  0  0  0  0  0
    4.9248    1.1711   22.5952 C   0  0  0  0  0  0  0  0  0  0  0  0
    3.9940    2.3671   23.3732 C   0  0  0  0  0  0  0  0  0  0  0  0
    3.5315    2.0855   24.8190 C   0  0  0  0  0  0  0  0  0  0  0  0
    2.3300    2.9911   25.1796 C   0  0  0  0  0  0  0  0  0  0  0  0
    1.8390    2.7430   26.6064 C   0  0  0  0  0  0  0  0  0  0  0  0
    2.9157    2.9392   27.5734 N   0  0  0  0  0  0  0  0  0  0  0  0
    4.0631    2.0791   27.2835 C   0  0  0  0  0  0  0  0  0  0  0  0
    4.6198    2.3096   25.8725 C   0  0  0  0  0  0  0  0  0  0  0  0
    6.0107    2.1014   21.3589 N   0  0  0  0  0  0  0  0  0  0  0  0
    7.3468    1.4691   20.0583 C   0  0  0  0  0  0  0  0  0  0  0  0
    7.7892    2.5625   18.8577 C   0  0  0  0  0  0  0  0  0  0  0  0
    8.8671    2.1613   17.8511 N   0  0  0  0  0  0  0  0  0  0  0  0
    9.2576    3.3501   17.0408 C   0  0  0  0  0  0  0  0  0  0  0  0
   10.2375    3.1033   15.8501 C   0  0  0  0  0  0  0  0  0  0  0  0
   10.5143    1.6550   15.5292 C   0  0  0  0  0  0  0  0  0  0  0  0
   11.6269    1.2675   14.7665 C   0  0  0  0  0  0  0  0  0  0  0  0
   11.8515   -0.0795   14.4812 C   0  0  0  0  0  0  0  0  0  0  0  0
   10.9246   -1.0340   14.8874 C   0  0  0  0  0  0  0  0  0  0  0  0
    9.7897   -0.6418   15.5986 C   0  0  0  0  0  0  0  0  0  0  0  0
    9.6187    0.6870   15.9980 C   0  0  0  0  0  0  0  0  0  0  0  0
    8.4625    1.1331   16.8731 C   0  0  0  0  0  0  0  0  0  0  0  0
    4.5466    3.3153   23.3605 H   0  0  0  0  0  0  0  0  0  0  0  0
    3.0933    2.5014   22.7629 H   0  0  0  0  0  0  0  0  0  0  0  0
    3.2440    1.0354   24.9029 H   0  0  0  0  0  0  0  0  0  0  0  0
    2.6245    4.0446   25.0764 H   0  0  0  0  0  0  0  0  0  0  0  0
    1.5027    2.8379   24.4793 H   0  0  0  0  0  0  0  0  0  0  0  0
    1.4274    1.7323   26.7052 H   0  0  0  0  0  0  0  0  0  0  0  0
    1.0273    3.4428   26.8331 H   0  0  0  0  0  0  0  0  0  0  0  0
    2.5684    2.7388   28.5103 H   0  0  0  0  0  0  0  0  0  0  0  0
    4.8522    2.2890   28.0139 H   0  0  0  0  0  0  0  0  0  0  0  0
    3.7837    1.0258   27.4101 H   0  0  0  0  0  0  0  0  0  0  0  0
    5.4563    1.6230   25.6993 H   0  0  0  0  0  0  0  0  0  0  0  0
    5.0205    3.3285   25.7953 H   0  0  0  0  0  0  0  0  0  0  0  0
    5.8412    3.1456   21.4080 H   0  0  0  0  0  0  0  0  0  0  0  0
    8.4066    1.3117   20.3069 H   0  0  0  0  0  0  0  0  0  0  0  0
    6.9923    0.5331   19.5874 H   0  0  0  0  0  0  0  0  0  0  0  0
    6.9484    2.9630   18.3035 H   0  0  0  0  0  0  0  0  0  0  0  0
    8.2064    3.4151   19.4040 H   0  0  0  0  0  0  0  0  0  0  0  0
    9.6940    4.1132   17.6973 H   0  0  0  0  0  0  0  0  0  0  0  0
    8.3527    3.8138   16.6212 H   0  0  0  0  0  0  0  0  0  0  0  0
    9.8066    3.5630   14.9509 H   0  0  0  0  0  0  0  0  0  0  0  0
   11.1809    3.6270   16.0394 H   0  0  0  0  0  0  0  0  0  0  0  0
   12.3309    2.0136   14.4085 H   0  0  0  0  0  0  0  0  0  0  0  0
   12.7212   -0.3791   13.9038 H   0  0  0  0  0  0  0  0  0  0  0  0
   11.0554   -2.0754   14.6038 H   0  0  0  0  0  0  0  0  0  0  0  0
    9.0293   -1.3776   15.8196 H   0  0  0  0  0  0  0  0  0  0  0  0
    8.0671    0.2757   17.4104 H   0  0  0  0  0  0  0  0  0  0  0  0
    7.7228    1.5194   16.1687 H   0  0  0  0  0  0  0  0  0  0  0  0
  1  2  2  0
  2  3  1  0
  3  4  1  0
  4  5  1  0
  5  6  1  0
  6  7  1  0
  7  8  1  0
  8  9  1  0
  2 10  1  0
 10 11  1  0
 11 12  1  0
 12 13  1  0
 13 14  1  0
 14 15  1  0
 15 16  1  0
 16 17  2  0
 17 18  1  0
 18 19  2  0
 19 20  1  0
 20 21  2  0
 21 22  1  0
  9  4  1  0
 22 13  1  0
 21 16  1  0
  3 23  1  0
  3 24  1  0
  4 25  1  0
  5 26  1  0
  5 27  1  0
  6 28  1  0
  6 29  1  0
  7 30  1  0
  8 31  1  0
  8 32  1  0
  9 33  1  0
  9 34  1  0
 10 35  1  0
 11 36  1  0
 11 37  1  0
 12 38  1  0
 12 39  1  0
 14 40  1  0
 14 41  1  0
 15 42  1  0
 15 43  1  0
 17 44  1  0
 18 45  1  0
 19 46  1  0
 20 47  1  0
 22 48  1  0
 22 49  1  0
M  END
>  <Energy>  (310) 
206.47780477979342

>  <compound_id>  (310) 
21261

>  <target_id>  (310) 
1

>  <reference_id>  (310) 
44

>  <inspiration_ids>  (310) 
[146, 44]

>  <energy_score>  (310) 
121.72408749938228

>  <distance_score>  (310) 
5.504135060234969

>  <path>  (310) 
/opt/xchem-fragalysis-2/maxwin/BulkDock/SCRATCH/511013/C21261-P44/C21261-P44.minimised.mol

>  <scratch_subdir>  (310) 
/opt/xchem-fragalysis-2/maxwin/BulkDock/SCRATCH/511013/C21261-P44

>  <fragmenstein_runtime>  (310) 
7.095414876937866

>  <fragmenstein_outcome>  (310) 
too moved

>  <fragmenstein_mode>  (310) 
expansion

>  <fragmenstein_error>  (310) 


$$$$
C21262-P146
     RDKit          3D

 49 51  0  0  0  0  0  0  0  0999 V2000
    6.9692    5.5698   21.3843 O   0  0  0  0  0  0  0  0  0  0  0  0
    6.3890    5.4581   20.3429 C   0  0  0  0  0  0  0  0  0  0  0  0
    4.8565    5.7775   20.2544 C   0  0  0  0  0  0  0  0  0  0  0  0
    3.9862    6.0153   21.5466 C   0  0  0  0  0  0  0  0  0  0  0  0
    2.5014    5.6792   21.2670 C   0  0  0  0  0  0  0  0  0  0  0  0
    1.5832    5.9132   22.4784 C   0  0  0  0  0  0  0  0  0  0  0  0
    2.1559    5.5550   23.7735 N   0  0  0  0  0  0  0  0  0  0  0  0
    3.2866    4.6532   23.6426 C   0  0  0  0  0  0  0  0  0  0  0  0
    4.4271    5.2991   22.8382 C   0  0  0  0  0  0  0  0  0  0  0  0
    6.8451    4.9566   19.0483 N   0  0  0  0  0  0  0  0  0  0  0  0
    8.1231    4.3440   18.6471 C   0  0  0  0  0  0  0  0  0  0  0  0
    8.3470    4.2332   17.1087 C   0  0  0  0  0  0  0  0  0  0  0  0
    9.4583    3.3231   16.6714 N   0  0  0  0  0  0  0  0  0  0  0  0
   10.0437    3.7871   15.3980 C   0  0  0  0  0  0  0  0  0  0  0  0
   11.2713    2.9589   14.9747 C   0  0  0  0  0  0  0  0  0  0  0  0
   11.0470    1.4694   15.0555 C   0  0  0  0  0  0  0  0  0  0  0  0
   11.9603    0.5393   14.5135 C   0  0  0  0  0  0  0  0  0  0  0  0
   13.4569    1.0191   13.7917 Cl  0  0  0  0  0  0  0  0  0  0  0  0
   11.6945   -0.8302   14.5590 C   0  0  0  0  0  0  0  0  0  0  0  0
   10.5047   -1.2846   15.1143 C   0  0  0  0  0  0  0  0  0  0  0  0
    9.6122   -0.3754   15.6847 C   0  0  0  0  0  0  0  0  0  0  0  0
    9.9018    0.9986   15.7270 C   0  0  0  0  0  0  0  0  0  0  0  0
    8.9621    1.9371   16.4815 C   0  0  0  0  0  0  0  0  0  0  0  0
    4.3905    4.9671   19.6825 H   0  0  0  0  0  0  0  0  0  0  0  0
    4.7666    6.6748   19.6270 H   0  0  0  0  0  0  0  0  0  0  0  0
    4.0412    7.0938   21.7538 H   0  0  0  0  0  0  0  0  0  0  0  0
    2.4210    4.6277   20.9610 H   0  0  0  0  0  0  0  0  0  0  0  0
    2.1384    6.2762   20.4214 H   0  0  0  0  0  0  0  0  0  0  0  0
    0.6539    5.3526   22.3208 H   0  0  0  0  0  0  0  0  0  0  0  0
    1.3050    6.9724   22.5187 H   0  0  0  0  0  0  0  0  0  0  0  0
    1.4382    5.1550   24.3750 H   0  0  0  0  0  0  0  0  0  0  0  0
    3.6593    4.4001   24.6414 H   0  0  0  0  0  0  0  0  0  0  0  0
    2.9696    3.7113   23.1787 H   0  0  0  0  0  0  0  0  0  0  0  0
    4.9401    6.0307   23.4769 H   0  0  0  0  0  0  0  0  0  0  0  0
    5.1695    4.5357   22.6126 H   0  0  0  0  0  0  0  0  0  0  0  0
    6.1076    5.0841   18.3646 H   0  0  0  0  0  0  0  0  0  0  0  0
    8.9315    4.9120   19.1196 H   0  0  0  0  0  0  0  0  0  0  0  0
    8.1248    3.3452   19.0973 H   0  0  0  0  0  0  0  0  0  0  0  0
    7.4075    3.9564   16.6125 H   0  0  0  0  0  0  0  0  0  0  0  0
    8.5612    5.2559   16.7699 H   0  0  0  0  0  0  0  0  0  0  0  0
    9.2885    3.7738   14.6021 H   0  0  0  0  0  0  0  0  0  0  0  0
   10.3737    4.8289   15.4984 H   0  0  0  0  0  0  0  0  0  0  0  0
   12.1152    3.2475   15.6052 H   0  0  0  0  0  0  0  0  0  0  0  0
   11.5191    3.2348   13.9427 H   0  0  0  0  0  0  0  0  0  0  0  0
   12.3925   -1.5407   14.1245 H   0  0  0  0  0  0  0  0  0  0  0  0
   10.2702   -2.3436   15.0668 H   0  0  0  0  0  0  0  0  0  0  0  0
    8.6711   -0.7293   16.0900 H   0  0  0  0  0  0  0  0  0  0  0  0
    8.7875    1.5074   17.4751 H   0  0  0  0  0  0  0  0  0  0  0  0
    8.0119    1.9469   15.9425 H   0  0  0  0  0  0  0  0  0  0  0  0
  1  2  2  0
  2  3  1  0
  3  4  1  0
  4  5  1  0
  5  6  1  0
  6  7  1  0
  7  8  1  0
  8  9  1  0
  2 10  1  0
 10 11  1  0
 11 12  1  0
 12 13  1  0
 13 14  1  0
 14 15  1  0
 15 16  1  0
 16 17  2  0
 17 18  1  0
 17 19  1  0
 19 20  2  0
 20 21  1  0
 21 22  2  0
 22 23  1  0
  9  4  1  0
 23 13  1  0
 22 16  1  0
  3 24  1  0
  3 25  1  0
  4 26  1  0
  5 27  1  0
  5 28  1  0
  6 29  1  0
  6 30  1  0
  7 31  1  0
  8 32  1  0
  8 33  1  0
  9 34  1  0
  9 35  1  0
 10 36  1  0
 11 37  1  0
 11 38  1  0
 12 39  1  0
 12 40  1  0
 14 41  1  0
 14 42  1  0
 15 43  1  0
 15 44  1  0
 19 45  1  0
 20 46  1  0
 21 47  1  0
 23 48  1  0
 23 49  1  0
M  END
>  <Energy>  (311) 
62.236749283346796

>  <compound_id>  (311) 
21262

>  <target_id>  (311) 
1

>  <reference_id>  (311) 
146

>  <inspiration_ids>  (311) 
[146, 44]

>  <energy_score>  (311) 
-31.025668748168528

>  <distance_score>  (311) 
6.404578600189067

>  <path>  (311) 
/opt/xchem-fragalysis-2/maxwin/BulkDock/SCRATCH/511013/C21262-P146/C21262-P146.minimised.mol

>  <scratch_subdir>  (311) 
/opt/xchem-fragalysis-2/maxwin/BulkDock/SCRATCH/511013/C21262-P146

>  <fragmenstein_runtime>  (311) 
8.415650844573975

>  <fragmenstein_outcome>  (311) 
too moved

>  <fragmenstein_mode>  (311) 
expansion

>  <fragmenstein_error>  (311) 


$$$$
C21262-P44
     RDKit          3D

 49 51  0  0  0  0  0  0  0  0999 V2000
    5.1215    3.0886   23.3431 O   0  0  0  0  0  0  0  0  0  0  0  0
    4.3875    2.1766   22.9136 C   0  0  0  0  0  0  0  0  0  0  0  0
    3.0453    2.2073   23.6255 C   0  0  0  0  0  0  0  0  0  0  0  0
    2.7542    3.3811   24.6264 C   0  0  0  0  0  0  0  0  0  0  0  0
    1.2368    3.6657   24.7938 C   0  0  0  0  0  0  0  0  0  0  0  0
    0.6455    3.1462   26.1070 C   0  0  0  0  0  0  0  0  0  0  0  0
    1.3264    3.6226   27.3054 N   0  0  0  0  0  0  0  0  0  0  0  0
    2.7299    3.9755   27.0909 C   0  0  0  0  0  0  0  0  0  0  0  0
    3.3972    3.1324   26.0051 C   0  0  0  0  0  0  0  0  0  0  0  0
    4.6664    0.9453   21.5002 N   0  0  0  0  0  0  0  0  0  0  0  0
    6.3403    0.5612   20.2498 C   0  0  0  0  0  0  0  0  0  0  0  0
    7.5048    1.3511   18.9601 C   0  0  0  0  0  0  0  0  0  0  0  0
    8.5079    0.8997   17.8359 N   0  0  0  0  0  0  0  0  0  0  0  0
    9.1646    2.2116   17.3688 C   0  0  0  0  0  0  0  0  0  0  0  0
   10.0073    2.1963   16.0331 C   0  0  0  0  0  0  0  0  0  0  0  0
   10.3169    0.8039   15.5480 C   0  0  0  0  0  0  0  0  0  0  0  0
   11.4968    0.3906   14.9056 C   0  0  0  0  0  0  0  0  0  0  0  0
   12.7436    1.4828   14.4342 Cl  0  0  0  0  0  0  0  0  0  0  0  0
   11.6981   -0.9585   14.6156 C   0  0  0  0  0  0  0  0  0  0  0  0
   10.6696   -1.8677   14.8289 C   0  0  0  0  0  0  0  0  0  0  0  0
    9.4330   -1.4227   15.3048 C   0  0  0  0  0  0  0  0  0  0  0  0
    9.2792   -0.1208   15.7625 C   0  0  0  0  0  0  0  0  0  0  0  0
    8.0506    0.3795   16.5240 C   0  0  0  0  0  0  0  0  0  0  0  0
    2.3875    2.3973   22.7926 H   0  0  0  0  0  0  0  0  0  0  0  0
    2.9602    1.3180   24.2314 H   0  0  0  0  0  0  0  0  0  0  0  0
    3.1920    4.2971   24.2064 H   0  0  0  0  0  0  0  0  0  0  0  0
    0.6621    3.2753   23.9479 H   0  0  0  0  0  0  0  0  0  0  0  0
    1.0922    4.7549   24.7674 H   0  0  0  0  0  0  0  0  0  0  0  0
    0.6725    2.0547   26.1263 H   0  0  0  0  0  0  0  0  0  0  0  0
   -0.4139    3.4218   26.1641 H   0  0  0  0  0  0  0  0  0  0  0  0
    0.8351    4.4310   27.6896 H   0  0  0  0  0  0  0  0  0  0  0  0
    2.8032    5.0368   26.8226 H   0  0  0  0  0  0  0  0  0  0  0  0
    3.2675    3.8499   28.0368 H   0  0  0  0  0  0  0  0  0  0  0  0
    4.4660    3.3720   25.9597 H   0  0  0  0  0  0  0  0  0  0  0  0
    3.3296    2.0728   26.2836 H   0  0  0  0  0  0  0  0  0  0  0  0
    3.9232    0.2970   21.4673 H   0  0  0  0  0  0  0  0  0  0  0  0
    6.8588    1.4815   20.7435 H   0  0  0  0  0  0  0  0  0  0  0  0
    6.7590   -0.4785   20.2746 H   0  0  0  0  0  0  0  0  0  0  0  0
    7.1027    2.3283   18.6697 H   0  0  0  0  0  0  0  0  0  0  0  0
    8.3039    1.6428   19.6572 H   0  0  0  0  0  0  0  0  0  0  0  0
    8.3828    2.9663   17.1912 H   0  0  0  0  0  0  0  0  0  0  0  0
    9.7255    2.6116   18.2084 H   0  0  0  0  0  0  0  0  0  0  0  0
   10.8958    2.8205   16.1232 H   0  0  0  0  0  0  0  0  0  0  0  0
    9.4065    2.6749   15.2465 H   0  0  0  0  0  0  0  0  0  0  0  0
   12.6259   -1.2975   14.1636 H   0  0  0  0  0  0  0  0  0  0  0  0
   10.8005   -2.9065   14.5381 H   0  0  0  0  0  0  0  0  0  0  0  0
    8.5892   -2.1050   15.3048 H   0  0  0  0  0  0  0  0  0  0  0  0
    7.2805   -0.3843   16.5583 H   0  0  0  0  0  0  0  0  0  0  0  0
    7.6254    1.1713   15.8978 H   0  0  0  0  0  0  0  0  0  0  0  0
  1  2  2  0
  2  3  1  0
  3  4  1  0
  4  5  1  0
  5  6  1  0
  6  7  1  0
  7  8  1  0
  8  9  1  0
  2 10  1  0
 10 11  1  0
 11 12  1  0
 12 13  1  0
 13 14  1  0
 14 15  1  0
 15 16  1  0
 16 17  2  0
 17 18  1  0
 17 19  1  0
 19 20  2  0
 20 21  1  0
 21 22  2  0
 22 23  1  0
  9  4  1  0
 23 13  1  0
 22 16  1  0
  3 24  1  0
  3 25  1  0
  4 26  1  0
  5 27  1  0
  5 28  1  0
  6 29  1  0
  6 30  1  0
  7 31  1  0
  8 32  1  0
  8 33  1  0
  9 34  1  0
  9 35  1  0
 10 36  1  0
 11 37  1  0
 11 38  1  0
 12 39  1  0
 12 40  1  0
 14 41  1  0
 14 42  1  0
 15 43  1  0
 15 44  1  0
 19 45  1  0
 20 46  1  0
 21 47  1  0
 23 48  1  0
 23 49  1  0
M  END
>  <Energy>  (312) 
398.69679185743325

>  <compound_id>  (312) 
21262

>  <target_id>  (312) 
1

>  <reference_id>  (312) 
44

>  <inspiration_ids>  (312) 
[146, 44]

>  <energy_score>  (312) 
305.4343738259154

>  <distance_score>  (312) 
4.978097844145934

>  <path>  (312) 
/opt/xchem-fragalysis-2/maxwin/BulkDock/SCRATCH/511013/C21262-P44/C21262-P44.minimised.mol

>  <scratch_subdir>  (312) 
/opt/xchem-fragalysis-2/maxwin/BulkDock/SCRATCH/511013/C21262-P44

>  <fragmenstein_runtime>  (312) 
9.661203861236572

>  <fragmenstein_outcome>  (312) 
too moved

>  <fragmenstein_mode>  (312) 
expansion

>  <fragmenstein_error>  (312) 


$$$$
C21263-P146
     RDKit          3D

 48 50  0  0  0  0  0  0  0  0999 V2000
    5.5483    0.9356   22.2810 O   0  0  0  0  0  0  0  0  0  0  0  0
    5.1317    0.7877   21.2636 C   0  0  0  0  0  0  0  0  0  0  0  0
    3.1717    1.3764   21.2867 C   0  0  0  0  0  0  0  0  0  0  0  0
    2.7067    2.7644   22.4885 C   0  0  0  0  0  0  0  0  0  0  0  0
    2.6763    2.6600   24.0490 C   0  0  0  0  0  0  0  0  0  0  0  0
    1.4860    3.2730   24.8030 C   0  0  0  0  0  0  0  0  0  0  0  0
    0.9556    4.4516   24.1396 N   0  0  0  0  0  0  0  0  0  0  0  0
    0.4253    4.0667   22.8411 C   0  0  0  0  0  0  0  0  0  0  0  0
    1.5278    3.6176   21.8844 C   0  0  0  0  0  0  0  0  0  0  0  0
    6.5130    0.2756   19.9437 N   0  0  0  0  0  0  0  0  0  0  0  0
    7.9921    0.1764   20.0429 C   0  0  0  0  0  0  0  0  0  0  0  0
    8.5441    0.9514   18.7788 C   0  0  0  0  0  0  0  0  0  0  0  0
    9.1850    0.2916   17.9926 O   0  0  0  0  0  0  0  0  0  0  0  0
    8.1157    2.3059   18.7150 N   0  0  0  0  0  0  0  0  0  0  0  0
    9.1825    3.2472   19.3671 C   0  0  0  0  0  0  0  0  0  0  0  0
   10.5540    3.7287   18.7389 C   0  0  0  0  0  0  0  0  0  0  0  0
   10.5848    3.6008   17.2573 C   0  0  0  0  0  0  0  0  0  0  0  0
   11.6801    3.7804   16.4278 C   0  0  0  0  0  0  0  0  0  0  0  0
   11.6859    3.1670   15.1705 C   0  0  0  0  0  0  0  0  0  0  0  0
   10.6194    2.3574   14.7917 C   0  0  0  0  0  0  0  0  0  0  0  0
    9.4836    2.3179   15.5939 C   0  0  0  0  0  0  0  0  0  0  0  0
    9.4209    3.0825   16.7482 C   0  0  0  0  0  0  0  0  0  0  0  0
    8.2190    3.2959   17.6306 C   0  0  0  0  0  0  0  0  0  0  0  0
    2.2174    0.9711   21.1095 H   0  0  0  0  0  0  0  0  0  0  0  0
    2.8785    2.0789   20.4626 H   0  0  0  0  0  0  0  0  0  0  0  0
    3.5017    3.5170   22.4165 H   0  0  0  0  0  0  0  0  0  0  0  0
    2.9127    1.6662   24.4221 H   0  0  0  0  0  0  0  0  0  0  0  0
    3.5077    3.2760   24.4156 H   0  0  0  0  0  0  0  0  0  0  0  0
    0.6733    2.5629   24.9533 H   0  0  0  0  0  0  0  0  0  0  0  0
    1.8182    3.5534   25.8100 H   0  0  0  0  0  0  0  0  0  0  0  0
    0.2058    4.8515   24.7052 H   0  0  0  0  0  0  0  0  0  0  0  0
   -0.3360    3.2843   22.9495 H   0  0  0  0  0  0  0  0  0  0  0  0
   -0.0908    4.9267   22.3982 H   0  0  0  0  0  0  0  0  0  0  0  0
    1.0582    3.1012   21.0438 H   0  0  0  0  0  0  0  0  0  0  0  0
    1.9738    4.5191   21.4392 H   0  0  0  0  0  0  0  0  0  0  0  0
    6.0610    0.0734   19.0657 H   0  0  0  0  0  0  0  0  0  0  0  0
    8.2200   -0.7904   19.7217 H   0  0  0  0  0  0  0  0  0  0  0  0
    8.5308    0.6600   20.8619 H   0  0  0  0  0  0  0  0  0  0  0  0
    8.6429    4.1218   19.7748 H   0  0  0  0  0  0  0  0  0  0  0  0
    9.4704    2.7230   20.2917 H   0  0  0  0  0  0  0  0  0  0  0  0
   11.3528    3.1169   19.1685 H   0  0  0  0  0  0  0  0  0  0  0  0
   10.7413    4.7664   19.0379 H   0  0  0  0  0  0  0  0  0  0  0  0
   12.5817    4.2684   16.7856 H   0  0  0  0  0  0  0  0  0  0  0  0
   12.5753    3.2232   14.5486 H   0  0  0  0  0  0  0  0  0  0  0  0
   10.6687    1.7727   13.8779 H   0  0  0  0  0  0  0  0  0  0  0  0
    8.6542    1.6676   15.3495 H   0  0  0  0  0  0  0  0  0  0  0  0
    8.0005    4.3493   17.8803 H   0  0  0  0  0  0  0  0  0  0  0  0
    7.3615    3.0584   16.9846 H   0  0  0  0  0  0  0  0  0  0  0  0
  1  2  2  0
  2  3  1  0
  3  4  1  0
  4  5  1  0
  5  6  1  0
  6  7  1  0
  7  8  1  0
  8  9  1  0
  2 10  1  0
 10 11  1  0
 11 12  1  0
 12 13  2  0
 12 14  1  0
 14 15  1  0
 15 16  1  0
 16 17  1  0
 17 18  2  0
 18 19  1  0
 19 20  2  0
 20 21  1  0
 21 22  2  0
 22 23  1  0
  9  4  1  0
 23 14  1  0
 22 17  1  0
  3 24  1  0
  3 25  1  0
  4 26  1  0
  5 27  1  0
  5 28  1  0
  6 29  1  0
  6 30  1  0
  7 31  1  0
  8 32  1  0
  8 33  1  0
  9 34  1  0
  9 35  1  0
 10 36  1  0
 11 37  1  0
 11 38  1  0
 15 39  1  0
 15 40  1  0
 16 41  1  0
 16 42  1  0
 18 43  1  0
 19 44  1  0
 20 45  1  0
 21 46  1  0
 23 47  1  0
 23 48  1  0
M  END
>  <Energy>  (313) 
454.29239174713899

>  <compound_id>  (313) 
21263

>  <target_id>  (313) 
1

>  <reference_id>  (313) 
146

>  <inspiration_ids>  (313) 
[146, 44]

>  <energy_score>  (313) 
389.38912982893567

>  <distance_score>  (313) 
6.882115246137088

>  <path>  (313) 
/opt/xchem-fragalysis-2/maxwin/BulkDock/SCRATCH/511013/C21263-P146/C21263-P146.minimised.mol

>  <scratch_subdir>  (313) 
/opt/xchem-fragalysis-2/maxwin/BulkDock/SCRATCH/511013/C21263-P146

>  <fragmenstein_runtime>  (313) 
7.11182427406311

>  <fragmenstein_outcome>  (313) 
too moved

>  <fragmenstein_mode>  (313) 
expansion

>  <fragmenstein_error>  (313) 


$$$$
C21263-P44
     RDKit          3D

 48 50  0  0  0  0  0  0  0  0999 V2000
    2.2827    1.9380   20.7434 O   0  0  0  0  0  0  0  0  0  0  0  0
    3.0519    1.7847   21.6722 C   0  0  0  0  0  0  0  0  0  0  0  0
    2.8814    2.3189   23.2449 C   0  0  0  0  0  0  0  0  0  0  0  0
    2.3684    3.7850   23.3752 C   0  0  0  0  0  0  0  0  0  0  0  0
    2.6910    4.3477   24.7796 C   0  0  0  0  0  0  0  0  0  0  0  0
    1.7055    3.8837   25.8525 C   0  0  0  0  0  0  0  0  0  0  0  0
    0.3502    4.2809   25.5015 N   0  0  0  0  0  0  0  0  0  0  0  0
   -0.0745    3.7188   24.2263 C   0  0  0  0  0  0  0  0  0  0  0  0
    0.8808    4.0480   23.0769 C   0  0  0  0  0  0  0  0  0  0  0  0
    4.6818    1.0786   21.7138 N   0  0  0  0  0  0  0  0  0  0  0  0
    5.9314    0.4021   20.2197 C   0  0  0  0  0  0  0  0  0  0  0  0
    7.5210    0.2908   19.2429 C   0  0  0  0  0  0  0  0  0  0  0  0
    8.1991   -0.5885   19.6757 O   0  0  0  0  0  0  0  0  0  0  0  0
    7.7245    1.1135   18.1286 N   0  0  0  0  0  0  0  0  0  0  0  0
    8.4840    2.3884   18.5343 C   0  0  0  0  0  0  0  0  0  0  0  0
    8.4361    3.6389   17.5953 C   0  0  0  0  0  0  0  0  0  0  0  0
    9.2008    3.3515   16.3477 C   0  0  0  0  0  0  0  0  0  0  0  0
    9.8719    4.2666   15.5476 C   0  0  0  0  0  0  0  0  0  0  0  0
   10.6026    3.8167   14.4406 C   0  0  0  0  0  0  0  0  0  0  0  0
   10.6409    2.4609   14.1155 C   0  0  0  0  0  0  0  0  0  0  0  0
    9.9557    1.5535   14.9095 C   0  0  0  0  0  0  0  0  0  0  0  0
    9.2412    2.0150   16.0268 C   0  0  0  0  0  0  0  0  0  0  0  0
    8.7771    1.0804   17.0769 C   0  0  0  0  0  0  0  0  0  0  0  0
    2.4107    1.6916   23.9640 H   0  0  0  0  0  0  0  0  0  0  0  0
    3.9098    2.3693   23.6264 H   0  0  0  0  0  0  0  0  0  0  0  0
    2.9466    4.3712   22.6479 H   0  0  0  0  0  0  0  0  0  0  0  0
    3.7121    4.0814   25.0772 H   0  0  0  0  0  0  0  0  0  0  0  0
    2.6679    5.4452   24.7290 H   0  0  0  0  0  0  0  0  0  0  0  0
    1.7661    2.7997   26.0001 H   0  0  0  0  0  0  0  0  0  0  0  0
    1.9742    4.3508   26.8063 H   0  0  0  0  0  0  0  0  0  0  0  0
   -0.3061    4.0215   26.2378 H   0  0  0  0  0  0  0  0  0  0  0  0
   -0.1865    2.6436   24.3305 H   0  0  0  0  0  0  0  0  0  0  0  0
   -1.0683    4.1106   23.9819 H   0  0  0  0  0  0  0  0  0  0  0  0
    0.5641    3.5394   22.1611 H   0  0  0  0  0  0  0  0  0  0  0  0
    0.7754    5.1213   22.8625 H   0  0  0  0  0  0  0  0  0  0  0  0
    5.0038    1.0271   22.6585 H   0  0  0  0  0  0  0  0  0  0  0  0
    6.7684    1.2467   20.5728 H   0  0  0  0  0  0  0  0  0  0  0  0
    6.2575   -0.6775   20.6329 H   0  0  0  0  0  0  0  0  0  0  0  0
    7.9414    2.7295   19.4223 H   0  0  0  0  0  0  0  0  0  0  0  0
    9.4841    2.2260   18.9283 H   0  0  0  0  0  0  0  0  0  0  0  0
    8.8786    4.4929   18.1204 H   0  0  0  0  0  0  0  0  0  0  0  0
    7.3976    3.8837   17.3448 H   0  0  0  0  0  0  0  0  0  0  0  0
    9.8510    5.3259   15.7888 H   0  0  0  0  0  0  0  0  0  0  0  0
   11.1351    4.5358   13.8231 H   0  0  0  0  0  0  0  0  0  0  0  0
   11.2069    2.1183   13.2542 H   0  0  0  0  0  0  0  0  0  0  0  0
   10.0150    0.4910   14.6828 H   0  0  0  0  0  0  0  0  0  0  0  0
    9.6765    0.6708   17.5320 H   0  0  0  0  0  0  0  0  0  0  0  0
    8.4126    0.2175   16.4955 H   0  0  0  0  0  0  0  0  0  0  0  0
  1  2  2  0
  2  3  1  0
  3  4  1  0
  4  5  1  0
  5  6  1  0
  6  7  1  0
  7  8  1  0
  8  9  1  0
  2 10  1  0
 10 11  1  0
 11 12  1  0
 12 13  2  0
 12 14  1  0
 14 15  1  0
 15 16  1  0
 16 17  1  0
 17 18  2  0
 18 19  1  0
 19 20  2  0
 20 21  1  0
 21 22  2  0
 22 23  1  0
  9  4  1  0
 23 14  1  0
 22 17  1  0
  3 24  1  0
  3 25  1  0
  4 26  1  0
  5 27  1  0
  5 28  1  0
  6 29  1  0
  6 30  1  0
  7 31  1  0
  8 32  1  0
  8 33  1  0
  9 34  1  0
  9 35  1  0
 10 36  1  0
 11 37  1  0
 11 38  1  0
 15 39  1  0
 15 40  1  0
 16 41  1  0
 16 42  1  0
 18 43  1  0
 19 44  1  0
 20 45  1  0
 21 46  1  0
 23 47  1  0
 23 48  1  0
M  END
>  <Energy>  (314) 
358.08100242884854

>  <compound_id>  (314) 
21263

>  <target_id>  (314) 
1

>  <reference_id>  (314) 
44

>  <inspiration_ids>  (314) 
[146, 44]

>  <energy_score>  (314) 
293.1777405106451

>  <distance_score>  (314) 
6.633693102516479

>  <path>  (314) 
/opt/xchem-fragalysis-2/maxwin/BulkDock/SCRATCH/511013/C21263-P44/C21263-P44.minimised.mol

>  <scratch_subdir>  (314) 
/opt/xchem-fragalysis-2/maxwin/BulkDock/SCRATCH/511013/C21263-P44

>  <fragmenstein_runtime>  (314) 
8.819108009338379

>  <fragmenstein_outcome>  (314) 
too moved

>  <fragmenstein_mode>  (314) 
expansion

>  <fragmenstein_error>  (314) 


$$$$
C21266-P146
     RDKit          3D

 47 50  0  0  0  0  0  0  0  0999 V2000
    6.6545    3.9762   20.9612 O   0  0  0  0  0  0  0  0  0  0  0  0
    6.6524    2.7559   20.9379 C   0  0  0  0  0  0  0  0  0  0  0  0
    5.4160    1.4576   21.8233 N   0  0  0  0  0  0  0  0  0  0  0  0
    3.8365    1.8631   22.8211 C   0  0  0  0  0  0  0  0  0  0  0  0
    2.8981    3.0312   22.5757 C   0  0  0  0  0  0  0  0  0  0  0  0
    2.1283    3.4247   23.5926 N   0  0  0  0  0  0  0  0  0  0  0  0
    2.5614    2.7128   24.6344 N   0  0  0  0  0  0  0  0  0  0  0  0
    2.3211    3.2620   25.9781 C   0  0  0  0  0  0  0  0  0  0  0  0
    0.9007    3.8223   26.2125 C   0  0  0  0  0  0  0  0  0  0  0  0
   -0.0946    2.7757   26.6938 C   0  0  0  0  0  0  0  0  0  0  0  0
    0.3938    2.0491   27.8625 N   0  0  0  0  0  0  0  0  0  0  0  0
    1.6756    1.4012   27.6183 C   0  0  0  0  0  0  0  0  0  0  0  0
    2.7412    2.3981   27.1785 C   0  0  0  0  0  0  0  0  0  0  0  0
    3.4125    1.7017   24.2449 C   0  0  0  0  0  0  0  0  0  0  0  0
    8.0221    2.1873   20.0905 C   0  0  0  0  0  0  0  0  0  0  0  0
    8.0271    1.0105   19.3330 C   0  0  0  0  0  0  0  0  0  0  0  0
    8.7137    0.9368   18.0975 C   0  0  0  0  0  0  0  0  0  0  0  0
    9.5395    1.9443   17.6563 C   0  0  0  0  0  0  0  0  0  0  0  0
    9.7933    2.9886   18.5217 C   0  0  0  0  0  0  0  0  0  0  0  0
    9.0558    3.1180   19.7451 C   0  0  0  0  0  0  0  0  0  0  0  0
    9.5402    4.1589   20.7379 C   0  0  0  0  0  0  0  0  0  0  0  0
   10.3788    5.2273   20.1667 N   0  0  0  0  0  0  0  0  0  0  0  0
   11.4256    4.6863   19.3035 C   0  0  0  0  0  0  0  0  0  0  0  0
   10.7991    4.0239   18.0917 C   0  0  0  0  0  0  0  0  0  0  0  0
    5.6120    0.5148   21.5542 H   0  0  0  0  0  0  0  0  0  0  0  0
    2.7806    3.6097   21.6661 H   0  0  0  0  0  0  0  0  0  0  0  0
    2.9991    4.1300   25.9811 H   0  0  0  0  0  0  0  0  0  0  0  0
    0.5037    4.3211   25.3215 H   0  0  0  0  0  0  0  0  0  0  0  0
    0.9708    4.6016   26.9845 H   0  0  0  0  0  0  0  0  0  0  0  0
   -0.3391    2.0831   25.8891 H   0  0  0  0  0  0  0  0  0  0  0  0
   -1.0313    3.2766   26.9641 H   0  0  0  0  0  0  0  0  0  0  0  0
   -0.2986    1.3469   28.1276 H   0  0  0  0  0  0  0  0  0  0  0  0
    2.0046    0.9284   28.5510 H   0  0  0  0  0  0  0  0  0  0  0  0
    1.5699    0.5923   26.8932 H   0  0  0  0  0  0  0  0  0  0  0  0
    2.9357    3.0731   28.0245 H   0  0  0  0  0  0  0  0  0  0  0  0
    3.6882    1.8792   26.9981 H   0  0  0  0  0  0  0  0  0  0  0  0
    3.8070    1.0074   24.9753 H   0  0  0  0  0  0  0  0  0  0  0  0
    7.3199    0.2123   19.5154 H   0  0  0  0  0  0  0  0  0  0  0  0
    8.4853    0.1447   17.3948 H   0  0  0  0  0  0  0  0  0  0  0  0
   10.0058    1.8920   16.6763 H   0  0  0  0  0  0  0  0  0  0  0  0
   10.1272    3.6349   21.5034 H   0  0  0  0  0  0  0  0  0  0  0  0
    8.7278    4.6558   21.2657 H   0  0  0  0  0  0  0  0  0  0  0  0
    9.7641    5.8323   19.6195 H   0  0  0  0  0  0  0  0  0  0  0  0
   12.0791    5.5031   18.9785 H   0  0  0  0  0  0  0  0  0  0  0  0
   12.0523    3.9839   19.8663 H   0  0  0  0  0  0  0  0  0  0  0  0
   10.2855    4.7694   17.4711 H   0  0  0  0  0  0  0  0  0  0  0  0
   11.5853    3.5787   17.4768 H   0  0  0  0  0  0  0  0  0  0  0  0
  1  2  2  0
  2  3  1  0
  3  4  1  0
  4  5  1  0
  5  6  2  0
  6  7  1  0
  7  8  1  0
  8  9  1  0
  9 10  1  0
 10 11  1  0
 11 12  1  0
 12 13  1  0
  7 14  1  0
  2 15  1  0
 15 16  2  0
 16 17  1  0
 17 18  2  0
 18 19  1  0
 19 20  2  0
 20 21  1  0
 21 22  1  0
 22 23  1  0
 23 24  1  0
 14  4  2  0
 20 15  1  0
 13  8  1  0
 24 19  1  0
  3 25  1  0
  5 26  1  0
  8 27  1  0
  9 28  1  0
  9 29  1  0
 10 30  1  0
 10 31  1  0
 11 32  1  0
 12 33  1  0
 12 34  1  0
 13 35  1  0
 13 36  1  0
 14 37  1  0
 16 38  1  0
 17 39  1  0
 18 40  1  0
 21 41  1  0
 21 42  1  0
 22 43  1  0
 23 44  1  0
 23 45  1  0
 24 46  1  0
 24 47  1  0
M  END
>  <Energy>  (315) 
305.7327675508177

>  <compound_id>  (315) 
21266

>  <target_id>  (315) 
1

>  <reference_id>  (315) 
146

>  <inspiration_ids>  (315) 
[146, 44]

>  <energy_score>  (315) 
223.90331135871998

>  <distance_score>  (315) 
6.546890906040808

>  <path>  (315) 
/opt/xchem-fragalysis-2/maxwin/BulkDock/SCRATCH/511013/C21266-P146/C21266-P146.minimised.mol

>  <scratch_subdir>  (315) 
/opt/xchem-fragalysis-2/maxwin/BulkDock/SCRATCH/511013/C21266-P146

>  <fragmenstein_runtime>  (315) 
6.870370864868164

>  <fragmenstein_outcome>  (315) 
too moved

>  <fragmenstein_mode>  (315) 
expansion

>  <fragmenstein_error>  (315) 


$$$$
C21266-P44
     RDKit          3D

 47 50  0  0  0  0  0  0  0  0999 V2000
    7.2187    1.4068   20.1511 O   0  0  0  0  0  0  0  0  0  0  0  0
    7.0951    0.2472   19.7909 C   0  0  0  0  0  0  0  0  0  0  0  0
    6.1197   -1.0323   20.8025 N   0  0  0  0  0  0  0  0  0  0  0  0
    5.0516   -0.8439   22.4039 C   0  0  0  0  0  0  0  0  0  0  0  0
    4.8808    0.4179   23.4182 C   0  0  0  0  0  0  0  0  0  0  0  0
    4.7149    0.2558   24.7187 N   0  0  0  0  0  0  0  0  0  0  0  0
    4.5857   -1.0543   24.8267 N   0  0  0  0  0  0  0  0  0  0  0  0
    4.5176   -1.4968   26.2288 C   0  0  0  0  0  0  0  0  0  0  0  0
    3.4616   -0.6646   27.0237 C   0  0  0  0  0  0  0  0  0  0  0  0
    2.6588   -1.4741   28.0312 C   0  0  0  0  0  0  0  0  0  0  0  0
    3.5458   -2.3257   28.7983 N   0  0  0  0  0  0  0  0  0  0  0  0
    4.2881   -3.2862   27.9886 C   0  0  0  0  0  0  0  0  0  0  0  0
    4.3614   -2.9909   26.4854 C   0  0  0  0  0  0  0  0  0  0  0  0
    4.8751   -1.7399   23.6066 C   0  0  0  0  0  0  0  0  0  0  0  0
    7.8773    0.0466   18.2651 C   0  0  0  0  0  0  0  0  0  0  0  0
    8.8188    1.0204   18.6265 C   0  0  0  0  0  0  0  0  0  0  0  0
    8.7081    2.4439   18.4455 C   0  0  0  0  0  0  0  0  0  0  0  0
    8.5786    2.8604   17.1668 C   0  0  0  0  0  0  0  0  0  0  0  0
    8.4838    1.8113   16.2876 C   0  0  0  0  0  0  0  0  0  0  0  0
    8.1272    0.4435   16.8303 C   0  0  0  0  0  0  0  0  0  0  0  0
    8.4120   -0.6060   15.7193 C   0  0  0  0  0  0  0  0  0  0  0  0
    9.6403   -0.3453   14.9551 N   0  0  0  0  0  0  0  0  0  0  0  0
    9.4465    0.8399   14.1202 C   0  0  0  0  0  0  0  0  0  0  0  0
    9.0725    2.0753   14.9175 C   0  0  0  0  0  0  0  0  0  0  0  0
    6.0735   -1.9093   20.2782 H   0  0  0  0  0  0  0  0  0  0  0  0
    4.5754    1.3913   23.0424 H   0  0  0  0  0  0  0  0  0  0  0  0
    5.5068   -1.2203   26.6275 H   0  0  0  0  0  0  0  0  0  0  0  0
    2.7560   -0.1538   26.3606 H   0  0  0  0  0  0  0  0  0  0  0  0
    3.9955    0.1360   27.5550 H   0  0  0  0  0  0  0  0  0  0  0  0
    1.8856   -2.0766   27.5483 H   0  0  0  0  0  0  0  0  0  0  0  0
    2.1391   -0.7870   28.7082 H   0  0  0  0  0  0  0  0  0  0  0  0
    3.0430   -2.7983   29.5481 H   0  0  0  0  0  0  0  0  0  0  0  0
    5.3059   -3.3415   28.3921 H   0  0  0  0  0  0  0  0  0  0  0  0
    3.8522   -4.2839   28.1207 H   0  0  0  0  0  0  0  0  0  0  0  0
    5.2090   -3.5398   26.0567 H   0  0  0  0  0  0  0  0  0  0  0  0
    3.4736   -3.4003   26.0008 H   0  0  0  0  0  0  0  0  0  0  0  0
    5.4381   -2.6304   23.8257 H   0  0  0  0  0  0  0  0  0  0  0  0
    9.7592    0.8332   18.0483 H   0  0  0  0  0  0  0  0  0  0  0  0
    8.9601    3.1219   19.2526 H   0  0  0  0  0  0  0  0  0  0  0  0
    8.7432    3.8889   16.8790 H   0  0  0  0  0  0  0  0  0  0  0  0
    7.5390   -0.7418   15.0778 H   0  0  0  0  0  0  0  0  0  0  0  0
    8.6182   -1.5746   16.1224 H   0  0  0  0  0  0  0  0  0  0  0  0
    9.7580   -1.1128   14.2780 H   0  0  0  0  0  0  0  0  0  0  0  0
   10.3623    1.0356   13.5498 H   0  0  0  0  0  0  0  0  0  0  0  0
    8.6735    0.6460   13.3707 H   0  0  0  0  0  0  0  0  0  0  0  0
   10.0004    2.6468   15.0657 H   0  0  0  0  0  0  0  0  0  0  0  0
    8.3992    2.7197   14.3411 H   0  0  0  0  0  0  0  0  0  0  0  0
  1  2  2  0
  2  3  1  0
  3  4  1  0
  4  5  1  0
  5  6  2  0
  6  7  1  0
  7  8  1  0
  8  9  1  0
  9 10  1  0
 10 11  1  0
 11 12  1  0
 12 13  1  0
  7 14  1  0
  2 15  1  0
 15 16  2  0
 16 17  1  0
 17 18  2  0
 18 19  1  0
 19 20  2  0
 20 21  1  0
 21 22  1  0
 22 23  1  0
 23 24  1  0
 14  4  2  0
 20 15  1  0
 13  8  1  0
 24 19  1  0
  3 25  1  0
  5 26  1  0
  8 27  1  0
  9 28  1  0
  9 29  1  0
 10 30  1  0
 10 31  1  0
 11 32  1  0
 12 33  1  0
 12 34  1  0
 13 35  1  0
 13 36  1  0
 14 37  1  0
 16 38  1  0
 17 39  1  0
 18 40  1  0
 21 41  1  0
 21 42  1  0
 22 43  1  0
 23 44  1  0
 23 45  1  0
 24 46  1  0
 24 47  1  0
M  END
>  <Energy>  (316) 
487.55353687463582

>  <compound_id>  (316) 
21266

>  <target_id>  (316) 
1

>  <reference_id>  (316) 
44

>  <inspiration_ids>  (316) 
[146, 44]

>  <energy_score>  (316) 
405.72408068254134

>  <distance_score>  (316) 
6.83285580360616

>  <path>  (316) 
/opt/xchem-fragalysis-2/maxwin/BulkDock/SCRATCH/511013/C21266-P44/C21266-P44.minimised.mol

>  <scratch_subdir>  (316) 
/opt/xchem-fragalysis-2/maxwin/BulkDock/SCRATCH/511013/C21266-P44

>  <fragmenstein_runtime>  (316) 
7.177844047546387

>  <fragmenstein_outcome>  (316) 
too moved

>  <fragmenstein_mode>  (316) 
expansion

>  <fragmenstein_error>  (316) 


$$$$
C21272-P146
     RDKit          3D

 43 45  0  0  0  0  0  0  0  0999 V2000
   10.1297    5.9352   16.9454 C   0  0  0  0  0  0  0  0  0  0  0  0
    9.9055    4.4490   16.9399 C   0  0  0  0  0  0  0  0  0  0  0  0
   10.3582    3.6839   15.8443 C   0  0  0  0  0  0  0  0  0  0  0  0
   10.1544    2.3052   15.7845 C   0  0  0  0  0  0  0  0  0  0  0  0
    9.5239    1.6663   16.8384 C   0  0  0  0  0  0  0  0  0  0  0  0
    9.1574    2.4107   17.9590 C   0  0  0  0  0  0  0  0  0  0  0  0
    9.2772    3.8040   18.0154 C   0  0  0  0  0  0  0  0  0  0  0  0
    8.8132    4.5346   19.3139 C   0  0  0  0  0  0  0  0  0  0  0  0
    8.0121    3.8296   20.4926 N   0  0  0  0  0  0  0  0  0  0  0  0
    7.7936    4.7822   21.6004 C   0  0  0  0  0  0  0  0  0  0  0  0
    8.4515    5.0050   22.5482 O   0  0  0  0  0  0  0  0  0  0  0  0
    6.4693    5.2915   21.2222 N   0  0  0  0  0  0  0  0  0  0  0  0
    5.5203    6.1552   21.9567 C   0  0  0  0  0  0  0  0  0  0  0  0
    4.1017    6.0116   21.3730 C   0  0  0  0  0  0  0  0  0  0  0  0
    2.9914    6.5340   22.2845 C   0  0  0  0  0  0  0  0  0  0  0  0
    3.0482    5.9368   23.6166 N   0  0  0  0  0  0  0  0  0  0  0  0
    4.3132    6.2967   24.2481 C   0  0  0  0  0  0  0  0  0  0  0  0
    5.5163    5.7907   23.4574 C   0  0  0  0  0  0  0  0  0  0  0  0
    9.0620    2.7963   20.3037 C   0  0  0  0  0  0  0  0  0  0  0  0
    8.6346    1.8161   19.2062 C   0  0  0  0  0  0  0  0  0  0  0  0
   10.5824    6.2772   16.0087 H   0  0  0  0  0  0  0  0  0  0  0  0
    9.1781    6.4636   17.0612 H   0  0  0  0  0  0  0  0  0  0  0  0
   10.8031    6.2132   17.7623 H   0  0  0  0  0  0  0  0  0  0  0  0
   10.8654    4.1708   15.0133 H   0  0  0  0  0  0  0  0  0  0  0  0
   10.4898    1.7417   14.9182 H   0  0  0  0  0  0  0  0  0  0  0  0
    9.3423    0.5987   16.7951 H   0  0  0  0  0  0  0  0  0  0  0  0
    9.6631    5.0794   19.7587 H   0  0  0  0  0  0  0  0  0  0  0  0
    8.1180    5.3171   18.9786 H   0  0  0  0  0  0  0  0  0  0  0  0
    6.2356    4.9537   20.2982 H   0  0  0  0  0  0  0  0  0  0  0  0
    5.8669    7.1880   21.8380 H   0  0  0  0  0  0  0  0  0  0  0  0
    3.8917    4.9610   21.1586 H   0  0  0  0  0  0  0  0  0  0  0  0
    4.0560    6.5252   20.4046 H   0  0  0  0  0  0  0  0  0  0  0  0
    2.0190    6.3012   21.8361 H   0  0  0  0  0  0  0  0  0  0  0  0
    3.0439    7.6273   22.3568 H   0  0  0  0  0  0  0  0  0  0  0  0
    2.9869    4.9210   23.5311 H   0  0  0  0  0  0  0  0  0  0  0  0
    4.3389    5.8715   25.2577 H   0  0  0  0  0  0  0  0  0  0  0  0
    4.3748    7.3851   24.3708 H   0  0  0  0  0  0  0  0  0  0  0  0
    6.4331    6.1709   23.9247 H   0  0  0  0  0  0  0  0  0  0  0  0
    5.5617    4.7078   23.5613 H   0  0  0  0  0  0  0  0  0  0  0  0
    8.9823    2.2221   21.2363 H   0  0  0  0  0  0  0  0  0  0  0  0
   10.1202    3.1110   20.3599 H   0  0  0  0  0  0  0  0  0  0  0  0
    7.5610    1.7884   19.1357 H   0  0  0  0  0  0  0  0  0  0  0  0
    8.9376    0.7878   19.3850 H   0  0  0  0  0  0  0  0  0  0  0  0
  1  2  1  0
  2  3  2  0
  3  4  1  0
  4  5  2  0
  5  6  1  0
  6  7  2  0
  7  8  1  0
  8  9  1  0
  9 10  1  0
 10 11  2  0
 10 12  1  0
 12 13  1  0
 13 14  1  0
 14 15  1  0
 15 16  1  0
 16 17  1  0
 17 18  1  0
  9 19  1  0
 19 20  1  0
  7  2  1  0
 18 13  1  0
 20  6  1  0
  1 21  1  0
  1 22  1  0
  1 23  1  0
  3 24  1  0
  4 25  1  0
  5 26  1  0
  8 27  1  0
  8 28  1  0
 12 29  1  0
 13 30  1  0
 14 31  1  0
 14 32  1  0
 15 33  1  0
 15 34  1  0
 16 35  1  0
 17 36  1  0
 17 37  1  0
 18 38  1  0
 18 39  1  0
 19 40  1  0
 19 41  1  0
 20 42  1  0
 20 43  1  0
M  END
>  <Energy>  (317) 
37.571507827121259

>  <compound_id>  (317) 
21272

>  <target_id>  (317) 
1

>  <reference_id>  (317) 
146

>  <inspiration_ids>  (317) 
[146, 44]

>  <energy_score>  (317) 
59.67508320194463

>  <distance_score>  (317) 
8.45434963896967

>  <path>  (317) 
/opt/xchem-fragalysis-2/maxwin/BulkDock/SCRATCH/511013/C21272-P146/C21272-P146.minimised.mol

>  <scratch_subdir>  (317) 
/opt/xchem-fragalysis-2/maxwin/BulkDock/SCRATCH/511013/C21272-P146

>  <fragmenstein_runtime>  (317) 
7.376882314682007

>  <fragmenstein_outcome>  (317) 
too moved

>  <fragmenstein_mode>  (317) 
expansion

>  <fragmenstein_error>  (317) 


$$$$
C21272-P44
     RDKit          3D

 43 45  0  0  0  0  0  0  0  0999 V2000
    8.5014    0.6624   16.4860 C   0  0  0  0  0  0  0  0  0  0  0  0
    9.4396    1.6952   15.9642 C   0  0  0  0  0  0  0  0  0  0  0  0
   10.5864    1.2268   15.2818 C   0  0  0  0  0  0  0  0  0  0  0  0
   11.5641    2.1076   14.8391 C   0  0  0  0  0  0  0  0  0  0  0  0
   11.4097    3.4638   15.0884 C   0  0  0  0  0  0  0  0  0  0  0  0
   10.2445    3.9285   15.7159 C   0  0  0  0  0  0  0  0  0  0  0  0
    9.2165    3.0824   16.1258 C   0  0  0  0  0  0  0  0  0  0  0  0
    7.8734    3.7359   16.6229 C   0  0  0  0  0  0  0  0  0  0  0  0
    7.4376    5.3206   16.7297 N   0  0  0  0  0  0  0  0  0  0  0  0
    7.4648    5.7628   18.1469 C   0  0  0  0  0  0  0  0  0  0  0  0
    8.3360    6.2448   18.7771 O   0  0  0  0  0  0  0  0  0  0  0  0
    6.0506    5.5133   18.5011 N   0  0  0  0  0  0  0  0  0  0  0  0
    5.3241    5.7007   19.7788 C   0  0  0  0  0  0  0  0  0  0  0  0
    5.6668    6.9438   20.6010 C   0  0  0  0  0  0  0  0  0  0  0  0
    4.8807    6.9488   21.9251 C   0  0  0  0  0  0  0  0  0  0  0  0
    3.4323    6.8804   21.7258 N   0  0  0  0  0  0  0  0  0  0  0  0
    3.0554    5.7026   20.9468 C   0  0  0  0  0  0  0  0  0  0  0  0
    3.7893    5.6558   19.5992 C   0  0  0  0  0  0  0  0  0  0  0  0
    8.4522    5.4562   15.6614 C   0  0  0  0  0  0  0  0  0  0  0  0
    9.9526    5.3616   15.9414 C   0  0  0  0  0  0  0  0  0  0  0  0
    7.6030    0.6343   15.8824 H   0  0  0  0  0  0  0  0  0  0  0  0
    8.9482   -0.3340   16.4203 H   0  0  0  0  0  0  0  0  0  0  0  0
    8.2748    0.8471   17.5396 H   0  0  0  0  0  0  0  0  0  0  0  0
   10.7258    0.1623   15.1008 H   0  0  0  0  0  0  0  0  0  0  0  0
   12.4457    1.7364   14.3257 H   0  0  0  0  0  0  0  0  0  0  0  0
   12.1723    4.1665   14.7648 H   0  0  0  0  0  0  0  0  0  0  0  0
    7.7109    3.3447   17.6361 H   0  0  0  0  0  0  0  0  0  0  0  0
    7.0782    3.3216   15.9870 H   0  0  0  0  0  0  0  0  0  0  0  0
    5.5623    5.1585   17.6891 H   0  0  0  0  0  0  0  0  0  0  0  0
    5.6150    4.8483   20.3801 H   0  0  0  0  0  0  0  0  0  0  0  0
    5.4428    7.8503   20.0248 H   0  0  0  0  0  0  0  0  0  0  0  0
    6.7393    6.9692   20.8239 H   0  0  0  0  0  0  0  0  0  0  0  0
    5.1145    7.8713   22.4680 H   0  0  0  0  0  0  0  0  0  0  0  0
    5.2075    6.1170   22.5601 H   0  0  0  0  0  0  0  0  0  0  0  0
    2.9647    6.8509   22.6315 H   0  0  0  0  0  0  0  0  0  0  0  0
    1.9761    5.7335   20.7616 H   0  0  0  0  0  0  0  0  0  0  0  0
    3.2496    4.8040   21.5376 H   0  0  0  0  0  0  0  0  0  0  0  0
    3.4847    4.7604   19.0482 H   0  0  0  0  0  0  0  0  0  0  0  0
    3.4748    6.5067   18.9797 H   0  0  0  0  0  0  0  0  0  0  0  0
    8.1146    4.9943   14.7158 H   0  0  0  0  0  0  0  0  0  0  0  0
    8.3265    6.5271   15.4315 H   0  0  0  0  0  0  0  0  0  0  0  0
   10.5038    5.9795   15.2235 H   0  0  0  0  0  0  0  0  0  0  0  0
   10.2207    5.6712   16.9555 H   0  0  0  0  0  0  0  0  0  0  0  0
  1  2  1  0
  2  3  2  0
  3  4  1  0
  4  5  2  0
  5  6  1  0
  6  7  2  0
  7  8  1  0
  8  9  1  0
  9 10  1  0
 10 11  2  0
 10 12  1  0
 12 13  1  0
 13 14  1  0
 14 15  1  0
 15 16  1  0
 16 17  1  0
 17 18  1  0
  9 19  1  0
 19 20  1  0
  7  2  1  0
 18 13  1  0
 20  6  1  0
  1 21  1  0
  1 22  1  0
  1 23  1  0
  3 24  1  0
  4 25  1  0
  5 26  1  0
  8 27  1  0
  8 28  1  0
 12 29  1  0
 13 30  1  0
 14 31  1  0
 14 32  1  0
 15 33  1  0
 15 34  1  0
 16 35  1  0
 17 36  1  0
 17 37  1  0
 18 38  1  0
 18 39  1  0
 19 40  1  0
 19 41  1  0
 20 42  1  0
 20 43  1  0
M  END
>  <Energy>  (318) 
48.613665093355607

>  <compound_id>  (318) 
21272

>  <target_id>  (318) 
1

>  <reference_id>  (318) 
44

>  <inspiration_ids>  (318) 
[146, 44]

>  <energy_score>  (318) 
70.71724046817621

>  <distance_score>  (318) 
8.650420130780963

>  <path>  (318) 
/opt/xchem-fragalysis-2/maxwin/BulkDock/SCRATCH/511013/C21272-P44/C21272-P44.minimised.mol

>  <scratch_subdir>  (318) 
/opt/xchem-fragalysis-2/maxwin/BulkDock/SCRATCH/511013/C21272-P44

>  <fragmenstein_runtime>  (318) 
5.6028594970703125

>  <fragmenstein_outcome>  (318) 
too moved

>  <fragmenstein_mode>  (318) 
expansion

>  <fragmenstein_error>  (318) 


$$$$
C21274-P146
     RDKit          3D

 46 48  0  0  0  0  0  0  0  0999 V2000
   10.7447   -2.0377   15.1635 C   0  0  0  0  0  0  0  0  0  0  0  0
   11.8040   -1.0344   14.8591 C   0  0  0  0  0  0  0  0  0  0  0  0
   13.1346   -1.4867   14.7750 C   0  0  0  0  0  0  0  0  0  0  0  0
   14.1716   -0.6135   14.4443 C   0  0  0  0  0  0  0  0  0  0  0  0
   13.8961    0.7289   14.2035 C   0  0  0  0  0  0  0  0  0  0  0  0
   12.5826    1.1763   14.3125 C   0  0  0  0  0  0  0  0  0  0  0  0
   11.5308    0.3151   14.6110 C   0  0  0  0  0  0  0  0  0  0  0  0
   10.1932    1.0277   14.4879 C   0  0  0  0  0  0  0  0  0  0  0  0
    9.5674    2.0442   15.4287 N   0  0  0  0  0  0  0  0  0  0  0  0
    9.1735    1.9195   16.8522 C   0  0  0  0  0  0  0  0  0  0  0  0
    9.3370    1.0333   17.6096 O   0  0  0  0  0  0  0  0  0  0  0  0
    8.4305    3.1907   17.0111 N   0  0  0  0  0  0  0  0  0  0  0  0
    7.6013    3.6787   18.1100 C   0  0  0  0  0  0  0  0  0  0  0  0
    7.7510    5.1212   18.6582 C   0  0  0  0  0  0  0  0  0  0  0  0
    6.4643    5.9799   18.5231 C   0  0  0  0  0  0  0  0  0  0  0  0
    5.3945    5.7917   19.6091 C   0  0  0  0  0  0  0  0  0  0  0  0
    5.9298    5.8284   20.9670 N   0  0  0  0  0  0  0  0  0  0  0  0
    7.0544    4.9191   21.1407 C   0  0  0  0  0  0  0  0  0  0  0  0
    8.1854    5.1669   20.1411 C   0  0  0  0  0  0  0  0  0  0  0  0
   10.9716    2.6918   15.3237 C   0  0  0  0  0  0  0  0  0  0  0  0
   12.1097    2.5906   14.2442 C   0  0  0  0  0  0  0  0  0  0  0  0
   11.1291   -2.7742   15.8769 H   0  0  0  0  0  0  0  0  0  0  0  0
    9.8677   -1.5695   15.6158 H   0  0  0  0  0  0  0  0  0  0  0  0
   10.4516   -2.5662   14.2566 H   0  0  0  0  0  0  0  0  0  0  0  0
   13.3662   -2.5329   14.9603 H   0  0  0  0  0  0  0  0  0  0  0  0
   15.1937   -0.9762   14.3884 H   0  0  0  0  0  0  0  0  0  0  0  0
   14.7015    1.4246   13.9896 H   0  0  0  0  0  0  0  0  0  0  0  0
   10.0623    1.4013   13.4587 H   0  0  0  0  0  0  0  0  0  0  0  0
    9.4413    0.2286   14.5242 H   0  0  0  0  0  0  0  0  0  0  0  0
    8.4252    3.6842   16.1301 H   0  0  0  0  0  0  0  0  0  0  0  0
    6.5983    3.5824   17.6874 H   0  0  0  0  0  0  0  0  0  0  0  0
    7.7230    2.9499   18.9166 H   0  0  0  0  0  0  0  0  0  0  0  0
    8.5375    5.6046   18.0636 H   0  0  0  0  0  0  0  0  0  0  0  0
    6.7761    7.0338   18.5523 H   0  0  0  0  0  0  0  0  0  0  0  0
    6.0146    5.8313   17.5339 H   0  0  0  0  0  0  0  0  0  0  0  0
    4.6657    6.6057   19.5130 H   0  0  0  0  0  0  0  0  0  0  0  0
    4.8247    4.8801   19.4344 H   0  0  0  0  0  0  0  0  0  0  0  0
    5.1826    5.5636   21.6111 H   0  0  0  0  0  0  0  0  0  0  0  0
    7.4472    5.0406   22.1562 H   0  0  0  0  0  0  0  0  0  0  0  0
    6.7251    3.8887   21.0550 H   0  0  0  0  0  0  0  0  0  0  0  0
    8.9957    4.4486   20.3149 H   0  0  0  0  0  0  0  0  0  0  0  0
    8.6104    6.1598   20.3424 H   0  0  0  0  0  0  0  0  0  0  0  0
   10.7020    3.7602   15.3061 H   0  0  0  0  0  0  0  0  0  0  0  0
   11.4131    2.5832   16.3195 H   0  0  0  0  0  0  0  0  0  0  0  0
   12.9176    3.2818   14.5090 H   0  0  0  0  0  0  0  0  0  0  0  0
   11.7503    2.8483   13.2417 H   0  0  0  0  0  0  0  0  0  0  0  0
  1  2  1  0
  2  3  2  0
  3  4  1  0
  4  5  2  0
  5  6  1  0
  6  7  2  0
  7  8  1  0
  8  9  1  0
  9 10  1  0
 10 11  2  0
 10 12  1  0
 12 13  1  0
 13 14  1  0
 14 15  1  0
 15 16  1  0
 16 17  1  0
 17 18  1  0
 18 19  1  0
  9 20  1  0
 20 21  1  0
  7  2  1  0
 19 14  1  0
 21  6  1  0
  1 22  1  0
  1 23  1  0
  1 24  1  0
  3 25  1  0
  4 26  1  0
  5 27  1  0
  8 28  1  0
  8 29  1  0
 12 30  1  0
 13 31  1  0
 13 32  1  0
 14 33  1  0
 15 34  1  0
 15 35  1  0
 16 36  1  0
 16 37  1  0
 17 38  1  0
 18 39  1  0
 18 40  1  0
 19 41  1  0
 19 42  1  0
 20 43  1  0
 20 44  1  0
 21 45  1  0
 21 46  1  0
M  END
>  <Energy>  (319) 
61.835054304988432

>  <compound_id>  (319) 
21274

>  <target_id>  (319) 
1

>  <reference_id>  (319) 
146

>  <inspiration_ids>  (319) 
[146, 44]

>  <energy_score>  (319) 
78.01932957870451

>  <distance_score>  (319) 
8.304587741007714

>  <path>  (319) 
/opt/xchem-fragalysis-2/maxwin/BulkDock/SCRATCH/511013/C21274-P146/C21274-P146.minimised.mol

>  <scratch_subdir>  (319) 
/opt/xchem-fragalysis-2/maxwin/BulkDock/SCRATCH/511013/C21274-P146

>  <fragmenstein_runtime>  (319) 
6.814761161804199

>  <fragmenstein_outcome>  (319) 
too moved

>  <fragmenstein_mode>  (319) 
expansion

>  <fragmenstein_error>  (319) 


$$$$
C21274-P44
     RDKit          3D

 46 48  0  0  0  0  0  0  0  0999 V2000
   11.6657   -1.6292   15.9896 C   0  0  0  0  0  0  0  0  0  0  0  0
   11.0462   -0.4078   15.3781 C   0  0  0  0  0  0  0  0  0  0  0  0
   11.5419   -0.1375   14.0841 C   0  0  0  0  0  0  0  0  0  0  0  0
   11.0610    0.9222   13.3257 C   0  0  0  0  0  0  0  0  0  0  0  0
   10.0011    1.6706   13.8035 C   0  0  0  0  0  0  0  0  0  0  0  0
    9.5058    1.3938   15.0666 C   0  0  0  0  0  0  0  0  0  0  0  0
   10.0964    0.4841   15.9305 C   0  0  0  0  0  0  0  0  0  0  0  0
    9.6716    0.9632   17.4026 C   0  0  0  0  0  0  0  0  0  0  0  0
    8.4842    0.6259   18.1646 N   0  0  0  0  0  0  0  0  0  0  0  0
    7.7490    1.3889   19.3955 C   0  0  0  0  0  0  0  0  0  0  0  0
    8.0693    2.4477   19.8052 O   0  0  0  0  0  0  0  0  0  0  0  0
    6.3923    0.4512   19.8756 N   0  0  0  0  0  0  0  0  0  0  0  0
    4.8254    0.9042   21.1535 C   0  0  0  0  0  0  0  0  0  0  0  0
    4.2802    1.7196   22.9513 C   0  0  0  0  0  0  0  0  0  0  0  0
    4.3137    3.2979   23.3980 C   0  0  0  0  0  0  0  0  0  0  0  0
    3.3212    3.5536   24.5565 C   0  0  0  0  0  0  0  0  0  0  0  0
    3.5885    2.7955   25.7778 N   0  0  0  0  0  0  0  0  0  0  0  0
    4.6617    1.8248   25.6099 C   0  0  0  0  0  0  0  0  0  0  0  0
    4.4354    0.9276   24.3881 C   0  0  0  0  0  0  0  0  0  0  0  0
    7.8641    0.9803   16.8961 C   0  0  0  0  0  0  0  0  0  0  0  0
    8.3939    2.0493   15.7724 C   0  0  0  0  0  0  0  0  0  0  0  0
   12.6825   -1.4279   16.3389 H   0  0  0  0  0  0  0  0  0  0  0  0
   11.0691   -2.0149   16.7978 H   0  0  0  0  0  0  0  0  0  0  0  0
   11.7155   -2.4409   15.2530 H   0  0  0  0  0  0  0  0  0  0  0  0
   12.3158   -0.7697   13.6511 H   0  0  0  0  0  0  0  0  0  0  0  0
   11.4718    1.1221   12.3417 H   0  0  0  0  0  0  0  0  0  0  0  0
    9.5831    2.4700   13.2017 H   0  0  0  0  0  0  0  0  0  0  0  0
   10.2102    0.3846   18.0153 H   0  0  0  0  0  0  0  0  0  0  0  0
    9.9448    2.0033   17.5971 H   0  0  0  0  0  0  0  0  0  0  0  0
    6.4202   -0.4486   19.4104 H   0  0  0  0  0  0  0  0  0  0  0  0
    5.7679    1.6547   21.3831 H   0  0  0  0  0  0  0  0  0  0  0  0
    4.6250   -0.1177   21.5567 H   0  0  0  0  0  0  0  0  0  0  0  0
    3.2054    1.8618   22.7246 H   0  0  0  0  0  0  0  0  0  0  0  0
    5.3013    3.6045   23.7419 H   0  0  0  0  0  0  0  0  0  0  0  0
    4.0257    3.9852   22.5969 H   0  0  0  0  0  0  0  0  0  0  0  0
    3.3386    4.6200   24.8080 H   0  0  0  0  0  0  0  0  0  0  0  0
    2.3023    3.3344   24.2143 H   0  0  0  0  0  0  0  0  0  0  0  0
    2.7355    2.3255   26.0755 H   0  0  0  0  0  0  0  0  0  0  0  0
    5.6326    2.3302   25.5570 H   0  0  0  0  0  0  0  0  0  0  0  0
    4.7069    1.1994   26.5095 H   0  0  0  0  0  0  0  0  0  0  0  0
    3.5347    0.3667   24.6611 H   0  0  0  0  0  0  0  0  0  0  0  0
    5.2234    0.1827   24.3342 H   0  0  0  0  0  0  0  0  0  0  0  0
    7.3336    0.1361   16.4457 H   0  0  0  0  0  0  0  0  0  0  0  0
    7.4533    1.8976   17.3298 H   0  0  0  0  0  0  0  0  0  0  0  0
    8.7493    2.9898   16.2243 H   0  0  0  0  0  0  0  0  0  0  0  0
    7.5460    2.3396   15.1905 H   0  0  0  0  0  0  0  0  0  0  0  0
  1  2  1  0
  2  3  2  0
  3  4  1  0
  4  5  2  0
  5  6  1  0
  6  7  2  0
  7  8  1  0
  8  9  1  0
  9 10  1  0
 10 11  2  0
 10 12  1  0
 12 13  1  0
 13 14  1  0
 14 15  1  0
 15 16  1  0
 16 17  1  0
 17 18  1  0
 18 19  1  0
  9 20  1  0
 20 21  1  0
  7  2  1  0
 19 14  1  0
 21  6  1  0
  1 22  1  0
  1 23  1  0
  1 24  1  0
  3 25  1  0
  4 26  1  0
  5 27  1  0
  8 28  1  0
  8 29  1  0
 12 30  1  0
 13 31  1  0
 13 32  1  0
 14 33  1  0
 15 34  1  0
 15 35  1  0
 16 36  1  0
 16 37  1  0
 17 38  1  0
 18 39  1  0
 18 40  1  0
 19 41  1  0
 19 42  1  0
 20 43  1  0
 20 44  1  0
 21 45  1  0
 21 46  1  0
M  END
>  <Energy>  (320) 
416.31724648683632

>  <compound_id>  (320) 
21274

>  <target_id>  (320) 
1

>  <reference_id>  (320) 
44

>  <inspiration_ids>  (320) 
[146, 44]

>  <energy_score>  (320) 
432.50152176054945

>  <distance_score>  (320) 
6.55435580126304

>  <path>  (320) 
/opt/xchem-fragalysis-2/maxwin/BulkDock/SCRATCH/511013/C21274-P44/C21274-P44.minimised.mol

>  <scratch_subdir>  (320) 
/opt/xchem-fragalysis-2/maxwin/BulkDock/SCRATCH/511013/C21274-P44

>  <fragmenstein_runtime>  (320) 
6.707373380661011

>  <fragmenstein_outcome>  (320) 
too moved

>  <fragmenstein_mode>  (320) 
expansion

>  <fragmenstein_error>  (320) 


$$$$
C21280-P146
     RDKit          3D

 49 51  0  0  0  0  0  0  0  0999 V2000
   10.2335    2.8699   16.2631 C   0  0  0  0  0  0  0  0  0  0  0  0
   10.7079    3.5068   17.5409 C   0  0  0  0  0  0  0  0  0  0  0  0
   11.8468    4.3205   17.5190 C   0  0  0  0  0  0  0  0  0  0  0  0
   12.3115    4.9252   18.6863 C   0  0  0  0  0  0  0  0  0  0  0  0
   11.6135    4.7640   19.8792 C   0  0  0  0  0  0  0  0  0  0  0  0
   10.4681    3.9768   19.8972 C   0  0  0  0  0  0  0  0  0  0  0  0
   10.0258    3.3344   18.7609 C   0  0  0  0  0  0  0  0  0  0  0  0
    8.8876    2.3764   18.9233 C   0  0  0  0  0  0  0  0  0  0  0  0
    7.8161    2.0566   19.9247 N   0  0  0  0  0  0  0  0  0  0  0  0
    7.1172    0.7029   20.2857 C   0  0  0  0  0  0  0  0  0  0  0  0
    7.4306   -0.3789   19.8407 O   0  0  0  0  0  0  0  0  0  0  0  0
    5.3443    0.7514   21.5240 C   0  0  0  0  0  0  0  0  0  0  0  0
    4.0173    1.8350   22.5897 N   0  0  0  0  0  0  0  0  0  0  0  0
    2.7528    2.6532   22.0056 C   0  0  0  0  0  0  0  0  0  0  0  0
    3.4697    1.7344   24.2702 C   0  0  0  0  0  0  0  0  0  0  0  0
    3.3644    3.1355   25.0094 C   0  0  0  0  0  0  0  0  0  0  0  0
    2.5378    3.0275   26.2924 C   0  0  0  0  0  0  0  0  0  0  0  0
    3.1429    2.0871   27.2302 N   0  0  0  0  0  0  0  0  0  0  0  0
    3.1406    0.7358   26.6831 C   0  0  0  0  0  0  0  0  0  0  0  0
    3.8489    0.5943   25.3217 C   0  0  0  0  0  0  0  0  0  0  0  0
    8.9626    2.3463   20.9007 C   0  0  0  0  0  0  0  0  0  0  0  0
    9.5867    3.7495   21.0634 C   0  0  0  0  0  0  0  0  0  0  0  0
    9.2902    3.3258   15.9463 H   0  0  0  0  0  0  0  0  0  0  0  0
   10.9594    3.0041   15.4541 H   0  0  0  0  0  0  0  0  0  0  0  0
   10.0897    1.7933   16.3917 H   0  0  0  0  0  0  0  0  0  0  0  0
   12.3940    4.4725   16.5902 H   0  0  0  0  0  0  0  0  0  0  0  0
   13.1984    5.5523   18.6538 H   0  0  0  0  0  0  0  0  0  0  0  0
   11.9543    5.2667   20.7802 H   0  0  0  0  0  0  0  0  0  0  0  0
    9.2198    1.3926   18.5640 H   0  0  0  0  0  0  0  0  0  0  0  0
    8.2214    2.6912   18.1031 H   0  0  0  0  0  0  0  0  0  0  0  0
    5.7394    0.9449   22.3892 H   0  0  0  0  0  0  0  0  0  0  0  0
    4.8551   -0.1798   21.6715 H   0  0  0  0  0  0  0  0  0  0  0  0
    3.0072    3.7024   21.7664 H   0  0  0  0  0  0  0  0  0  0  0  0
    2.3053    2.1505   21.1481 H   0  0  0  0  0  0  0  0  0  0  0  0
    1.9958    2.8772   22.7560 H   0  0  0  0  0  0  0  0  0  0  0  0
    2.4252    1.6016   24.1034 H   0  0  0  0  0  0  0  0  0  0  0  0
    4.3459    3.5383   25.2828 H   0  0  0  0  0  0  0  0  0  0  0  0
    2.9044    3.8901   24.3640 H   0  0  0  0  0  0  0  0  0  0  0  0
    2.4918    4.0125   26.7705 H   0  0  0  0  0  0  0  0  0  0  0  0
    1.5024    2.7434   26.0705 H   0  0  0  0  0  0  0  0  0  0  0  0
    4.1031    2.3725   27.4198 H   0  0  0  0  0  0  0  0  0  0  0  0
    2.1128    0.3671   26.6426 H   0  0  0  0  0  0  0  0  0  0  0  0
    3.6424    0.0757   27.4014 H   0  0  0  0  0  0  0  0  0  0  0  0
    4.9145    0.5326   25.5488 H   0  0  0  0  0  0  0  0  0  0  0  0
    3.6153   -0.3988   24.9373 H   0  0  0  0  0  0  0  0  0  0  0  0
    9.7101    1.5431   20.8721 H   0  0  0  0  0  0  0  0  0  0  0  0
    8.6018    2.1942   21.8819 H   0  0  0  0  0  0  0  0  0  0  0  0
    8.8081    4.5185   21.1188 H   0  0  0  0  0  0  0  0  0  0  0  0
   10.1756    3.7805   21.9877 H   0  0  0  0  0  0  0  0  0  0  0  0
  1  2  1  0
  2  3  2  0
  3  4  1  0
  4  5  2  0
  5  6  1  0
  6  7  2  0
  7  8  1  0
  8  9  1  0
  9 10  1  0
 10 11  2  0
 10 12  1  0
 12 13  1  0
 13 14  1  0
 13 15  1  0
 15 16  1  0
 16 17  1  0
 17 18  1  0
 18 19  1  0
 19 20  1  0
  9 21  1  0
 21 22  1  0
  7  2  1  0
 20 15  1  0
 22  6  1  0
  1 23  1  0
  1 24  1  0
  1 25  1  0
  3 26  1  0
  4 27  1  0
  5 28  1  0
  8 29  1  0
  8 30  1  0
 12 31  1  0
 12 32  1  0
 14 33  1  0
 14 34  1  0
 14 35  1  0
 15 36  1  0
 16 37  1  0
 16 38  1  0
 17 39  1  0
 17 40  1  0
 18 41  1  0
 19 42  1  0
 19 43  1  0
 20 44  1  0
 20 45  1  0
 21 46  1  0
 21 47  1  0
 22 48  1  0
 22 49  1  0
M  END
>  <Energy>  (321) 
500.55373075227766

>  <compound_id>  (321) 
21280

>  <target_id>  (321) 
1

>  <reference_id>  (321) 
146

>  <inspiration_ids>  (321) 
[146, 44]

>  <energy_score>  (321) 
383.88150836250975

>  <distance_score>  (321) 
7.492775117674351

>  <path>  (321) 
/opt/xchem-fragalysis-2/maxwin/BulkDock/SCRATCH/511013/C21280-P146/C21280-P146.minimised.mol

>  <scratch_subdir>  (321) 
/opt/xchem-fragalysis-2/maxwin/BulkDock/SCRATCH/511013/C21280-P146

>  <fragmenstein_runtime>  (321) 
8.1168212890625

>  <fragmenstein_outcome>  (321) 
too moved

>  <fragmenstein_mode>  (321) 
expansion

>  <fragmenstein_error>  (321) 


$$$$
C21280-P44
     RDKit          3D

 49 51  0  0  0  0  0  0  0  0999 V2000
    7.9235   -1.3025   15.2280 C   0  0  0  0  0  0  0  0  0  0  0  0
    8.4688   -0.1626   16.0296 C   0  0  0  0  0  0  0  0  0  0  0  0
    9.4567    0.5433   15.2941 C   0  0  0  0  0  0  0  0  0  0  0  0
    9.9362    1.7664   15.7171 C   0  0  0  0  0  0  0  0  0  0  0  0
    9.5303    2.2408   16.9451 C   0  0  0  0  0  0  0  0  0  0  0  0
    8.7623    1.4381   17.7790 C   0  0  0  0  0  0  0  0  0  0  0  0
    8.1139    0.2913   17.3432 C   0  0  0  0  0  0  0  0  0  0  0  0
    6.8062   -0.1671   18.4845 C   0  0  0  0  0  0  0  0  0  0  0  0
    6.7357   -0.9071   20.1930 N   0  0  0  0  0  0  0  0  0  0  0  0
    5.3318   -0.8407   21.5977 C   0  0  0  0  0  0  0  0  0  0  0  0
    4.4021   -0.1370   21.3578 O   0  0  0  0  0  0  0  0  0  0  0  0
    5.0459   -1.6871   23.3184 C   0  0  0  0  0  0  0  0  0  0  0  0
    4.9522   -0.7746   24.6688 N   0  0  0  0  0  0  0  0  0  0  0  0
    4.4898    0.5922   24.6699 C   0  0  0  0  0  0  0  0  0  0  0  0
    4.6770   -1.5037   25.9332 C   0  0  0  0  0  0  0  0  0  0  0  0
    3.5441   -1.0038   26.8927 C   0  0  0  0  0  0  0  0  0  0  0  0
    3.8967    0.1405   27.8363 C   0  0  0  0  0  0  0  0  0  0  0  0
    5.1215   -0.1389   28.5715 N   0  0  0  0  0  0  0  0  0  0  0  0
    6.2267   -0.3782   27.6433 C   0  0  0  0  0  0  0  0  0  0  0  0
    5.9661   -1.6008   26.7645 C   0  0  0  0  0  0  0  0  0  0  0  0
    8.2549    0.1547   19.9494 C   0  0  0  0  0  0  0  0  0  0  0  0
    8.5391    1.7101   19.2038 C   0  0  0  0  0  0  0  0  0  0  0  0
    6.8655   -1.4006   15.3610 H   0  0  0  0  0  0  0  0  0  0  0  0
    8.0149   -1.1155   14.1572 H   0  0  0  0  0  0  0  0  0  0  0  0
    8.4452   -2.2365   15.3949 H   0  0  0  0  0  0  0  0  0  0  0  0
    9.7775    0.1867   14.3147 H   0  0  0  0  0  0  0  0  0  0  0  0
   10.6018    2.3518   15.0915 H   0  0  0  0  0  0  0  0  0  0  0  0
    9.8553    3.2208   17.2831 H   0  0  0  0  0  0  0  0  0  0  0  0
    6.3868    0.7475   18.7495 H   0  0  0  0  0  0  0  0  0  0  0  0
    6.1472   -0.7303   17.8024 H   0  0  0  0  0  0  0  0  0  0  0  0
    4.0000   -1.9887   23.2702 H   0  0  0  0  0  0  0  0  0  0  0  0
    5.6769   -2.5530   23.5741 H   0  0  0  0  0  0  0  0  0  0  0  0
    5.0906    1.1897   25.3615 H   0  0  0  0  0  0  0  0  0  0  0  0
    3.4471    0.7016   24.9685 H   0  0  0  0  0  0  0  0  0  0  0  0
    4.5742    1.1028   23.7237 H   0  0  0  0  0  0  0  0  0  0  0  0
    4.4105   -2.5297   25.6486 H   0  0  0  0  0  0  0  0  0  0  0  0
    2.6528   -0.6924   26.3529 H   0  0  0  0  0  0  0  0  0  0  0  0
    3.2364   -1.8640   27.5045 H   0  0  0  0  0  0  0  0  0  0  0  0
    3.9813    1.0928   27.3044 H   0  0  0  0  0  0  0  0  0  0  0  0
    3.0797    0.2679   28.5558 H   0  0  0  0  0  0  0  0  0  0  0  0
    5.3483    0.6647   29.1574 H   0  0  0  0  0  0  0  0  0  0  0  0
    7.1324   -0.5623   28.2325 H   0  0  0  0  0  0  0  0  0  0  0  0
    6.4295    0.5112   27.0374 H   0  0  0  0  0  0  0  0  0  0  0  0
    6.8342   -1.7828   26.1184 H   0  0  0  0  0  0  0  0  0  0  0  0
    5.8938   -2.4858   27.4122 H   0  0  0  0  0  0  0  0  0  0  0  0
    8.6384   -0.4790   19.2342 H   0  0  0  0  0  0  0  0  0  0  0  0
    7.4317    0.8835   20.0311 H   0  0  0  0  0  0  0  0  0  0  0  0
    9.3692    2.2326   19.6870 H   0  0  0  0  0  0  0  0  0  0  0  0
    7.7123    2.4379   19.2750 H   0  0  0  0  0  0  0  0  0  0  0  0
  1  2  1  0
  2  3  2  0
  3  4  1  0
  4  5  2  0
  5  6  1  0
  6  7  2  0
  7  8  1  0
  8  9  1  0
  9 10  1  0
 10 11  2  0
 10 12  1  0
 12 13  1  0
 13 14  1  0
 13 15  1  0
 15 16  1  0
 16 17  1  0
 17 18  1  0
 18 19  1  0
 19 20  1  0
  9 21  1  0
 21 22  1  0
  7  2  1  0
 20 15  1  0
 22  6  1  0
  1 23  1  0
  1 24  1  0
  1 25  1  0
  3 26  1  0
  4 27  1  0
  5 28  1  0
  8 29  1  0
  8 30  1  0
 12 31  1  0
 12 32  1  0
 14 33  1  0
 14 34  1  0
 14 35  1  0
 15 36  1  0
 16 37  1  0
 16 38  1  0
 17 39  1  0
 17 40  1  0
 18 41  1  0
 19 42  1  0
 19 43  1  0
 20 44  1  0
 20 45  1  0
 21 46  1  0
 21 47  1  0
 22 48  1  0
 22 49  1  0
M  END
>  <Energy>  (322) 
636.29716042394546

>  <compound_id>  (322) 
21280

>  <target_id>  (322) 
1

>  <reference_id>  (322) 
44

>  <inspiration_ids>  (322) 
[146, 44]

>  <energy_score>  (322) 
519.6249380341781

>  <distance_score>  (322) 
7.353698216901134

>  <path>  (322) 
/opt/xchem-fragalysis-2/maxwin/BulkDock/SCRATCH/511013/C21280-P44/C21280-P44.minimised.mol

>  <scratch_subdir>  (322) 
/opt/xchem-fragalysis-2/maxwin/BulkDock/SCRATCH/511013/C21280-P44

>  <fragmenstein_runtime>  (322) 
6.724941968917847

>  <fragmenstein_outcome>  (322) 
too moved

>  <fragmenstein_mode>  (322) 
expansion

>  <fragmenstein_error>  (322) 


$$$$
C21281-P146
     RDKit          3D

 50 52  0  0  0  0  0  0  0  0999 V2000
    8.6790    5.4301   18.1159 C   0  0  0  0  0  0  0  0  0  0  0  0
    9.1916    4.2714   17.3097 C   0  0  0  0  0  0  0  0  0  0  0  0
   10.2429    4.4751   16.3936 C   0  0  0  0  0  0  0  0  0  0  0  0
   10.7534    3.4337   15.6136 C   0  0  0  0  0  0  0  0  0  0  0  0
   10.2282    2.1613   15.7426 C   0  0  0  0  0  0  0  0  0  0  0  0
    9.2223    1.9530   16.6842 C   0  0  0  0  0  0  0  0  0  0  0  0
    8.6874    2.9786   17.4775 C   0  0  0  0  0  0  0  0  0  0  0  0
    7.5586    2.6030   18.5254 C   0  0  0  0  0  0  0  0  0  0  0  0
    7.3504    1.0131   19.2591 N   0  0  0  0  0  0  0  0  0  0  0  0
    6.9002    1.1460   20.9157 C   0  0  0  0  0  0  0  0  0  0  0  0
    7.8613    1.1629   21.5777 O   0  0  0  0  0  0  0  0  0  0  0  0
    4.6585    1.1015   21.5046 C   0  0  0  0  0  0  0  0  0  0  0  0
    3.0048    1.2825   21.4283 C   0  0  0  0  0  0  0  0  0  0  0  0
    2.9695    2.2345   20.5589 C   0  0  0  0  0  0  0  0  0  0  0  0
    3.7969    2.4733   22.9130 C   0  0  0  0  0  0  0  0  0  0  0  0
    3.3498    2.0200   24.4271 C   0  0  0  0  0  0  0  0  0  0  0  0
    3.1335    3.1458   25.4399 C   0  0  0  0  0  0  0  0  0  0  0  0
    1.8475    3.8100   25.2150 N   0  0  0  0  0  0  0  0  0  0  0  0
    1.5048    3.9382   23.7978 C   0  0  0  0  0  0  0  0  0  0  0  0
    2.7223    3.9006   22.8639 C   0  0  0  0  0  0  0  0  0  0  0  0
    8.5937    0.8230   18.6064 C   0  0  0  0  0  0  0  0  0  0  0  0
    8.7621    0.6117   17.0905 C   0  0  0  0  0  0  0  0  0  0  0  0
    9.0149    6.3857   17.6995 H   0  0  0  0  0  0  0  0  0  0  0  0
    9.0409    5.3607   19.1464 H   0  0  0  0  0  0  0  0  0  0  0  0
    7.5844    5.4466   18.1149 H   0  0  0  0  0  0  0  0  0  0  0  0
   10.6718    5.4688   16.2741 H   0  0  0  0  0  0  0  0  0  0  0  0
   11.5700    3.6205   14.9215 H   0  0  0  0  0  0  0  0  0  0  0  0
   10.6425    1.3407   15.1644 H   0  0  0  0  0  0  0  0  0  0  0  0
    7.7141    3.2380   19.4091 H   0  0  0  0  0  0  0  0  0  0  0  0
    6.6802    2.9463   17.9775 H   0  0  0  0  0  0  0  0  0  0  0  0
    2.0107    0.8800   21.0355 H   0  0  0  0  0  0  0  0  0  0  0  0
    3.4229    0.3322   21.3088 H   0  0  0  0  0  0  0  0  0  0  0  0
    2.4775    1.6229   22.3161 H   0  0  0  0  0  0  0  0  0  0  0  0
    2.2332    1.9476   19.7217 H   0  0  0  0  0  0  0  0  0  0  0  0
    2.1128    2.8116   21.1247 H   0  0  0  0  0  0  0  0  0  0  0  0
    3.1801    3.2861   20.0418 H   0  0  0  0  0  0  0  0  0  0  0  0
    4.3935    3.4493   22.7018 H   0  0  0  0  0  0  0  0  0  0  0  0
    3.8908    1.1807   24.8790 H   0  0  0  0  0  0  0  0  0  0  0  0
    2.3731    1.6441   24.2864 H   0  0  0  0  0  0  0  0  0  0  0  0
    3.9581    3.8666   25.4054 H   0  0  0  0  0  0  0  0  0  0  0  0
    3.1174    2.7267   26.4518 H   0  0  0  0  0  0  0  0  0  0  0  0
    1.8624    4.7285   25.6579 H   0  0  0  0  0  0  0  0  0  0  0  0
    0.9944    4.9000   23.6632 H   0  0  0  0  0  0  0  0  0  0  0  0
    0.7633    3.1873   23.5276 H   0  0  0  0  0  0  0  0  0  0  0  0
    3.3338    4.7378   23.2678 H   0  0  0  0  0  0  0  0  0  0  0  0
    2.5024    4.3169   21.8778 H   0  0  0  0  0  0  0  0  0  0  0  0
    8.7903   -0.1261   19.0820 H   0  0  0  0  0  0  0  0  0  0  0  0
    9.3245    1.4737   19.0981 H   0  0  0  0  0  0  0  0  0  0  0  0
    9.5500   -0.1035   16.8512 H   0  0  0  0  0  0  0  0  0  0  0  0
    7.8757    0.2951   16.5429 H   0  0  0  0  0  0  0  0  0  0  0  0
  1  2  1  0
  2  3  2  0
  3  4  1  0
  4  5  2  0
  5  6  1  0
  6  7  2  0
  7  8  1  0
  8  9  1  0
  9 10  1  0
 10 11  2  0
 10 12  1  0
 12 13  1  0
 12 14  1  0
 12 15  1  0
 15 16  1  0
 16 17  1  0
 17 18  1  0
 18 19  1  0
 19 20  1  0
  9 21  1  0
 21 22  1  0
  7  2  1  0
 20 15  1  0
 22  6  1  0
  1 23  1  0
  1 24  1  0
  1 25  1  0
  3 26  1  0
  4 27  1  0
  5 28  1  0
  8 29  1  0
  8 30  1  0
 13 31  1  0
 13 32  1  0
 13 33  1  0
 14 34  1  0
 14 35  1  0
 14 36  1  0
 15 37  1  0
 16 38  1  0
 16 39  1  0
 17 40  1  0
 17 41  1  0
 18 42  1  0
 19 43  1  0
 19 44  1  0
 20 45  1  0
 20 46  1  0
 21 47  1  0
 21 48  1  0
 22 49  1  0
 22 50  1  0
M  END
>  <Energy>  (323) 
1179.1965268629003

>  <compound_id>  (323) 
21281

>  <target_id>  (323) 
1

>  <reference_id>  (323) 
146

>  <inspiration_ids>  (323) 
[146, 44]

>  <energy_score>  (323) 
1075.008588188533

>  <distance_score>  (323) 
7.079660340901062

>  <path>  (323) 
/opt/xchem-fragalysis-2/maxwin/BulkDock/SCRATCH/511013/C21281-P146/C21281-P146.minimised.mol

>  <scratch_subdir>  (323) 
/opt/xchem-fragalysis-2/maxwin/BulkDock/SCRATCH/511013/C21281-P146

>  <fragmenstein_runtime>  (323) 
8.296375036239624

>  <fragmenstein_outcome>  (323) 
too moved

>  <fragmenstein_mode>  (323) 
expansion

>  <fragmenstein_error>  (323) 


$$$$
C21281-P44
     RDKit          3D

 50 52  0  0  0  0  0  0  0  0999 V2000
    8.4502    2.1533   18.5220 C   0  0  0  0  0  0  0  0  0  0  0  0
    8.7385    2.6958   17.1562 C   0  0  0  0  0  0  0  0  0  0  0  0
    9.6702    2.0234   16.3460 C   0  0  0  0  0  0  0  0  0  0  0  0
   10.1098    2.5676   15.1446 C   0  0  0  0  0  0  0  0  0  0  0  0
    9.5589    3.7639   14.7044 C   0  0  0  0  0  0  0  0  0  0  0  0
    8.5340    4.3666   15.4460 C   0  0  0  0  0  0  0  0  0  0  0  0
    8.1361    3.8776   16.6860 C   0  0  0  0  0  0  0  0  0  0  0  0
    6.8962    4.5031   17.3623 C   0  0  0  0  0  0  0  0  0  0  0  0
    6.1579    5.8402   16.9986 N   0  0  0  0  0  0  0  0  0  0  0  0
    4.9774    6.0041   17.8359 C   0  0  0  0  0  0  0  0  0  0  0  0
    3.8369    5.6544   17.6557 O   0  0  0  0  0  0  0  0  0  0  0  0
    5.2300    6.8872   19.1482 C   0  0  0  0  0  0  0  0  0  0  0  0
    5.0835    8.3333   18.5723 C   0  0  0  0  0  0  0  0  0  0  0  0
    6.6610    6.8181   19.7039 C   0  0  0  0  0  0  0  0  0  0  0  0
    4.1580    6.7920   20.3694 C   0  0  0  0  0  0  0  0  0  0  0  0
    2.6452    6.6914   20.0582 C   0  0  0  0  0  0  0  0  0  0  0  0
    2.0531    5.2996   20.3234 C   0  0  0  0  0  0  0  0  0  0  0  0
    2.2634    4.7609   21.6782 N   0  0  0  0  0  0  0  0  0  0  0  0
    3.3407    5.4429   22.3899 C   0  0  0  0  0  0  0  0  0  0  0  0
    4.5209    5.7930   21.4796 C   0  0  0  0  0  0  0  0  0  0  0  0
    6.3021    5.2896   15.6092 C   0  0  0  0  0  0  0  0  0  0  0  0
    7.6837    5.4766   14.9396 C   0  0  0  0  0  0  0  0  0  0  0  0
    8.4467    1.0590   18.5229 H   0  0  0  0  0  0  0  0  0  0  0  0
    7.4853    2.4768   18.8958 H   0  0  0  0  0  0  0  0  0  0  0  0
    9.2009    2.5271   19.2230 H   0  0  0  0  0  0  0  0  0  0  0  0
   10.0668    1.0705   16.6628 H   0  0  0  0  0  0  0  0  0  0  0  0
   10.8536    2.0506   14.5465 H   0  0  0  0  0  0  0  0  0  0  0  0
    9.8572    4.1769   13.7448 H   0  0  0  0  0  0  0  0  0  0  0  0
    7.1818    4.6386   18.4076 H   0  0  0  0  0  0  0  0  0  0  0  0
    6.1186    3.7323   17.3669 H   0  0  0  0  0  0  0  0  0  0  0  0
    4.0809    8.4996   18.1627 H   0  0  0  0  0  0  0  0  0  0  0  0
    5.7974    8.5171   17.7603 H   0  0  0  0  0  0  0  0  0  0  0  0
    5.2623    9.0939   19.3410 H   0  0  0  0  0  0  0  0  0  0  0  0
    7.4146    7.0475   18.9427 H   0  0  0  0  0  0  0  0  0  0  0  0
    6.8042    7.5379   20.5184 H   0  0  0  0  0  0  0  0  0  0  0  0
    6.8850    5.8300   20.0994 H   0  0  0  0  0  0  0  0  0  0  0  0
    4.2505    7.7714   20.8673 H   0  0  0  0  0  0  0  0  0  0  0  0
    2.4191    7.0171   19.0388 H   0  0  0  0  0  0  0  0  0  0  0  0
    2.1141    7.4052   20.7043 H   0  0  0  0  0  0  0  0  0  0  0  0
    0.9745    5.3237   20.1327 H   0  0  0  0  0  0  0  0  0  0  0  0
    2.4749    4.5942   19.5983 H   0  0  0  0  0  0  0  0  0  0  0  0
    2.5762    3.7907   21.5313 H   0  0  0  0  0  0  0  0  0  0  0  0
    2.9487    6.3528   22.8601 H   0  0  0  0  0  0  0  0  0  0  0  0
    3.6865    4.7982   23.2059 H   0  0  0  0  0  0  0  0  0  0  0  0
    4.9209    4.8983   21.0131 H   0  0  0  0  0  0  0  0  0  0  0  0
    5.3238    6.2115   22.0984 H   0  0  0  0  0  0  0  0  0  0  0  0
    5.7968    4.3245   15.4260 H   0  0  0  0  0  0  0  0  0  0  0  0
    5.6416    5.9719   15.0503 H   0  0  0  0  0  0  0  0  0  0  0  0
    7.5719    5.4070   13.8520 H   0  0  0  0  0  0  0  0  0  0  0  0
    8.1231    6.4478   15.1912 H   0  0  0  0  0  0  0  0  0  0  0  0
  1  2  1  0
  2  3  2  0
  3  4  1  0
  4  5  2  0
  5  6  1  0
  6  7  2  0
  7  8  1  0
  8  9  1  0
  9 10  1  0
 10 11  2  0
 10 12  1  0
 12 13  1  0
 12 14  1  0
 12 15  1  0
 15 16  1  0
 16 17  1  0
 17 18  1  0
 18 19  1  0
 19 20  1  0
  9 21  1  0
 21 22  1  0
  7  2  1  0
 20 15  1  0
 22  6  1  0
  1 23  1  0
  1 24  1  0
  1 25  1  0
  3 26  1  0
  4 27  1  0
  5 28  1  0
  8 29  1  0
  8 30  1  0
 13 31  1  0
 13 32  1  0
 13 33  1  0
 14 34  1  0
 14 35  1  0
 14 36  1  0
 15 37  1  0
 16 38  1  0
 16 39  1  0
 17 40  1  0
 17 41  1  0
 18 42  1  0
 19 43  1  0
 19 44  1  0
 20 45  1  0
 20 46  1  0
 21 47  1  0
 21 48  1  0
 22 49  1  0
 22 50  1  0
M  END
>  <Energy>  (324) 
137.90224921251331

>  <compound_id>  (324) 
21281

>  <target_id>  (324) 
1

>  <reference_id>  (324) 
44

>  <inspiration_ids>  (324) 
[146, 44]

>  <energy_score>  (324) 
33.714310538149164

>  <distance_score>  (324) 
8.910946383419658

>  <path>  (324) 
/opt/xchem-fragalysis-2/maxwin/BulkDock/SCRATCH/511013/C21281-P44/C21281-P44.minimised.mol

>  <scratch_subdir>  (324) 
/opt/xchem-fragalysis-2/maxwin/BulkDock/SCRATCH/511013/C21281-P44

>  <fragmenstein_runtime>  (324) 
9.27756404876709

>  <fragmenstein_outcome>  (324) 
too moved

>  <fragmenstein_mode>  (324) 
expansion

>  <fragmenstein_error>  (324) 


$$$$
C21285-P146
     RDKit          3D

 44 46  0  0  0  0  0  0  0  0999 V2000
    8.2492    2.4017   19.4161 O   0  0  0  0  0  0  0  0  0  0  0  0
    8.1313    3.2869   18.5796 C   0  0  0  0  0  0  0  0  0  0  0  0
    7.5353    3.0552   17.3869 O   0  0  0  0  0  0  0  0  0  0  0  0
    8.6820    4.7275   18.6700 C   0  0  0  0  0  0  0  0  0  0  0  0
   10.1497    4.6049   18.2423 C   0  0  0  0  0  0  0  0  0  0  0  0
   10.5233    4.0511   17.0077 C   0  0  0  0  0  0  0  0  0  0  0  0
   11.8487    4.1071   16.5909 C   0  0  0  0  0  0  0  0  0  0  0  0
   12.8231    4.6657   17.4191 C   0  0  0  0  0  0  0  0  0  0  0  0
   12.4675    5.1916   18.6560 C   0  0  0  0  0  0  0  0  0  0  0  0
   11.1241    5.1978   19.0318 C   0  0  0  0  0  0  0  0  0  0  0  0
   10.5899    5.9260   20.2102 C   0  0  0  0  0  0  0  0  0  0  0  0
    9.1231    6.2997   19.8733 C   0  0  0  0  0  0  0  0  0  0  0  0
    8.1258    5.1785   20.0759 N   0  0  0  0  0  0  0  0  0  0  0  0
    6.8406    5.7215   20.4474 C   0  0  0  0  0  0  0  0  0  0  0  0
    5.9054    6.0504   19.7656 O   0  0  0  0  0  0  0  0  0  0  0  0
    6.7496    5.9871   21.9710 C   0  0  0  0  0  0  0  0  0  0  0  0
    5.5441    5.3399   22.7056 C   0  0  0  0  0  0  0  0  0  0  0  0
    4.1265    5.7652   22.2951 C   0  0  0  0  0  0  0  0  0  0  0  0
    3.0487    4.9390   23.0352 C   0  0  0  0  0  0  0  0  0  0  0  0
    3.4493    4.4660   24.3667 N   0  0  0  0  0  0  0  0  0  0  0  0
    4.3489    5.4073   25.0102 C   0  0  0  0  0  0  0  0  0  0  0  0
    5.6755    5.5154   24.2417 C   0  0  0  0  0  0  0  0  0  0  0  0
    7.1481    2.1436   17.4635 H   0  0  0  0  0  0  0  0  0  0  0  0
    8.1237    5.3110   17.9174 H   0  0  0  0  0  0  0  0  0  0  0  0
    9.7841    3.6214   16.3352 H   0  0  0  0  0  0  0  0  0  0  0  0
   12.1339    3.6968   15.6246 H   0  0  0  0  0  0  0  0  0  0  0  0
   13.8569    4.6913   17.0845 H   0  0  0  0  0  0  0  0  0  0  0  0
   13.2199    5.6606   19.2841 H   0  0  0  0  0  0  0  0  0  0  0  0
   10.6452    5.3030   21.1095 H   0  0  0  0  0  0  0  0  0  0  0  0
   11.1637    6.8446   20.3772 H   0  0  0  0  0  0  0  0  0  0  0  0
    8.9738    6.9079   18.9621 H   0  0  0  0  0  0  0  0  0  0  0  0
    8.8659    7.0300   20.6571 H   0  0  0  0  0  0  0  0  0  0  0  0
    6.7241    7.0759   22.1035 H   0  0  0  0  0  0  0  0  0  0  0  0
    7.6749    5.6324   22.4430 H   0  0  0  0  0  0  0  0  0  0  0  0
    5.6306    4.2843   22.4664 H   0  0  0  0  0  0  0  0  0  0  0  0
    3.9697    5.6471   21.2190 H   0  0  0  0  0  0  0  0  0  0  0  0
    3.9917    6.8308   22.5210 H   0  0  0  0  0  0  0  0  0  0  0  0
    2.7779    4.0633   22.4365 H   0  0  0  0  0  0  0  0  0  0  0  0
    2.1414    5.5495   23.1184 H   0  0  0  0  0  0  0  0  0  0  0  0
    2.6149    4.3205   24.9333 H   0  0  0  0  0  0  0  0  0  0  0  0
    3.8741    6.3932   25.0907 H   0  0  0  0  0  0  0  0  0  0  0  0
    4.5572    5.0785   26.0344 H   0  0  0  0  0  0  0  0  0  0  0  0
    6.3824    4.7664   24.6188 H   0  0  0  0  0  0  0  0  0  0  0  0
    6.1182    6.4933   24.4700 H   0  0  0  0  0  0  0  0  0  0  0  0
  1  2  2  0
  2  3  1  0
  2  4  1  0
  4  5  1  0
  5  6  2  0
  6  7  1  0
  7  8  2  0
  8  9  1  0
  9 10  2  0
 10 11  1  0
 11 12  1  0
 12 13  1  0
 13 14  1  0
 14 15  2  0
 14 16  1  0
 16 17  1  0
 17 18  1  0
 18 19  1  0
 19 20  1  0
 20 21  1  0
 21 22  1  0
 13  4  1  0
 22 17  1  0
 10  5  1  0
  3 23  1  0
  4 24  1  0
  6 25  1  0
  7 26  1  0
  8 27  1  0
  9 28  1  0
 11 29  1  0
 11 30  1  0
 12 31  1  0
 12 32  1  0
 16 33  1  0
 16 34  1  0
 17 35  1  0
 18 36  1  0
 18 37  1  0
 19 38  1  0
 19 39  1  0
 20 40  1  0
 21 41  1  0
 21 42  1  0
 22 43  1  0
 22 44  1  0
M  END
>  <Energy>  (325) 
137.35646522358761

>  <compound_id>  (325) 
21285

>  <target_id>  (325) 
1

>  <reference_id>  (325) 
146

>  <inspiration_ids>  (325) 
[146, 44]

>  <energy_score>  (325) 
12.556137571304134

>  <distance_score>  (325) 
8.57702275963538

>  <path>  (325) 
/opt/xchem-fragalysis-2/maxwin/BulkDock/SCRATCH/511013/C21285-P146/C21285-P146.minimised.mol

>  <scratch_subdir>  (325) 
/opt/xchem-fragalysis-2/maxwin/BulkDock/SCRATCH/511013/C21285-P146

>  <fragmenstein_runtime>  (325) 
10.544214010238647

>  <fragmenstein_outcome>  (325) 
too moved

>  <fragmenstein_mode>  (325) 
expansion

>  <fragmenstein_error>  (325) 


$$$$
C21285-P44
     RDKit          3D

 44 46  0  0  0  0  0  0  0  0999 V2000
    8.6622    0.7125   18.2697 O   0  0  0  0  0  0  0  0  0  0  0  0
    8.4279    1.9154   18.2388 C   0  0  0  0  0  0  0  0  0  0  0  0
    7.9134    2.4942   19.3311 O   0  0  0  0  0  0  0  0  0  0  0  0
    8.7284    2.9625   17.1332 C   0  0  0  0  0  0  0  0  0  0  0  0
    9.3960    2.2751   15.9276 C   0  0  0  0  0  0  0  0  0  0  0  0
    9.4867    0.9165   15.6122 C   0  0  0  0  0  0  0  0  0  0  0  0
   10.4333    0.4787   14.6830 C   0  0  0  0  0  0  0  0  0  0  0  0
   11.2604    1.3979   14.0359 C   0  0  0  0  0  0  0  0  0  0  0  0
   11.1050    2.7646   14.2719 C   0  0  0  0  0  0  0  0  0  0  0  0
   10.1510    3.1860   15.1930 C   0  0  0  0  0  0  0  0  0  0  0  0
    9.7553    4.5916   15.5229 C   0  0  0  0  0  0  0  0  0  0  0  0
    8.2191    4.5121   15.8942 C   0  0  0  0  0  0  0  0  0  0  0  0
    7.4973    3.9311   17.1397 N   0  0  0  0  0  0  0  0  0  0  0  0
    7.1418    5.0106   18.0587 C   0  0  0  0  0  0  0  0  0  0  0  0
    7.7520    5.4828   18.9832 O   0  0  0  0  0  0  0  0  0  0  0  0
    5.6739    5.4874   17.7638 C   0  0  0  0  0  0  0  0  0  0  0  0
    4.7264    6.0624   18.9155 C   0  0  0  0  0  0  0  0  0  0  0  0
    3.2621    5.5410   18.7716 C   0  0  0  0  0  0  0  0  0  0  0  0
    2.4611    5.4374   20.0814 C   0  0  0  0  0  0  0  0  0  0  0  0
    2.7770    6.5276   20.9955 N   0  0  0  0  0  0  0  0  0  0  0  0
    4.1744    6.4430   21.4235 C   0  0  0  0  0  0  0  0  0  0  0  0
    5.1751    5.9194   20.3739 C   0  0  0  0  0  0  0  0  0  0  0  0
    7.6712    1.7472   19.9016 H   0  0  0  0  0  0  0  0  0  0  0  0
    9.5181    3.5207   17.6697 H   0  0  0  0  0  0  0  0  0  0  0  0
    8.8578    0.1752   16.0933 H   0  0  0  0  0  0  0  0  0  0  0  0
   10.5229   -0.5818   14.4584 H   0  0  0  0  0  0  0  0  0  0  0  0
   11.9925    1.0476   13.3131 H   0  0  0  0  0  0  0  0  0  0  0  0
   11.7056    3.4850   13.7246 H   0  0  0  0  0  0  0  0  0  0  0  0
   10.3576    5.0144   16.3339 H   0  0  0  0  0  0  0  0  0  0  0  0
    9.8684    5.2240   14.6351 H   0  0  0  0  0  0  0  0  0  0  0  0
    7.8981    5.5650   15.8704 H   0  0  0  0  0  0  0  0  0  0  0  0
    7.6719    4.0695   15.0449 H   0  0  0  0  0  0  0  0  0  0  0  0
    5.1583    4.6606   17.2598 H   0  0  0  0  0  0  0  0  0  0  0  0
    5.7679    6.2751   17.0039 H   0  0  0  0  0  0  0  0  0  0  0  0
    4.6805    7.1463   18.7303 H   0  0  0  0  0  0  0  0  0  0  0  0
    2.7366    6.2179   18.0848 H   0  0  0  0  0  0  0  0  0  0  0  0
    3.2443    4.5590   18.2896 H   0  0  0  0  0  0  0  0  0  0  0  0
    2.6224    4.4766   20.5741 H   0  0  0  0  0  0  0  0  0  0  0  0
    1.3916    5.4698   19.8433 H   0  0  0  0  0  0  0  0  0  0  0  0
    2.6410    7.4087   20.5013 H   0  0  0  0  0  0  0  0  0  0  0  0
    4.4866    7.4443   21.7442 H   0  0  0  0  0  0  0  0  0  0  0  0
    4.2386    5.8122   22.3185 H   0  0  0  0  0  0  0  0  0  0  0  0
    5.3498    4.8689   20.5708 H   0  0  0  0  0  0  0  0  0  0  0  0
    6.1264    6.4390   20.5294 H   0  0  0  0  0  0  0  0  0  0  0  0
  1  2  2  0
  2  3  1  0
  2  4  1  0
  4  5  1  0
  5  6  2  0
  6  7  1  0
  7  8  2  0
  8  9  1  0
  9 10  2  0
 10 11  1  0
 11 12  1  0
 12 13  1  0
 13 14  1  0
 14 15  2  0
 14 16  1  0
 16 17  1  0
 17 18  1  0
 18 19  1  0
 19 20  1  0
 20 21  1  0
 21 22  1  0
 13  4  1  0
 22 17  1  0
 10  5  1  0
  3 23  1  0
  4 24  1  0
  6 25  1  0
  7 26  1  0
  8 27  1  0
  9 28  1  0
 11 29  1  0
 11 30  1  0
 12 31  1  0
 12 32  1  0
 16 33  1  0
 16 34  1  0
 17 35  1  0
 18 36  1  0
 18 37  1  0
 19 38  1  0
 19 39  1  0
 20 40  1  0
 21 41  1  0
 21 42  1  0
 22 43  1  0
 22 44  1  0
M  END
>  <Energy>  (326) 
172.08640681625863

>  <compound_id>  (326) 
21285

>  <target_id>  (326) 
1

>  <reference_id>  (326) 
44

>  <inspiration_ids>  (326) 
[146, 44]

>  <energy_score>  (326) 
47.28607916397402

>  <distance_score>  (326) 
8.564624110441109

>  <path>  (326) 
/opt/xchem-fragalysis-2/maxwin/BulkDock/SCRATCH/511013/C21285-P44/C21285-P44.minimised.mol

>  <scratch_subdir>  (326) 
/opt/xchem-fragalysis-2/maxwin/BulkDock/SCRATCH/511013/C21285-P44

>  <fragmenstein_runtime>  (326) 
7.7042624950408936

>  <fragmenstein_outcome>  (326) 
too moved

>  <fragmenstein_mode>  (326) 
expansion

>  <fragmenstein_error>  (326) 


$$$$
C21286-P146
     RDKit          3D

 48 50  0  0  0  0  0  0  0  0999 V2000
    3.0254    5.2582   19.6586 C   0  0  0  0  0  0  0  0  0  0  0  0
    3.6187    6.1445   20.7818 C   0  0  0  0  0  0  0  0  0  0  0  0
    2.6196    7.3450   20.8911 C   0  0  0  0  0  0  0  0  0  0  0  0
    4.9853    6.7577   20.1668 C   0  0  0  0  0  0  0  0  0  0  0  0
    5.0627    7.9627   20.2230 O   0  0  0  0  0  0  0  0  0  0  0  0
    5.8688    5.7891   19.5513 N   0  0  0  0  0  0  0  0  0  0  0  0
    7.0910    5.9824   18.6967 C   0  0  0  0  0  0  0  0  0  0  0  0
    7.6937    4.7389   17.9855 C   0  0  0  0  0  0  0  0  0  0  0  0
    8.5662    4.1019   19.0105 C   0  0  0  0  0  0  0  0  0  0  0  0
    9.7596    3.4032   18.7662 C   0  0  0  0  0  0  0  0  0  0  0  0
   10.1849    2.9760   17.4594 C   0  0  0  0  0  0  0  0  0  0  0  0
   10.5507    2.5630   16.4381 N   0  0  0  0  0  0  0  0  0  0  0  0
   10.5938    3.1249   19.8544 C   0  0  0  0  0  0  0  0  0  0  0  0
   10.1957    3.3848   21.1596 C   0  0  0  0  0  0  0  0  0  0  0  0
    8.9774    4.0128   21.3867 C   0  0  0  0  0  0  0  0  0  0  0  0
    8.1564    4.3941   20.3179 C   0  0  0  0  0  0  0  0  0  0  0  0
    6.9362    5.3094   20.5797 C   0  0  0  0  0  0  0  0  0  0  0  0
    3.6514    5.4029   22.1779 C   0  0  0  0  0  0  0  0  0  0  0  0
    2.3559    4.5858   22.5035 C   0  0  0  0  0  0  0  0  0  0  0  0
    2.0641    4.4097   24.0004 C   0  0  0  0  0  0  0  0  0  0  0  0
    3.2941    4.2739   24.7636 N   0  0  0  0  0  0  0  0  0  0  0  0
    4.1047    5.4888   24.6878 C   0  0  0  0  0  0  0  0  0  0  0  0
    3.9347    6.3057   23.3917 C   0  0  0  0  0  0  0  0  0  0  0  0
    3.6303    4.3744   19.4795 H   0  0  0  0  0  0  0  0  0  0  0  0
    2.9920    5.8035   18.7066 H   0  0  0  0  0  0  0  0  0  0  0  0
    2.0032    4.9315   19.8716 H   0  0  0  0  0  0  0  0  0  0  0  0
    2.4937    7.8421   19.9207 H   0  0  0  0  0  0  0  0  0  0  0  0
    1.6237    7.0303   21.2166 H   0  0  0  0  0  0  0  0  0  0  0  0
    2.9743    8.1108   21.5891 H   0  0  0  0  0  0  0  0  0  0  0  0
    6.6591    6.5653   17.8666 H   0  0  0  0  0  0  0  0  0  0  0  0
    7.8216    6.7134   19.0924 H   0  0  0  0  0  0  0  0  0  0  0  0
    6.9163    4.0521   17.6382 H   0  0  0  0  0  0  0  0  0  0  0  0
    8.2869    5.0750   17.1283 H   0  0  0  0  0  0  0  0  0  0  0  0
   11.5806    2.7107   19.7008 H   0  0  0  0  0  0  0  0  0  0  0  0
   10.8505    3.1407   21.9928 H   0  0  0  0  0  0  0  0  0  0  0  0
    8.7039    4.2819   22.4049 H   0  0  0  0  0  0  0  0  0  0  0  0
    7.2922    6.2035   21.1221 H   0  0  0  0  0  0  0  0  0  0  0  0
    6.3469    4.7624   21.3220 H   0  0  0  0  0  0  0  0  0  0  0  0
    4.4784    4.6946   22.1494 H   0  0  0  0  0  0  0  0  0  0  0  0
    2.4369    3.5972   22.0389 H   0  0  0  0  0  0  0  0  0  0  0  0
    1.4701    5.0525   22.0616 H   0  0  0  0  0  0  0  0  0  0  0  0
    1.4446    3.5169   24.1406 H   0  0  0  0  0  0  0  0  0  0  0  0
    1.4762    5.2565   24.3765 H   0  0  0  0  0  0  0  0  0  0  0  0
    3.0800    4.0636   25.7377 H   0  0  0  0  0  0  0  0  0  0  0  0
    5.1554    5.1948   24.7907 H   0  0  0  0  0  0  0  0  0  0  0  0
    3.8785    6.1393   25.5413 H   0  0  0  0  0  0  0  0  0  0  0  0
    3.1069    7.0101   23.5384 H   0  0  0  0  0  0  0  0  0  0  0  0
    4.8381    6.9025   23.2209 H   0  0  0  0  0  0  0  0  0  0  0  0
  1  2  1  0
  2  3  1  0
  2  4  1  0
  4  5  2  0
  4  6  1  0
  6  7  1  0
  7  8  1  0
  8  9  1  0
  9 10  2  0
 10 11  1  0
 11 12  3  0
 10 13  1  0
 13 14  2  0
 14 15  1  0
 15 16  2  0
 16 17  1  0
  2 18  1  0
 18 19  1  0
 19 20  1  0
 20 21  1  0
 21 22  1  0
 22 23  1  0
 17  6  1  0
 23 18  1  0
 16  9  1  0
  1 24  1  0
  1 25  1  0
  1 26  1  0
  3 27  1  0
  3 28  1  0
  3 29  1  0
  7 30  1  0
  7 31  1  0
  8 32  1  0
  8 33  1  0
 13 34  1  0
 14 35  1  0
 15 36  1  0
 17 37  1  0
 17 38  1  0
 18 39  1  0
 19 40  1  0
 19 41  1  0
 20 42  1  0
 20 43  1  0
 21 44  1  0
 22 45  1  0
 22 46  1  0
 23 47  1  0
 23 48  1  0
M  END
>  <Energy>  (327) 
142.67314686366794

>  <compound_id>  (327) 
21286

>  <target_id>  (327) 
1

>  <reference_id>  (327) 
146

>  <inspiration_ids>  (327) 
[146, 44]

>  <energy_score>  (327) 
39.26305058033097

>  <distance_score>  (327) 
8.608475791453607

>  <path>  (327) 
/opt/xchem-fragalysis-2/maxwin/BulkDock/SCRATCH/511013/C21286-P146/C21286-P146.minimised.mol

>  <scratch_subdir>  (327) 
/opt/xchem-fragalysis-2/maxwin/BulkDock/SCRATCH/511013/C21286-P146

>  <fragmenstein_runtime>  (327) 
8.10101056098938

>  <fragmenstein_outcome>  (327) 
too moved

>  <fragmenstein_mode>  (327) 
expansion

>  <fragmenstein_error>  (327) 


$$$$
C21286-P44
     RDKit          3D

 48 50  0  0  0  0  0  0  0  0999 V2000
    2.0579    2.7109   21.1362 C   0  0  0  0  0  0  0  0  0  0  0  0
    3.2459    1.9106   22.0168 C   0  0  0  0  0  0  0  0  0  0  0  0
    3.8042    3.6716   22.5829 C   0  0  0  0  0  0  0  0  0  0  0  0
    4.7113    0.5682   21.2697 C   0  0  0  0  0  0  0  0  0  0  0  0
    4.6914   -0.4923   21.9471 O   0  0  0  0  0  0  0  0  0  0  0  0
    6.2912    0.5301   19.9952 N   0  0  0  0  0  0  0  0  0  0  0  0
    7.3702   -0.3545   19.8146 C   0  0  0  0  0  0  0  0  0  0  0  0
    8.1794    1.2871   19.2031 C   0  0  0  0  0  0  0  0  0  0  0  0
    8.5700    1.1972   17.7856 C   0  0  0  0  0  0  0  0  0  0  0  0
    9.3684    1.9400   16.9339 C   0  0  0  0  0  0  0  0  0  0  0  0
    9.6732    3.3198   17.1610 C   0  0  0  0  0  0  0  0  0  0  0  0
    9.9248    4.4519   17.2252 N   0  0  0  0  0  0  0  0  0  0  0  0
    9.7456    1.3936   15.6970 C   0  0  0  0  0  0  0  0  0  0  0  0
    9.1596    0.2185   15.2478 C   0  0  0  0  0  0  0  0  0  0  0  0
    8.0951   -0.3058   15.9658 C   0  0  0  0  0  0  0  0  0  0  0  0
    7.7909    0.2342   17.2280 C   0  0  0  0  0  0  0  0  0  0  0  0
    6.4136   -0.1187   18.2161 C   0  0  0  0  0  0  0  0  0  0  0  0
    3.0599    1.9758   23.9071 C   0  0  0  0  0  0  0  0  0  0  0  0
    4.2817    1.8401   24.8732 C   0  0  0  0  0  0  0  0  0  0  0  0
    3.8348    1.5745   26.3266 C   0  0  0  0  0  0  0  0  0  0  0  0
    2.9627    2.6236   26.8446 N   0  0  0  0  0  0  0  0  0  0  0  0
    1.7317    2.7201   26.0711 C   0  0  0  0  0  0  0  0  0  0  0  0
    2.0161    2.9779   24.5781 C   0  0  0  0  0  0  0  0  0  0  0  0
    1.9469    2.2997   20.1528 H   0  0  0  0  0  0  0  0  0  0  0  0
    1.1045    2.9041   21.6266 H   0  0  0  0  0  0  0  0  0  0  0  0
    2.3286    3.7451   20.8649 H   0  0  0  0  0  0  0  0  0  0  0  0
    2.9303    4.2483   22.8828 H   0  0  0  0  0  0  0  0  0  0  0  0
    4.6112    3.6448   23.3058 H   0  0  0  0  0  0  0  0  0  0  0  0
    4.1926    4.3682   21.8128 H   0  0  0  0  0  0  0  0  0  0  0  0
    7.8794   -0.9206   19.0981 H   0  0  0  0  0  0  0  0  0  0  0  0
    8.3792   -0.2541   20.1917 H   0  0  0  0  0  0  0  0  0  0  0  0
    7.5297    2.1657   19.2905 H   0  0  0  0  0  0  0  0  0  0  0  0
    8.9869    1.5488   19.8731 H   0  0  0  0  0  0  0  0  0  0  0  0
   10.4341    1.9295   15.0459 H   0  0  0  0  0  0  0  0  0  0  0  0
    9.4336   -0.1876   14.2808 H   0  0  0  0  0  0  0  0  0  0  0  0
    7.5131   -1.1127   15.5358 H   0  0  0  0  0  0  0  0  0  0  0  0
    5.5619   -0.4672   17.5935 H   0  0  0  0  0  0  0  0  0  0  0  0
    6.3953   -1.1759   18.2502 H   0  0  0  0  0  0  0  0  0  0  0  0
    2.7035    1.0249   24.1789 H   0  0  0  0  0  0  0  0  0  0  0  0
    4.9252    2.7211   24.9021 H   0  0  0  0  0  0  0  0  0  0  0  0
    4.8797    0.9733   24.5764 H   0  0  0  0  0  0  0  0  0  0  0  0
    4.7286    1.5201   26.9588 H   0  0  0  0  0  0  0  0  0  0  0  0
    3.3409    0.5975   26.4015 H   0  0  0  0  0  0  0  0  0  0  0  0
    2.7354    2.4279   27.8185 H   0  0  0  0  0  0  0  0  0  0  0  0
    1.1151    1.8339   26.2372 H   0  0  0  0  0  0  0  0  0  0  0  0
    1.1456    3.5617   26.4595 H   0  0  0  0  0  0  0  0  0  0  0  0
    1.0721    2.9917   24.0276 H   0  0  0  0  0  0  0  0  0  0  0  0
    2.4017    4.0013   24.5927 H   0  0  0  0  0  0  0  0  0  0  0  0
  1  2  1  0
  2  3  1  0
  2  4  1  0
  4  5  2  0
  4  6  1  0
  6  7  1  0
  7  8  1  0
  8  9  1  0
  9 10  2  0
 10 11  1  0
 11 12  3  0
 10 13  1  0
 13 14  2  0
 14 15  1  0
 15 16  2  0
 16 17  1  0
  2 18  1  0
 18 19  1  0
 19 20  1  0
 20 21  1  0
 21 22  1  0
 22 23  1  0
 17  6  1  0
 23 18  1  0
 16  9  1  0
  1 24  1  0
  1 25  1  0
  1 26  1  0
  3 27  1  0
  3 28  1  0
  3 29  1  0
  7 30  1  0
  7 31  1  0
  8 32  1  0
  8 33  1  0
 13 34  1  0
 14 35  1  0
 15 36  1  0
 17 37  1  0
 17 38  1  0
 18 39  1  0
 19 40  1  0
 19 41  1  0
 20 42  1  0
 20 43  1  0
 21 44  1  0
 22 45  1  0
 22 46  1  0
 23 47  1  0
 23 48  1  0
M  END
>  <Energy>  (328) 
821.40314782862345

>  <compound_id>  (328) 
21286

>  <target_id>  (328) 
1

>  <reference_id>  (328) 
44

>  <inspiration_ids>  (328) 
[146, 44]

>  <energy_score>  (328) 
717.9930515452867

>  <distance_score>  (328) 
6.841557604331679

>  <path>  (328) 
/opt/xchem-fragalysis-2/maxwin/BulkDock/SCRATCH/511013/C21286-P44/C21286-P44.minimised.mol

>  <scratch_subdir>  (328) 
/opt/xchem-fragalysis-2/maxwin/BulkDock/SCRATCH/511013/C21286-P44

>  <fragmenstein_runtime>  (328) 
8.006373167037964

>  <fragmenstein_outcome>  (328) 
too moved

>  <fragmenstein_mode>  (328) 
expansion

>  <fragmenstein_error>  (328) 


$$$$
C21281-P146
     RDKit          3D

 50 52  0  0  0  0  0  0  0  0999 V2000
    8.6790    5.4301   18.1159 C   0  0  0  0  0  0  0  0  0  0  0  0
    9.1916    4.2714   17.3097 C   0  0  0  0  0  0  0  0  0  0  0  0
   10.2429    4.4751   16.3936 C   0  0  0  0  0  0  0  0  0  0  0  0
   10.7534    3.4337   15.6136 C   0  0  0  0  0  0  0  0  0  0  0  0
   10.2282    2.1613   15.7426 C   0  0  0  0  0  0  0  0  0  0  0  0
    9.2223    1.9530   16.6842 C   0  0  0  0  0  0  0  0  0  0  0  0
    8.6874    2.9786   17.4775 C   0  0  0  0  0  0  0  0  0  0  0  0
    7.5586    2.6030   18.5254 C   0  0  0  0  0  0  0  0  0  0  0  0
    7.3504    1.0131   19.2591 N   0  0  0  0  0  0  0  0  0  0  0  0
    6.9002    1.1460   20.9157 C   0  0  0  0  0  0  0  0  0  0  0  0
    7.8613    1.1629   21.5777 O   0  0  0  0  0  0  0  0  0  0  0  0
    4.6585    1.1015   21.5046 C   0  0  0  0  0  0  0  0  0  0  0  0
    3.0048    1.2825   21.4283 C   0  0  0  0  0  0  0  0  0  0  0  0
    2.9695    2.2345   20.5589 C   0  0  0  0  0  0  0  0  0  0  0  0
    3.7969    2.4733   22.9130 C   0  0  0  0  0  0  0  0  0  0  0  0
    3.3498    2.0200   24.4271 C   0  0  0  0  0  0  0  0  0  0  0  0
    3.1335    3.1458   25.4399 C   0  0  0  0  0  0  0  0  0  0  0  0
    1.8475    3.8100   25.2150 N   0  0  0  0  0  0  0  0  0  0  0  0
    1.5048    3.9382   23.7978 C   0  0  0  0  0  0  0  0  0  0  0  0
    2.7223    3.9006   22.8639 C   0  0  0  0  0  0  0  0  0  0  0  0
    8.5937    0.8230   18.6064 C   0  0  0  0  0  0  0  0  0  0  0  0
    8.7621    0.6117   17.0905 C   0  0  0  0  0  0  0  0  0  0  0  0
    9.0149    6.3857   17.6995 H   0  0  0  0  0  0  0  0  0  0  0  0
    9.0409    5.3607   19.1464 H   0  0  0  0  0  0  0  0  0  0  0  0
    7.5844    5.4466   18.1149 H   0  0  0  0  0  0  0  0  0  0  0  0
   10.6718    5.4688   16.2741 H   0  0  0  0  0  0  0  0  0  0  0  0
   11.5700    3.6205   14.9215 H   0  0  0  0  0  0  0  0  0  0  0  0
   10.6425    1.3407   15.1644 H   0  0  0  0  0  0  0  0  0  0  0  0
    7.7141    3.2380   19.4091 H   0  0  0  0  0  0  0  0  0  0  0  0
    6.6802    2.9463   17.9775 H   0  0  0  0  0  0  0  0  0  0  0  0
    2.0107    0.8800   21.0355 H   0  0  0  0  0  0  0  0  0  0  0  0
    3.4229    0.3322   21.3088 H   0  0  0  0  0  0  0  0  0  0  0  0
    2.4775    1.6229   22.3161 H   0  0  0  0  0  0  0  0  0  0  0  0
    2.2332    1.9476   19.7217 H   0  0  0  0  0  0  0  0  0  0  0  0
    2.1128    2.8116   21.1247 H   0  0  0  0  0  0  0  0  0  0  0  0
    3.1801    3.2861   20.0418 H   0  0  0  0  0  0  0  0  0  0  0  0
    4.3935    3.4493   22.7018 H   0  0  0  0  0  0  0  0  0  0  0  0
    3.8908    1.1807   24.8790 H   0  0  0  0  0  0  0  0  0  0  0  0
    2.3731    1.6441   24.2864 H   0  0  0  0  0  0  0  0  0  0  0  0
    3.9581    3.8666   25.4054 H   0  0  0  0  0  0  0  0  0  0  0  0
    3.1174    2.7267   26.4518 H   0  0  0  0  0  0  0  0  0  0  0  0
    1.8624    4.7285   25.6579 H   0  0  0  0  0  0  0  0  0  0  0  0
    0.9944    4.9000   23.6632 H   0  0  0  0  0  0  0  0  0  0  0  0
    0.7633    3.1873   23.5276 H   0  0  0  0  0  0  0  0  0  0  0  0
    3.3338    4.7378   23.2678 H   0  0  0  0  0  0  0  0  0  0  0  0
    2.5024    4.3169   21.8778 H   0  0  0  0  0  0  0  0  0  0  0  0
    8.7903   -0.1261   19.0820 H   0  0  0  0  0  0  0  0  0  0  0  0
    9.3245    1.4737   19.0981 H   0  0  0  0  0  0  0  0  0  0  0  0
    9.5500   -0.1035   16.8512 H   0  0  0  0  0  0  0  0  0  0  0  0
    7.8757    0.2951   16.5429 H   0  0  0  0  0  0  0  0  0  0  0  0
  1  2  1  0
  2  3  2  0
  3  4  1  0
  4  5  2  0
  5  6  1  0
  6  7  2  0
  7  8  1  0
  8  9  1  0
  9 10  1  0
 10 11  2  0
 10 12  1  0
 12 13  1  0
 12 14  1  0
 12 15  1  0
 15 16  1  0
 16 17  1  0
 17 18  1  0
 18 19  1  0
 19 20  1  0
  9 21  1  0
 21 22  1  0
  7  2  1  0
 20 15  1  0
 22  6  1  0
  1 23  1  0
  1 24  1  0
  1 25  1  0
  3 26  1  0
  4 27  1  0
  5 28  1  0
  8 29  1  0
  8 30  1  0
 13 31  1  0
 13 32  1  0
 13 33  1  0
 14 34  1  0
 14 35  1  0
 14 36  1  0
 15 37  1  0
 16 38  1  0
 16 39  1  0
 17 40  1  0
 17 41  1  0
 18 42  1  0
 19 43  1  0
 19 44  1  0
 20 45  1  0
 20 46  1  0
 21 47  1  0
 21 48  1  0
 22 49  1  0
 22 50  1  0
M  END
>  <Energy>  (329) 
1179.1965268629003

>  <compound_id>  (329) 
21281

>  <target_id>  (329) 
1

>  <reference_id>  (329) 
146

>  <inspiration_ids>  (329) 
[146, 44]

>  <energy_score>  (329) 
1075.008588188533

>  <distance_score>  (329) 
7.079660340901062

>  <path>  (329) 
/opt/xchem-fragalysis-2/maxwin/BulkDock/SCRATCH/511013/C21281-P146/C21281-P146.minimised.mol

>  <scratch_subdir>  (329) 
/opt/xchem-fragalysis-2/maxwin/BulkDock/SCRATCH/511013/C21281-P146

>  <fragmenstein_runtime>  (329) 
8.287976503372192

>  <fragmenstein_outcome>  (329) 
too moved

>  <fragmenstein_mode>  (329) 
expansion

>  <fragmenstein_error>  (329) 


$$$$
C21281-P44
     RDKit          3D

 50 52  0  0  0  0  0  0  0  0999 V2000
    8.4502    2.1533   18.5220 C   0  0  0  0  0  0  0  0  0  0  0  0
    8.7385    2.6958   17.1562 C   0  0  0  0  0  0  0  0  0  0  0  0
    9.6702    2.0234   16.3460 C   0  0  0  0  0  0  0  0  0  0  0  0
   10.1098    2.5676   15.1446 C   0  0  0  0  0  0  0  0  0  0  0  0
    9.5589    3.7639   14.7044 C   0  0  0  0  0  0  0  0  0  0  0  0
    8.5340    4.3666   15.4460 C   0  0  0  0  0  0  0  0  0  0  0  0
    8.1361    3.8776   16.6860 C   0  0  0  0  0  0  0  0  0  0  0  0
    6.8962    4.5031   17.3623 C   0  0  0  0  0  0  0  0  0  0  0  0
    6.1579    5.8402   16.9986 N   0  0  0  0  0  0  0  0  0  0  0  0
    4.9774    6.0041   17.8359 C   0  0  0  0  0  0  0  0  0  0  0  0
    3.8369    5.6544   17.6557 O   0  0  0  0  0  0  0  0  0  0  0  0
    5.2300    6.8872   19.1482 C   0  0  0  0  0  0  0  0  0  0  0  0
    5.0835    8.3333   18.5723 C   0  0  0  0  0  0  0  0  0  0  0  0
    6.6610    6.8181   19.7039 C   0  0  0  0  0  0  0  0  0  0  0  0
    4.1580    6.7920   20.3694 C   0  0  0  0  0  0  0  0  0  0  0  0
    2.6452    6.6914   20.0582 C   0  0  0  0  0  0  0  0  0  0  0  0
    2.0531    5.2996   20.3234 C   0  0  0  0  0  0  0  0  0  0  0  0
    2.2634    4.7609   21.6782 N   0  0  0  0  0  0  0  0  0  0  0  0
    3.3407    5.4429   22.3899 C   0  0  0  0  0  0  0  0  0  0  0  0
    4.5209    5.7930   21.4796 C   0  0  0  0  0  0  0  0  0  0  0  0
    6.3021    5.2896   15.6092 C   0  0  0  0  0  0  0  0  0  0  0  0
    7.6837    5.4766   14.9396 C   0  0  0  0  0  0  0  0  0  0  0  0
    8.4467    1.0590   18.5229 H   0  0  0  0  0  0  0  0  0  0  0  0
    7.4853    2.4768   18.8958 H   0  0  0  0  0  0  0  0  0  0  0  0
    9.2009    2.5271   19.2230 H   0  0  0  0  0  0  0  0  0  0  0  0
   10.0668    1.0705   16.6628 H   0  0  0  0  0  0  0  0  0  0  0  0
   10.8536    2.0506   14.5465 H   0  0  0  0  0  0  0  0  0  0  0  0
    9.8572    4.1769   13.7448 H   0  0  0  0  0  0  0  0  0  0  0  0
    7.1818    4.6386   18.4076 H   0  0  0  0  0  0  0  0  0  0  0  0
    6.1186    3.7323   17.3669 H   0  0  0  0  0  0  0  0  0  0  0  0
    4.0809    8.4996   18.1627 H   0  0  0  0  0  0  0  0  0  0  0  0
    5.7974    8.5171   17.7603 H   0  0  0  0  0  0  0  0  0  0  0  0
    5.2623    9.0939   19.3410 H   0  0  0  0  0  0  0  0  0  0  0  0
    7.4146    7.0475   18.9427 H   0  0  0  0  0  0  0  0  0  0  0  0
    6.8042    7.5379   20.5184 H   0  0  0  0  0  0  0  0  0  0  0  0
    6.8850    5.8300   20.0994 H   0  0  0  0  0  0  0  0  0  0  0  0
    4.2505    7.7714   20.8673 H   0  0  0  0  0  0  0  0  0  0  0  0
    2.4191    7.0171   19.0388 H   0  0  0  0  0  0  0  0  0  0  0  0
    2.1141    7.4052   20.7043 H   0  0  0  0  0  0  0  0  0  0  0  0
    0.9745    5.3237   20.1327 H   0  0  0  0  0  0  0  0  0  0  0  0
    2.4749    4.5942   19.5983 H   0  0  0  0  0  0  0  0  0  0  0  0
    2.5762    3.7907   21.5313 H   0  0  0  0  0  0  0  0  0  0  0  0
    2.9487    6.3528   22.8601 H   0  0  0  0  0  0  0  0  0  0  0  0
    3.6865    4.7982   23.2059 H   0  0  0  0  0  0  0  0  0  0  0  0
    4.9209    4.8983   21.0131 H   0  0  0  0  0  0  0  0  0  0  0  0
    5.3238    6.2115   22.0984 H   0  0  0  0  0  0  0  0  0  0  0  0
    5.7968    4.3245   15.4260 H   0  0  0  0  0  0  0  0  0  0  0  0
    5.6416    5.9719   15.0503 H   0  0  0  0  0  0  0  0  0  0  0  0
    7.5719    5.4070   13.8520 H   0  0  0  0  0  0  0  0  0  0  0  0
    8.1231    6.4478   15.1912 H   0  0  0  0  0  0  0  0  0  0  0  0
  1  2  1  0
  2  3  2  0
  3  4  1  0
  4  5  2  0
  5  6  1  0
  6  7  2  0
  7  8  1  0
  8  9  1  0
  9 10  1  0
 10 11  2  0
 10 12  1  0
 12 13  1  0
 12 14  1  0
 12 15  1  0
 15 16  1  0
 16 17  1  0
 17 18  1  0
 18 19  1  0
 19 20  1  0
  9 21  1  0
 21 22  1  0
  7  2  1  0
 20 15  1  0
 22  6  1  0
  1 23  1  0
  1 24  1  0
  1 25  1  0
  3 26  1  0
  4 27  1  0
  5 28  1  0
  8 29  1  0
  8 30  1  0
 13 31  1  0
 13 32  1  0
 13 33  1  0
 14 34  1  0
 14 35  1  0
 14 36  1  0
 15 37  1  0
 16 38  1  0
 16 39  1  0
 17 40  1  0
 17 41  1  0
 18 42  1  0
 19 43  1  0
 19 44  1  0
 20 45  1  0
 20 46  1  0
 21 47  1  0
 21 48  1  0
 22 49  1  0
 22 50  1  0
M  END
>  <Energy>  (330) 
137.90224921251331

>  <compound_id>  (330) 
21281

>  <target_id>  (330) 
1

>  <reference_id>  (330) 
44

>  <inspiration_ids>  (330) 
[146, 44]

>  <energy_score>  (330) 
33.714310538149164

>  <distance_score>  (330) 
8.910946383419658

>  <path>  (330) 
/opt/xchem-fragalysis-2/maxwin/BulkDock/SCRATCH/511013/C21281-P44/C21281-P44.minimised.mol

>  <scratch_subdir>  (330) 
/opt/xchem-fragalysis-2/maxwin/BulkDock/SCRATCH/511013/C21281-P44

>  <fragmenstein_runtime>  (330) 
9.334205627441406

>  <fragmenstein_outcome>  (330) 
too moved

>  <fragmenstein_mode>  (330) 
expansion

>  <fragmenstein_error>  (330) 


$$$$
C21287-P146
     RDKit          3D

 50 52  0  0  0  0  0  0  0  0999 V2000
   10.0404   -0.1297   14.8591 C   0  0  0  0  0  0  0  0  0  0  0  0
    9.8239    1.0848   15.7097 C   0  0  0  0  0  0  0  0  0  0  0  0
   10.6851    2.1847   15.5937 C   0  0  0  0  0  0  0  0  0  0  0  0
   10.5198    3.3121   16.4034 C   0  0  0  0  0  0  0  0  0  0  0  0
    9.4850    3.3314   17.3284 C   0  0  0  0  0  0  0  0  0  0  0  0
    8.6193    2.2600   17.4652 C   0  0  0  0  0  0  0  0  0  0  0  0
    8.7931    1.1278   16.6567 C   0  0  0  0  0  0  0  0  0  0  0  0
    7.4471    2.5003   18.5372 C   0  0  0  0  0  0  0  0  0  0  0  0
    7.5447    2.8111   20.0464 N   0  0  0  0  0  0  0  0  0  0  0  0
    7.1583    1.3965   21.0105 C   0  0  0  0  0  0  0  0  0  0  0  0
    8.1492    0.7863   21.2181 O   0  0  0  0  0  0  0  0  0  0  0  0
    5.1187    0.9201   21.9586 C   0  0  0  0  0  0  0  0  0  0  0  0
    3.7973    2.1648   23.0006 C   0  0  0  0  0  0  0  0  0  0  0  0
    3.2003    1.4835   21.3315 C   0  0  0  0  0  0  0  0  0  0  0  0
    4.8064    0.0357   23.8843 C   0  0  0  0  0  0  0  0  0  0  0  0
    3.5490    0.4504   25.0614 C   0  0  0  0  0  0  0  0  0  0  0  0
    3.8359    0.7821   26.5323 C   0  0  0  0  0  0  0  0  0  0  0  0
    4.2753   -0.4023   27.2465 N   0  0  0  0  0  0  0  0  0  0  0  0
    5.0447   -1.2444   26.3414 C   0  0  0  0  0  0  0  0  0  0  0  0
    5.7533   -0.4200   25.2320 C   0  0  0  0  0  0  0  0  0  0  0  0
    8.8448    3.4092   19.5713 C   0  0  0  0  0  0  0  0  0  0  0  0
    9.1992    4.3389   18.3793 C   0  0  0  0  0  0  0  0  0  0  0  0
   10.3181    0.1636   13.8417 H   0  0  0  0  0  0  0  0  0  0  0  0
   10.8367   -0.7494   15.2825 H   0  0  0  0  0  0  0  0  0  0  0  0
    9.1288   -0.7323   14.7975 H   0  0  0  0  0  0  0  0  0  0  0  0
   11.5130    2.1608   14.8870 H   0  0  0  0  0  0  0  0  0  0  0  0
   11.2187    4.1399   16.3264 H   0  0  0  0  0  0  0  0  0  0  0  0
    8.1112    0.2905   16.7437 H   0  0  0  0  0  0  0  0  0  0  0  0
    7.4024    1.4385   18.7526 H   0  0  0  0  0  0  0  0  0  0  0  0
    6.7238    3.1156   17.9954 H   0  0  0  0  0  0  0  0  0  0  0  0
    3.8014    3.2669   22.7139 H   0  0  0  0  0  0  0  0  0  0  0  0
    2.7379    1.9196   23.1841 H   0  0  0  0  0  0  0  0  0  0  0  0
    3.8222    2.3874   24.0936 H   0  0  0  0  0  0  0  0  0  0  0  0
    2.3197    0.9406   21.1534 H   0  0  0  0  0  0  0  0  0  0  0  0
    2.6116    2.4271   21.6383 H   0  0  0  0  0  0  0  0  0  0  0  0
    2.9730    2.0332   20.3877 H   0  0  0  0  0  0  0  0  0  0  0  0
    4.5436   -1.0242   23.6042 H   0  0  0  0  0  0  0  0  0  0  0  0
    2.9577   -0.4514   25.1093 H   0  0  0  0  0  0  0  0  0  0  0  0
    2.8523    1.2189   24.8094 H   0  0  0  0  0  0  0  0  0  0  0  0
    2.9168    1.1417   27.0118 H   0  0  0  0  0  0  0  0  0  0  0  0
    4.5570    1.5995   26.6323 H   0  0  0  0  0  0  0  0  0  0  0  0
    3.4649   -0.9269   27.5750 H   0  0  0  0  0  0  0  0  0  0  0  0
    4.4232   -2.0272   25.8913 H   0  0  0  0  0  0  0  0  0  0  0  0
    5.7992   -1.7639   26.9444 H   0  0  0  0  0  0  0  0  0  0  0  0
    6.5638   -1.0740   25.0397 H   0  0  0  0  0  0  0  0  0  0  0  0
    6.2007    0.4350   25.7499 H   0  0  0  0  0  0  0  0  0  0  0  0
    9.6249    2.6446   19.7420 H   0  0  0  0  0  0  0  0  0  0  0  0
    9.0315    4.0726   20.4328 H   0  0  0  0  0  0  0  0  0  0  0  0
   10.0999    4.9189   18.6070 H   0  0  0  0  0  0  0  0  0  0  0  0
    8.3830    5.0163   18.1099 H   0  0  0  0  0  0  0  0  0  0  0  0
  1  2  1  0
  2  3  2  0
  3  4  1  0
  4  5  2  0
  5  6  1  0
  6  7  2  0
  6  8  1  0
  8  9  1  0
  9 10  1  0
 10 11  2  0
 10 12  1  0
 12 13  1  0
 12 14  1  0
 12 15  1  0
 15 16  1  0
 16 17  1  0
 17 18  1  0
 18 19  1  0
 19 20  1  0
  9 21  1  0
 21 22  1  0
  7  2  1  0
 20 15  1  0
 22  5  1  0
  1 23  1  0
  1 24  1  0
  1 25  1  0
  3 26  1  0
  4 27  1  0
  7 28  1  0
  8 29  1  0
  8 30  1  0
 13 31  1  0
 13 32  1  0
 13 33  1  0
 14 34  1  0
 14 35  1  0
 14 36  1  0
 15 37  1  0
 16 38  1  0
 16 39  1  0
 17 40  1  0
 17 41  1  0
 18 42  1  0
 19 43  1  0
 19 44  1  0
 20 45  1  0
 20 46  1  0
 21 47  1  0
 21 48  1  0
 22 49  1  0
 22 50  1  0
M  END
>  <Energy>  (331) 
931.71157577837039

>  <compound_id>  (331) 
21287

>  <target_id>  (331) 
1

>  <reference_id>  (331) 
146

>  <inspiration_ids>  (331) 
[146, 44]

>  <energy_score>  (331) 
838.9644770961604

>  <distance_score>  (331) 
7.417115741930784

>  <path>  (331) 
/opt/xchem-fragalysis-2/maxwin/BulkDock/SCRATCH/511013/C21287-P146/C21287-P146.minimised.mol

>  <scratch_subdir>  (331) 
/opt/xchem-fragalysis-2/maxwin/BulkDock/SCRATCH/511013/C21287-P146

>  <fragmenstein_runtime>  (331) 
8.753822326660156

>  <fragmenstein_outcome>  (331) 
too moved

>  <fragmenstein_mode>  (331) 
expansion

>  <fragmenstein_error>  (331) 


$$$$
C21287-P44
     RDKit          3D

 50 52  0  0  0  0  0  0  0  0999 V2000
    9.3070    0.9239   16.5992 C   0  0  0  0  0  0  0  0  0  0  0  0
    8.8999    2.3418   16.4122 C   0  0  0  0  0  0  0  0  0  0  0  0
    8.9627    2.8785   15.1209 C   0  0  0  0  0  0  0  0  0  0  0  0
    8.2984    4.0620   14.8403 C   0  0  0  0  0  0  0  0  0  0  0  0
    7.5851    4.6795   15.8634 C   0  0  0  0  0  0  0  0  0  0  0  0
    7.6346    4.2470   17.1870 C   0  0  0  0  0  0  0  0  0  0  0  0
    8.3061    3.0635   17.4689 C   0  0  0  0  0  0  0  0  0  0  0  0
    6.8740    5.1606   18.1695 C   0  0  0  0  0  0  0  0  0  0  0  0
    5.3551    5.6803   18.1446 N   0  0  0  0  0  0  0  0  0  0  0  0
    5.2811    7.0073   18.6749 C   0  0  0  0  0  0  0  0  0  0  0  0
    5.3568    8.0770   18.1207 O   0  0  0  0  0  0  0  0  0  0  0  0
    4.9840    7.0686   20.2539 C   0  0  0  0  0  0  0  0  0  0  0  0
    6.3775    7.1561   20.9171 C   0  0  0  0  0  0  0  0  0  0  0  0
    4.3001    8.4391   20.5334 C   0  0  0  0  0  0  0  0  0  0  0  0
    4.1206    5.9103   20.9156 C   0  0  0  0  0  0  0  0  0  0  0  0
    2.7373    5.6548   20.2600 C   0  0  0  0  0  0  0  0  0  0  0  0
    1.6664    5.1149   21.2313 C   0  0  0  0  0  0  0  0  0  0  0  0
    2.2232    4.1587   22.1866 N   0  0  0  0  0  0  0  0  0  0  0  0
    3.1818    4.8255   23.0736 C   0  0  0  0  0  0  0  0  0  0  0  0
    3.9021    6.0381   22.4521 C   0  0  0  0  0  0  0  0  0  0  0  0
    5.4352    5.1960   16.7236 C   0  0  0  0  0  0  0  0  0  0  0  0
    6.5002    5.6862   15.6866 C   0  0  0  0  0  0  0  0  0  0  0  0
    8.5299    0.2543   16.2167 H   0  0  0  0  0  0  0  0  0  0  0  0
   10.2413    0.7127   16.0732 H   0  0  0  0  0  0  0  0  0  0  0  0
    9.4293    0.7300   17.6604 H   0  0  0  0  0  0  0  0  0  0  0  0
    9.4357    2.3245   14.3144 H   0  0  0  0  0  0  0  0  0  0  0  0
    8.2382    4.4304   13.8210 H   0  0  0  0  0  0  0  0  0  0  0  0
    8.2795    2.6492   18.4731 H   0  0  0  0  0  0  0  0  0  0  0  0
    6.9360    4.6718   19.1480 H   0  0  0  0  0  0  0  0  0  0  0  0
    7.4973    6.0628   18.2847 H   0  0  0  0  0  0  0  0  0  0  0  0
    7.0064    7.9043   20.4189 H   0  0  0  0  0  0  0  0  0  0  0  0
    6.9101    6.2094   20.8524 H   0  0  0  0  0  0  0  0  0  0  0  0
    6.3195    7.4424   21.9716 H   0  0  0  0  0  0  0  0  0  0  0  0
    4.9149    9.2769   20.1817 H   0  0  0  0  0  0  0  0  0  0  0  0
    4.1393    8.6127   21.6012 H   0  0  0  0  0  0  0  0  0  0  0  0
    3.3353    8.5185   20.0230 H   0  0  0  0  0  0  0  0  0  0  0  0
    4.7186    5.0093   20.7700 H   0  0  0  0  0  0  0  0  0  0  0  0
    2.8721    4.9350   19.4427 H   0  0  0  0  0  0  0  0  0  0  0  0
    2.3445    6.5649   19.7958 H   0  0  0  0  0  0  0  0  0  0  0  0
    0.8782    4.6222   20.6508 H   0  0  0  0  0  0  0  0  0  0  0  0
    1.1808    5.9420   21.7641 H   0  0  0  0  0  0  0  0  0  0  0  0
    2.7688    3.4785   21.6335 H   0  0  0  0  0  0  0  0  0  0  0  0
    3.9256    4.0856   23.3927 H   0  0  0  0  0  0  0  0  0  0  0  0
    2.6648    5.1476   23.9850 H   0  0  0  0  0  0  0  0  0  0  0  0
    3.3003    6.9302   22.6620 H   0  0  0  0  0  0  0  0  0  0  0  0
    4.8552    6.1682   22.9738 H   0  0  0  0  0  0  0  0  0  0  0  0
    5.2223    4.1137   16.6919 H   0  0  0  0  0  0  0  0  0  0  0  0
    4.5021    5.6254   16.3247 H   0  0  0  0  0  0  0  0  0  0  0  0
    6.0851    5.6230   14.6749 H   0  0  0  0  0  0  0  0  0  0  0  0
    6.8419    6.7074   15.8815 H   0  0  0  0  0  0  0  0  0  0  0  0
  1  2  1  0
  2  3  2  0
  3  4  1  0
  4  5  2  0
  5  6  1  0
  6  7  2  0
  6  8  1  0
  8  9  1  0
  9 10  1  0
 10 11  2  0
 10 12  1  0
 12 13  1  0
 12 14  1  0
 12 15  1  0
 15 16  1  0
 16 17  1  0
 17 18  1  0
 18 19  1  0
 19 20  1  0
  9 21  1  0
 21 22  1  0
  7  2  1  0
 20 15  1  0
 22  5  1  0
  1 23  1  0
  1 24  1  0
  1 25  1  0
  3 26  1  0
  4 27  1  0
  7 28  1  0
  8 29  1  0
  8 30  1  0
 13 31  1  0
 13 32  1  0
 13 33  1  0
 14 34  1  0
 14 35  1  0
 14 36  1  0
 15 37  1  0
 16 38  1  0
 16 39  1  0
 17 40  1  0
 17 41  1  0
 18 42  1  0
 19 43  1  0
 19 44  1  0
 20 45  1  0
 20 46  1  0
 21 47  1  0
 21 48  1  0
 22 49  1  0
 22 50  1  0
M  END
>  <Energy>  (332) 
149.92529458405025

>  <compound_id>  (332) 
21287

>  <target_id>  (332) 
1

>  <reference_id>  (332) 
44

>  <inspiration_ids>  (332) 
[146, 44]

>  <energy_score>  (332) 
57.17819590183109

>  <distance_score>  (332) 
9.110565020387547

>  <path>  (332) 
/opt/xchem-fragalysis-2/maxwin/BulkDock/SCRATCH/511013/C21287-P44/C21287-P44.minimised.mol

>  <scratch_subdir>  (332) 
/opt/xchem-fragalysis-2/maxwin/BulkDock/SCRATCH/511013/C21287-P44

>  <fragmenstein_runtime>  (332) 
12.219881534576416

>  <fragmenstein_outcome>  (332) 
too moved

>  <fragmenstein_mode>  (332) 
expansion

>  <fragmenstein_error>  (332) 


$$$$
C21289-P146
     RDKit          3D

 47 49  0  0  0  0  0  0  0  0999 V2000
   11.1294    2.2425   15.6001 N   0  0  0  0  0  0  0  0  0  0  0  0
   10.4936    2.6276   16.7900 C   0  0  0  0  0  0  0  0  0  0  0  0
    9.3924    1.9208   17.2614 C   0  0  0  0  0  0  0  0  0  0  0  0
    8.6369    2.4283   18.3184 C   0  0  0  0  0  0  0  0  0  0  0  0
    8.8770    3.7067   18.8207 C   0  0  0  0  0  0  0  0  0  0  0  0
   10.0115    4.3762   18.4007 C   0  0  0  0  0  0  0  0  0  0  0  0
   10.8288    3.8426   17.3987 C   0  0  0  0  0  0  0  0  0  0  0  0
   10.1724    5.7131   19.0241 C   0  0  0  0  0  0  0  0  0  0  0  0
    8.7478    6.2354   19.3171 C   0  0  0  0  0  0  0  0  0  0  0  0
    7.9505    5.6890   20.4861 N   0  0  0  0  0  0  0  0  0  0  0  0
    6.6599    6.0937   21.0220 C   0  0  0  0  0  0  0  0  0  0  0  0
    5.8638    6.9017   20.6165 O   0  0  0  0  0  0  0  0  0  0  0  0
    6.3305    5.3525   22.3253 C   0  0  0  0  0  0  0  0  0  0  0  0
    4.8575    5.5210   22.7957 C   0  0  0  0  0  0  0  0  0  0  0  0
    4.6293    4.6539   23.9186 O   0  0  0  0  0  0  0  0  0  0  0  0
    3.3332    4.5801   24.5258 C   0  0  0  0  0  0  0  0  0  0  0  0
    2.2318    4.0273   23.6244 C   0  0  0  0  0  0  0  0  0  0  0  0
    0.9440    3.8358   24.4293 C   0  0  0  0  0  0  0  0  0  0  0  0
    0.5262    5.0706   25.0878 N   0  0  0  0  0  0  0  0  0  0  0  0
    1.5640    5.6151   25.9627 C   0  0  0  0  0  0  0  0  0  0  0  0
    2.8707    5.8661   25.2049 C   0  0  0  0  0  0  0  0  0  0  0  0
    7.7727    4.5000   19.5299 C   0  0  0  0  0  0  0  0  0  0  0  0
   10.9921    1.2707   15.3487 H   0  0  0  0  0  0  0  0  0  0  0  0
   12.1333    2.4505   15.6478 H   0  0  0  0  0  0  0  0  0  0  0  0
    9.0758    0.9984   16.7852 H   0  0  0  0  0  0  0  0  0  0  0  0
    7.7851    1.8693   18.6760 H   0  0  0  0  0  0  0  0  0  0  0  0
   11.6689    4.4200   17.0211 H   0  0  0  0  0  0  0  0  0  0  0  0
   10.7600    5.6374   19.9454 H   0  0  0  0  0  0  0  0  0  0  0  0
   10.6776    6.4005   18.3367 H   0  0  0  0  0  0  0  0  0  0  0  0
    8.1345    6.4077   18.4129 H   0  0  0  0  0  0  0  0  0  0  0  0
    8.9111    7.2720   19.6535 H   0  0  0  0  0  0  0  0  0  0  0  0
    7.0067    5.7081   23.1110 H   0  0  0  0  0  0  0  0  0  0  0  0
    6.5343    4.2942   22.1830 H   0  0  0  0  0  0  0  0  0  0  0  0
    4.6770    6.5594   23.0914 H   0  0  0  0  0  0  0  0  0  0  0  0
    4.1725    5.2587   21.9839 H   0  0  0  0  0  0  0  0  0  0  0  0
    3.4778    3.8423   25.3272 H   0  0  0  0  0  0  0  0  0  0  0  0
    2.5551    3.0774   23.1861 H   0  0  0  0  0  0  0  0  0  0  0  0
    2.0504    4.7069   22.7828 H   0  0  0  0  0  0  0  0  0  0  0  0
    0.1452    3.5077   23.7556 H   0  0  0  0  0  0  0  0  0  0  0  0
    1.0796    3.0454   25.1767 H   0  0  0  0  0  0  0  0  0  0  0  0
   -0.3278    4.9102   25.6243 H   0  0  0  0  0  0  0  0  0  0  0  0
    1.2096    6.5613   26.3857 H   0  0  0  0  0  0  0  0  0  0  0  0
    1.7392    4.9341   26.8045 H   0  0  0  0  0  0  0  0  0  0  0  0
    3.6446    6.2274   25.8921 H   0  0  0  0  0  0  0  0  0  0  0  0
    2.7281    6.6590   24.4603 H   0  0  0  0  0  0  0  0  0  0  0  0
    7.3402    3.7533   20.2062 H   0  0  0  0  0  0  0  0  0  0  0  0
    6.9655    4.7290   18.8125 H   0  0  0  0  0  0  0  0  0  0  0  0
  1  2  1  0
  2  3  2  0
  3  4  1  0
  4  5  2  0
  5  6  1  0
  6  7  2  0
  6  8  1  0
  8  9  1  0
  9 10  1  0
 10 11  1  0
 11 12  2  0
 11 13  1  0
 13 14  1  0
 14 15  1  0
 15 16  1  0
 16 17  1  0
 17 18  1  0
 18 19  1  0
 19 20  1  0
 20 21  1  0
 10 22  1  0
  7  2  1  0
 21 16  1  0
 22  5  1  0
  1 23  1  0
  1 24  1  0
  3 25  1  0
  4 26  1  0
  7 27  1  0
  8 28  1  0
  8 29  1  0
  9 30  1  0
  9 31  1  0
 13 32  1  0
 13 33  1  0
 14 34  1  0
 14 35  1  0
 16 36  1  0
 17 37  1  0
 17 38  1  0
 18 39  1  0
 18 40  1  0
 19 41  1  0
 20 42  1  0
 20 43  1  0
 21 44  1  0
 21 45  1  0
 22 46  1  0
 22 47  1  0
M  END
>  <Energy>  (333) 
88.370668754450989

>  <compound_id>  (333) 
21289

>  <target_id>  (333) 
1

>  <reference_id>  (333) 
146

>  <inspiration_ids>  (333) 
[146, 44]

>  <energy_score>  (333) 
35.92559335218107

>  <distance_score>  (333) 
7.575758956460951

>  <path>  (333) 
/opt/xchem-fragalysis-2/maxwin/BulkDock/SCRATCH/511013/C21289-P146/C21289-P146.minimised.mol

>  <scratch_subdir>  (333) 
/opt/xchem-fragalysis-2/maxwin/BulkDock/SCRATCH/511013/C21289-P146

>  <fragmenstein_runtime>  (333) 
11.117937326431274

>  <fragmenstein_outcome>  (333) 
too moved

>  <fragmenstein_mode>  (333) 
expansion

>  <fragmenstein_error>  (333) 


$$$$
C21289-P44
     RDKit          3D

 47 49  0  0  0  0  0  0  0  0999 V2000
   12.6431   -2.4776   14.3889 N   0  0  0  0  0  0  0  0  0  0  0  0
   11.5650   -1.7181   14.8465 C   0  0  0  0  0  0  0  0  0  0  0  0
   10.2962   -2.2727   14.9601 C   0  0  0  0  0  0  0  0  0  0  0  0
    9.1511   -1.5135   15.3163 C   0  0  0  0  0  0  0  0  0  0  0  0
    9.2884   -0.1985   15.7018 C   0  0  0  0  0  0  0  0  0  0  0  0
   10.5268    0.3685   15.4245 C   0  0  0  0  0  0  0  0  0  0  0  0
   11.6450   -0.3473   14.9644 C   0  0  0  0  0  0  0  0  0  0  0  0
   10.5507    1.8104   15.6581 C   0  0  0  0  0  0  0  0  0  0  0  0
    9.5712    2.1248   16.7865 C   0  0  0  0  0  0  0  0  0  0  0  0
    8.7035    1.3196   17.7432 N   0  0  0  0  0  0  0  0  0  0  0  0
    7.5652    1.7314   18.5803 C   0  0  0  0  0  0  0  0  0  0  0  0
    7.0213    2.8009   18.6084 O   0  0  0  0  0  0  0  0  0  0  0  0
    6.7136    0.5512   19.7701 C   0  0  0  0  0  0  0  0  0  0  0  0
    4.9242    0.8835   20.9062 C   0  0  0  0  0  0  0  0  0  0  0  0
    4.5674    1.5922   22.5349 O   0  0  0  0  0  0  0  0  0  0  0  0
    3.5086    2.3672   23.2559 C   0  0  0  0  0  0  0  0  0  0  0  0
    2.7340    3.5550   22.6608 C   0  0  0  0  0  0  0  0  0  0  0  0
    1.7073    4.0975   23.6673 C   0  0  0  0  0  0  0  0  0  0  0  0
    2.3122    4.4854   24.9395 N   0  0  0  0  0  0  0  0  0  0  0  0
    3.0799    3.4017   25.5410 C   0  0  0  0  0  0  0  0  0  0  0  0
    4.1399    2.8530   24.5847 C   0  0  0  0  0  0  0  0  0  0  0  0
    8.2116    0.7038   16.3993 C   0  0  0  0  0  0  0  0  0  0  0  0
   12.5811   -3.4602   14.6464 H   0  0  0  0  0  0  0  0  0  0  0  0
   13.5478   -2.0872   14.6322 H   0  0  0  0  0  0  0  0  0  0  0  0
   10.1853   -3.3361   14.7784 H   0  0  0  0  0  0  0  0  0  0  0  0
    8.1816   -1.9995   15.3229 H   0  0  0  0  0  0  0  0  0  0  0  0
   12.5769    0.1706   14.7588 H   0  0  0  0  0  0  0  0  0  0  0  0
   10.2113    2.3116   14.7401 H   0  0  0  0  0  0  0  0  0  0  0  0
   11.5494    2.2052   15.8236 H   0  0  0  0  0  0  0  0  0  0  0  0
    8.8778    2.8749   16.3444 H   0  0  0  0  0  0  0  0  0  0  0  0
   10.0063    2.8549   17.4604 H   0  0  0  0  0  0  0  0  0  0  0  0
    7.3462    1.2921   20.3011 H   0  0  0  0  0  0  0  0  0  0  0  0
    7.1803   -0.4311   19.7699 H   0  0  0  0  0  0  0  0  0  0  0  0
    5.8072    1.6526   21.2724 H   0  0  0  0  0  0  0  0  0  0  0  0
    4.6475   -0.0762   21.4149 H   0  0  0  0  0  0  0  0  0  0  0  0
    2.7575    1.6962   23.6386 H   0  0  0  0  0  0  0  0  0  0  0  0
    2.1965    3.2575   21.7537 H   0  0  0  0  0  0  0  0  0  0  0  0
    3.4247    4.3621   22.3845 H   0  0  0  0  0  0  0  0  0  0  0  0
    1.2173    4.9752   23.2314 H   0  0  0  0  0  0  0  0  0  0  0  0
    0.9206    3.3560   23.8472 H   0  0  0  0  0  0  0  0  0  0  0  0
    1.5886    4.8027   25.5842 H   0  0  0  0  0  0  0  0  0  0  0  0
    3.5742    3.7775   26.4436 H   0  0  0  0  0  0  0  0  0  0  0  0
    2.4058    2.5978   25.8601 H   0  0  0  0  0  0  0  0  0  0  0  0
    4.6645    2.0221   25.0725 H   0  0  0  0  0  0  0  0  0  0  0  0
    4.8995    3.6172   24.3758 H   0  0  0  0  0  0  0  0  0  0  0  0
    7.7480    1.4193   15.7107 H   0  0  0  0  0  0  0  0  0  0  0  0
    7.4306   -0.0091   16.6647 H   0  0  0  0  0  0  0  0  0  0  0  0
  1  2  1  0
  2  3  2  0
  3  4  1  0
  4  5  2  0
  5  6  1  0
  6  7  2  0
  6  8  1  0
  8  9  1  0
  9 10  1  0
 10 11  1  0
 11 12  2  0
 11 13  1  0
 13 14  1  0
 14 15  1  0
 15 16  1  0
 16 17  1  0
 17 18  1  0
 18 19  1  0
 19 20  1  0
 20 21  1  0
 10 22  1  0
  7  2  1  0
 21 16  1  0
 22  5  1  0
  1 23  1  0
  1 24  1  0
  3 25  1  0
  4 26  1  0
  7 27  1  0
  8 28  1  0
  8 29  1  0
  9 30  1  0
  9 31  1  0
 13 32  1  0
 13 33  1  0
 14 34  1  0
 14 35  1  0
 16 36  1  0
 17 37  1  0
 17 38  1  0
 18 39  1  0
 18 40  1  0
 19 41  1  0
 20 42  1  0
 20 43  1  0
 21 44  1  0
 21 45  1  0
 22 46  1  0
 22 47  1  0
M  END
>  <Energy>  (334) 
411.5530887250145

>  <compound_id>  (334) 
21289

>  <target_id>  (334) 
1

>  <reference_id>  (334) 
44

>  <inspiration_ids>  (334) 
[146, 44]

>  <energy_score>  (334) 
359.1080133227462

>  <distance_score>  (334) 
5.546307957630458

>  <path>  (334) 
/opt/xchem-fragalysis-2/maxwin/BulkDock/SCRATCH/511013/C21289-P44/C21289-P44.minimised.mol

>  <scratch_subdir>  (334) 
/opt/xchem-fragalysis-2/maxwin/BulkDock/SCRATCH/511013/C21289-P44

>  <fragmenstein_runtime>  (334) 
6.103029489517212

>  <fragmenstein_outcome>  (334) 
too moved

>  <fragmenstein_mode>  (334) 
expansion

>  <fragmenstein_error>  (334) 


$$$$
C21290-P146
     RDKit          3D

 44 46  0  0  0  0  0  0  0  0999 V2000
   11.1400    2.5212   15.7595 N   0  0  0  0  0  0  0  0  0  0  0  0
   10.2895    2.8274   16.8234 C   0  0  0  0  0  0  0  0  0  0  0  0
    8.9174    2.7697   16.6295 C   0  0  0  0  0  0  0  0  0  0  0  0
    8.0408    3.3882   17.5204 C   0  0  0  0  0  0  0  0  0  0  0  0
    8.5143    4.0002   18.6814 C   0  0  0  0  0  0  0  0  0  0  0  0
    9.8828    3.9461   18.9551 C   0  0  0  0  0  0  0  0  0  0  0  0
   10.7632    3.4387   17.9870 C   0  0  0  0  0  0  0  0  0  0  0  0
   10.3697    4.3941   20.3051 C   0  0  0  0  0  0  0  0  0  0  0  0
    9.3552    5.2640   21.0902 C   0  0  0  0  0  0  0  0  0  0  0  0
    7.9362    4.8320   20.9773 N   0  0  0  0  0  0  0  0  0  0  0  0
    7.0324    5.7498   21.7902 C   0  0  0  0  0  0  0  0  0  0  0  0
    5.5069    5.3688   21.9221 C   0  0  0  0  0  0  0  0  0  0  0  0
    4.9807    5.4431   20.6578 F   0  0  0  0  0  0  0  0  0  0  0  0
    4.5823    6.2497   22.8126 C   0  0  0  0  0  0  0  0  0  0  0  0
    4.9446    6.3586   24.3028 C   0  0  0  0  0  0  0  0  0  0  0  0
    4.4641    5.1938   25.1719 C   0  0  0  0  0  0  0  0  0  0  0  0
    3.0558    4.8730   24.9791 N   0  0  0  0  0  0  0  0  0  0  0  0
    2.7317    4.6188   23.5775 C   0  0  0  0  0  0  0  0  0  0  0  0
    3.0958    5.8170   22.7003 C   0  0  0  0  0  0  0  0  0  0  0  0
    7.6094    4.8746   19.5338 C   0  0  0  0  0  0  0  0  0  0  0  0
   10.7950    1.8131   15.1227 H   0  0  0  0  0  0  0  0  0  0  0  0
   12.1176    2.3656   16.0219 H   0  0  0  0  0  0  0  0  0  0  0  0
    8.5088    2.3102   15.7406 H   0  0  0  0  0  0  0  0  0  0  0  0
    6.9821    3.4197   17.2733 H   0  0  0  0  0  0  0  0  0  0  0  0
   11.8284    3.5588   18.1428 H   0  0  0  0  0  0  0  0  0  0  0  0
   11.3064    4.9542   20.2003 H   0  0  0  0  0  0  0  0  0  0  0  0
   10.5840    3.4922   20.8928 H   0  0  0  0  0  0  0  0  0  0  0  0
    9.4502    6.3037   20.7457 H   0  0  0  0  0  0  0  0  0  0  0  0
    9.6557    5.2574   22.1453 H   0  0  0  0  0  0  0  0  0  0  0  0
    7.0994    6.7651   21.3794 H   0  0  0  0  0  0  0  0  0  0  0  0
    7.4430    5.7757   22.8058 H   0  0  0  0  0  0  0  0  0  0  0  0
    5.4555    4.3424   22.2640 H   0  0  0  0  0  0  0  0  0  0  0  0
    4.6473    7.2592   22.3830 H   0  0  0  0  0  0  0  0  0  0  0  0
    6.0236    6.4934   24.4311 H   0  0  0  0  0  0  0  0  0  0  0  0
    4.4810    7.2762   24.6918 H   0  0  0  0  0  0  0  0  0  0  0  0
    5.0888    4.3195   24.9908 H   0  0  0  0  0  0  0  0  0  0  0  0
    4.6167    5.4589   26.2245 H   0  0  0  0  0  0  0  0  0  0  0  0
    2.8050    4.0577   25.5380 H   0  0  0  0  0  0  0  0  0  0  0  0
    1.6548    4.4339   23.4958 H   0  0  0  0  0  0  0  0  0  0  0  0
    3.2318    3.7131   23.2242 H   0  0  0  0  0  0  0  0  0  0  0  0
    2.8354    5.6002   21.6579 H   0  0  0  0  0  0  0  0  0  0  0  0
    2.4684    6.6687   22.9978 H   0  0  0  0  0  0  0  0  0  0  0  0
    6.5741    4.6046   19.3687 H   0  0  0  0  0  0  0  0  0  0  0  0
    7.7037    5.9032   19.1557 H   0  0  0  0  0  0  0  0  0  0  0  0
  1  2  1  0
  2  3  2  0
  3  4  1  0
  4  5  2  0
  5  6  1  0
  6  7  2  0
  6  8  1  0
  8  9  1  0
  9 10  1  0
 10 11  1  0
 11 12  1  0
 12 13  1  0
 12 14  1  0
 14 15  1  0
 15 16  1  0
 16 17  1  0
 17 18  1  0
 18 19  1  0
 10 20  1  0
  7  2  1  0
 19 14  1  0
 20  5  1  0
  1 21  1  0
  1 22  1  0
  3 23  1  0
  4 24  1  0
  7 25  1  0
  8 26  1  0
  8 27  1  0
  9 28  1  0
  9 29  1  0
 11 30  1  0
 11 31  1  0
 12 32  1  0
 14 33  1  0
 15 34  1  0
 15 35  1  0
 16 36  1  0
 16 37  1  0
 17 38  1  0
 18 39  1  0
 18 40  1  0
 19 41  1  0
 19 42  1  0
 20 43  1  0
 20 44  1  0
M  END
>  <Energy>  (335) 
61.259966953372938

>  <compound_id>  (335) 
21290

>  <target_id>  (335) 
1

>  <reference_id>  (335) 
146

>  <inspiration_ids>  (335) 
[146, 44]

>  <energy_score>  (335) 
-48.31726443930086

>  <distance_score>  (335) 
8.220408485271452

>  <path>  (335) 
/opt/xchem-fragalysis-2/maxwin/BulkDock/SCRATCH/511013/C21290-P146/C21290-P146.minimised.mol

>  <scratch_subdir>  (335) 
/opt/xchem-fragalysis-2/maxwin/BulkDock/SCRATCH/511013/C21290-P146

>  <fragmenstein_runtime>  (335) 
5.6272454261779785

>  <fragmenstein_outcome>  (335) 
too moved

>  <fragmenstein_mode>  (335) 
expansion

>  <fragmenstein_error>  (335) 


$$$$
C21290-P44
     RDKit          3D

 44 46  0  0  0  0  0  0  0  0999 V2000
   11.4930   -0.0651   14.0923 N   0  0  0  0  0  0  0  0  0  0  0  0
   10.6369    0.7625   14.8345 C   0  0  0  0  0  0  0  0  0  0  0  0
    9.6766    0.1936   15.6680 C   0  0  0  0  0  0  0  0  0  0  0  0
    8.8505    1.0070   16.4493 C   0  0  0  0  0  0  0  0  0  0  0  0
    8.9557    2.4076   16.4075 C   0  0  0  0  0  0  0  0  0  0  0  0
    9.9550    2.9723   15.6089 C   0  0  0  0  0  0  0  0  0  0  0  0
   10.8295    2.1455   14.8777 C   0  0  0  0  0  0  0  0  0  0  0  0
   10.0726    4.4709   15.5759 C   0  0  0  0  0  0  0  0  0  0  0  0
    8.7188    5.1644   15.8576 C   0  0  0  0  0  0  0  0  0  0  0  0
    8.1366    4.7533   17.1502 N   0  0  0  0  0  0  0  0  0  0  0  0
    6.8339    5.4942   17.4523 C   0  0  0  0  0  0  0  0  0  0  0  0
    6.5098    5.7300   18.9753 C   0  0  0  0  0  0  0  0  0  0  0  0
    6.6581    4.5537   19.6120 F   0  0  0  0  0  0  0  0  0  0  0  0
    5.1553    6.3988   19.4158 C   0  0  0  0  0  0  0  0  0  0  0  0
    5.1415    6.7095   20.9379 C   0  0  0  0  0  0  0  0  0  0  0  0
    4.0984    5.9794   21.7749 C   0  0  0  0  0  0  0  0  0  0  0  0
    2.7800    6.1403   21.1777 N   0  0  0  0  0  0  0  0  0  0  0  0
    2.7348    5.4103   19.9152 C   0  0  0  0  0  0  0  0  0  0  0  0
    3.8353    5.7761   18.9012 C   0  0  0  0  0  0  0  0  0  0  0  0
    7.9006    3.2784   17.1003 C   0  0  0  0  0  0  0  0  0  0  0  0
   10.9807   -0.8752   13.7316 H   0  0  0  0  0  0  0  0  0  0  0  0
   11.9475    0.4267   13.3307 H   0  0  0  0  0  0  0  0  0  0  0  0
    9.5476   -0.8836   15.6857 H   0  0  0  0  0  0  0  0  0  0  0  0
    8.0787    0.5535   17.0639 H   0  0  0  0  0  0  0  0  0  0  0  0
   11.6237    2.5992   14.2921 H   0  0  0  0  0  0  0  0  0  0  0  0
   10.8151    4.7846   16.3195 H   0  0  0  0  0  0  0  0  0  0  0  0
   10.4282    4.7949   14.5906 H   0  0  0  0  0  0  0  0  0  0  0  0
    8.8986    6.2462   15.8696 H   0  0  0  0  0  0  0  0  0  0  0  0
    8.0157    4.9618   15.0381 H   0  0  0  0  0  0  0  0  0  0  0  0
    6.8888    6.4923   16.9990 H   0  0  0  0  0  0  0  0  0  0  0  0
    5.9953    4.9832   16.9662 H   0  0  0  0  0  0  0  0  0  0  0  0
    7.3171    6.3720   19.3519 H   0  0  0  0  0  0  0  0  0  0  0  0
    5.2092    7.3840   18.9258 H   0  0  0  0  0  0  0  0  0  0  0  0
    4.9574    7.7882   21.0477 H   0  0  0  0  0  0  0  0  0  0  0  0
    6.1326    6.5438   21.3762 H   0  0  0  0  0  0  0  0  0  0  0  0
    4.3591    4.9272   21.9043 H   0  0  0  0  0  0  0  0  0  0  0  0
    4.0856    6.4191   22.7789 H   0  0  0  0  0  0  0  0  0  0  0  0
    2.0856    5.7313   21.8029 H   0  0  0  0  0  0  0  0  0  0  0  0
    2.7386    4.3370   20.1061 H   0  0  0  0  0  0  0  0  0  0  0  0
    1.7617    5.6024   19.4463 H   0  0  0  0  0  0  0  0  0  0  0  0
    3.3931    6.5173   18.2191 H   0  0  0  0  0  0  0  0  0  0  0  0
    4.0356    4.9098   18.2639 H   0  0  0  0  0  0  0  0  0  0  0  0
    6.9914    3.1302   16.5109 H   0  0  0  0  0  0  0  0  0  0  0  0
    7.7552    2.9125   18.1218 H   0  0  0  0  0  0  0  0  0  0  0  0
  1  2  1  0
  2  3  2  0
  3  4  1  0
  4  5  2  0
  5  6  1  0
  6  7  2  0
  6  8  1  0
  8  9  1  0
  9 10  1  0
 10 11  1  0
 11 12  1  0
 12 13  1  0
 12 14  1  0
 14 15  1  0
 15 16  1  0
 16 17  1  0
 17 18  1  0
 18 19  1  0
 10 20  1  0
  7  2  1  0
 19 14  1  0
 20  5  1  0
  1 21  1  0
  1 22  1  0
  3 23  1  0
  4 24  1  0
  7 25  1  0
  8 26  1  0
  8 27  1  0
  9 28  1  0
  9 29  1  0
 11 30  1  0
 11 31  1  0
 12 32  1  0
 14 33  1  0
 15 34  1  0
 15 35  1  0
 16 36  1  0
 16 37  1  0
 17 38  1  0
 18 39  1  0
 18 40  1  0
 19 41  1  0
 19 42  1  0
 20 43  1  0
 20 44  1  0
M  END
>  <Energy>  (336) 
73.231445040771987

>  <compound_id>  (336) 
21290

>  <target_id>  (336) 
1

>  <reference_id>  (336) 
44

>  <inspiration_ids>  (336) 
[146, 44]

>  <energy_score>  (336) 
-36.345786351896436

>  <distance_score>  (336) 
8.352873924121289

>  <path>  (336) 
/opt/xchem-fragalysis-2/maxwin/BulkDock/SCRATCH/511013/C21290-P44/C21290-P44.minimised.mol

>  <scratch_subdir>  (336) 
/opt/xchem-fragalysis-2/maxwin/BulkDock/SCRATCH/511013/C21290-P44

>  <fragmenstein_runtime>  (336) 
7.135053873062134

>  <fragmenstein_outcome>  (336) 
too moved

>  <fragmenstein_mode>  (336) 
expansion

>  <fragmenstein_error>  (336) 


$$$$
C21293-P146
     RDKit          3D

 40 42  0  0  0  0  0  0  0  0999 V2000
    2.5036   -5.3087   23.9717 O   0  0  0  0  0  0  0  0  0  0  0  0
    2.5592   -5.5260   22.8158 C   0  0  0  0  0  0  0  0  0  0  0  0
    1.4994   -5.6782   21.8270 N   0  0  0  0  0  0  0  0  0  0  0  0
    0.0698   -5.5128   21.9409 C   0  0  0  0  0  0  0  0  0  0  0  0
   -0.5640   -6.1318   23.1689 C   0  0  0  0  0  0  0  0  0  0  0  0
   -2.0607   -5.8564   23.1451 C   0  0  0  0  0  0  0  0  0  0  0  0
   -2.3504   -4.4326   23.0869 N   0  0  0  0  0  0  0  0  0  0  0  0
   -1.7601   -3.7575   21.9419 C   0  0  0  0  0  0  0  0  0  0  0  0
   -0.2710   -4.0211   21.8119 C   0  0  0  0  0  0  0  0  0  0  0  0
    3.6997   -5.6236   21.9344 N   0  0  0  0  0  0  0  0  0  0  0  0
    5.1609   -5.3674   22.1889 C   0  0  0  0  0  0  0  0  0  0  0  0
    5.8445   -5.1371   20.8145 C   0  0  0  0  0  0  0  0  0  0  0  0
    5.5189   -6.3029   19.9181 C   0  0  0  0  0  0  0  0  0  0  0  0
    5.6943   -6.3232   18.5410 C   0  0  0  0  0  0  0  0  0  0  0  0
    5.2264   -7.3969   17.7905 C   0  0  0  0  0  0  0  0  0  0  0  0
    5.1394   -7.2960   16.0774 Cl  0  0  0  0  0  0  0  0  0  0  0  0
    4.7226   -8.5289   18.4135 C   0  0  0  0  0  0  0  0  0  0  0  0
    4.5089   -8.5085   19.7847 C   0  0  0  0  0  0  0  0  0  0  0  0
    4.8104   -7.3531   20.5060 C   0  0  0  0  0  0  0  0  0  0  0  0
    4.1918   -7.0739   21.8648 C   0  0  0  0  0  0  0  0  0  0  0  0
    1.9138   -5.7764   20.9090 H   0  0  0  0  0  0  0  0  0  0  0  0
   -0.3381   -6.0222   21.0573 H   0  0  0  0  0  0  0  0  0  0  0  0
   -0.1212   -5.7488   24.0910 H   0  0  0  0  0  0  0  0  0  0  0  0
   -0.3880   -7.2144   23.1744 H   0  0  0  0  0  0  0  0  0  0  0  0
   -2.5297   -6.3686   22.2959 H   0  0  0  0  0  0  0  0  0  0  0  0
   -2.4938   -6.2906   24.0505 H   0  0  0  0  0  0  0  0  0  0  0  0
   -3.3516   -4.2555   23.0802 H   0  0  0  0  0  0  0  0  0  0  0  0
   -2.2692   -4.0879   21.0279 H   0  0  0  0  0  0  0  0  0  0  0  0
   -1.9353   -2.6799   22.0251 H   0  0  0  0  0  0  0  0  0  0  0  0
    0.0697   -3.6522   20.8362 H   0  0  0  0  0  0  0  0  0  0  0  0
    0.2827   -3.4455   22.5521 H   0  0  0  0  0  0  0  0  0  0  0  0
    5.1540   -4.3832   22.6825 H   0  0  0  0  0  0  0  0  0  0  0  0
    5.7271   -5.9593   22.9266 H   0  0  0  0  0  0  0  0  0  0  0  0
    5.4329   -4.2316   20.3703 H   0  0  0  0  0  0  0  0  0  0  0  0
    6.9065   -4.9637   20.9500 H   0  0  0  0  0  0  0  0  0  0  0  0
    6.0966   -5.4705   18.0329 H   0  0  0  0  0  0  0  0  0  0  0  0
    4.3873   -9.3815   17.8286 H   0  0  0  0  0  0  0  0  0  0  0  0
    3.9879   -9.3389   20.2558 H   0  0  0  0  0  0  0  0  0  0  0  0
    4.7213   -7.4924   22.7362 H   0  0  0  0  0  0  0  0  0  0  0  0
    3.2628   -7.6673   21.8803 H   0  0  0  0  0  0  0  0  0  0  0  0
  1  2  2  0
  2  3  1  0
  3  4  1  0
  4  5  1  0
  5  6  1  0
  6  7  1  0
  7  8  1  0
  8  9  1  0
  2 10  1  0
 10 11  1  0
 11 12  1  0
 12 13  1  0
 13 14  2  0
 14 15  1  0
 15 16  1  0
 15 17  2  0
 17 18  1  0
 18 19  2  0
 19 20  1  0
  9  4  1  0
 20 10  1  0
 19 13  1  0
  3 21  1  0
  4 22  1  0
  5 23  1  0
  5 24  1  0
  6 25  1  0
  6 26  1  0
  7 27  1  0
  8 28  1  0
  8 29  1  0
  9 30  1  0
  9 31  1  0
 11 32  1  0
 11 33  1  0
 12 34  1  0
 12 35  1  0
 14 36  1  0
 17 37  1  0
 18 38  1  0
 20 39  1  0
 20 40  1  0
M  END
>  <Energy>  (337) 
30.985560744601536

>  <compound_id>  (337) 
21293

>  <target_id>  (337) 
1

>  <reference_id>  (337) 
146

>  <inspiration_ids>  (337) 
[146, 44]

>  <energy_score>  (337) 
50.767008193364234

>  <distance_score>  (337) 
10.338876078723167

>  <path>  (337) 
/opt/xchem-fragalysis-2/maxwin/BulkDock/SCRATCH/511013/C21293-P146/C21293-P146.minimised.mol

>  <scratch_subdir>  (337) 
/opt/xchem-fragalysis-2/maxwin/BulkDock/SCRATCH/511013/C21293-P146

>  <fragmenstein_runtime>  (337) 
8.85494589805603

>  <fragmenstein_outcome>  (337) 
too moved

>  <fragmenstein_mode>  (337) 
expansion

>  <fragmenstein_error>  (337) 


$$$$
C21293-P44
     RDKit          3D

 40 42  0  0  0  0  0  0  0  0999 V2000
    7.2487    2.7394   19.3052 O   0  0  0  0  0  0  0  0  0  0  0  0
    7.3407    1.5740   19.2323 C   0  0  0  0  0  0  0  0  0  0  0  0
    6.2288    0.4477   20.1341 N   0  0  0  0  0  0  0  0  0  0  0  0
    4.5449    0.8392   21.3146 C   0  0  0  0  0  0  0  0  0  0  0  0
    2.7477    1.7787   21.2131 C   0  0  0  0  0  0  0  0  0  0  0  0
    2.4041    3.0411   22.2494 C   0  0  0  0  0  0  0  0  0  0  0  0
    2.2581    2.7460   23.6669 N   0  0  0  0  0  0  0  0  0  0  0  0
    3.3586    1.9516   24.1530 C   0  0  0  0  0  0  0  0  0  0  0  0
    4.4558    1.5493   23.1310 C   0  0  0  0  0  0  0  0  0  0  0  0
    8.3869    0.8493   18.4280 N   0  0  0  0  0  0  0  0  0  0  0  0
    9.5319    1.3488   17.6843 C   0  0  0  0  0  0  0  0  0  0  0  0
    9.7662    2.0772   16.3083 C   0  0  0  0  0  0  0  0  0  0  0  0
    9.9047    0.8479   15.4761 C   0  0  0  0  0  0  0  0  0  0  0  0
   11.0728    0.4674   14.8127 C   0  0  0  0  0  0  0  0  0  0  0  0
   11.2542   -0.8805   14.5489 C   0  0  0  0  0  0  0  0  0  0  0  0
   12.7284   -1.4348   13.8596 Cl  0  0  0  0  0  0  0  0  0  0  0  0
   10.2345   -1.7872   14.8442 C   0  0  0  0  0  0  0  0  0  0  0  0
    9.0023   -1.3529   15.3672 C   0  0  0  0  0  0  0  0  0  0  0  0
    8.8884   -0.0564   15.8183 C   0  0  0  0  0  0  0  0  0  0  0  0
    7.8716    0.5471   16.8982 C   0  0  0  0  0  0  0  0  0  0  0  0
    6.4333   -0.5145   19.8600 H   0  0  0  0  0  0  0  0  0  0  0  0
    4.4942   -0.2057   21.6386 H   0  0  0  0  0  0  0  0  0  0  0  0
    2.5409    2.3432   20.2729 H   0  0  0  0  0  0  0  0  0  0  0  0
    1.8727    1.2289   20.9801 H   0  0  0  0  0  0  0  0  0  0  0  0
    3.0922    3.8898   22.1442 H   0  0  0  0  0  0  0  0  0  0  0  0
    1.4460    3.4552   21.9021 H   0  0  0  0  0  0  0  0  0  0  0  0
    2.1874    3.6186   24.1907 H   0  0  0  0  0  0  0  0  0  0  0  0
    3.8640    2.5589   24.9221 H   0  0  0  0  0  0  0  0  0  0  0  0
    3.0559    1.0897   24.7479 H   0  0  0  0  0  0  0  0  0  0  0  0
    4.8074    2.6087   23.1163 H   0  0  0  0  0  0  0  0  0  0  0  0
    4.9560    0.7602   23.7314 H   0  0  0  0  0  0  0  0  0  0  0  0
    9.8103    2.1482   18.3709 H   0  0  0  0  0  0  0  0  0  0  0  0
   10.1224    0.4983   17.7223 H   0  0  0  0  0  0  0  0  0  0  0  0
   10.6933    2.6482   16.2632 H   0  0  0  0  0  0  0  0  0  0  0  0
    8.9642    2.7513   15.9926 H   0  0  0  0  0  0  0  0  0  0  0  0
   11.8704    1.1805   14.6309 H   0  0  0  0  0  0  0  0  0  0  0  0
   10.3760   -2.8378   14.6069 H   0  0  0  0  0  0  0  0  0  0  0  0
    8.1880   -2.0583   15.4590 H   0  0  0  0  0  0  0  0  0  0  0  0
    7.0704   -0.1874   16.9456 H   0  0  0  0  0  0  0  0  0  0  0  0
    7.5590    1.4814   16.4165 H   0  0  0  0  0  0  0  0  0  0  0  0
  1  2  2  0
  2  3  1  0
  3  4  1  0
  4  5  1  0
  5  6  1  0
  6  7  1  0
  7  8  1  0
  8  9  1  0
  2 10  1  0
 10 11  1  0
 11 12  1  0
 12 13  1  0
 13 14  2  0
 14 15  1  0
 15 16  1  0
 15 17  2  0
 17 18  1  0
 18 19  2  0
 19 20  1  0
  9  4  1  0
 20 10  1  0
 19 13  1  0
  3 21  1  0
  4 22  1  0
  5 23  1  0
  5 24  1  0
  6 25  1  0
  6 26  1  0
  7 27  1  0
  8 28  1  0
  8 29  1  0
  9 30  1  0
  9 31  1  0
 11 32  1  0
 11 33  1  0
 12 34  1  0
 12 35  1  0
 14 36  1  0
 17 37  1  0
 18 38  1  0
 20 39  1  0
 20 40  1  0
M  END
>  <Energy>  (338) 
449.99773271586935

>  <compound_id>  (338) 
21293

>  <target_id>  (338) 
1

>  <reference_id>  (338) 
44

>  <inspiration_ids>  (338) 
[146, 44]

>  <energy_score>  (338) 
469.7791801646301

>  <distance_score>  (338) 
6.508645350749571

>  <path>  (338) 
/opt/xchem-fragalysis-2/maxwin/BulkDock/SCRATCH/511013/C21293-P44/C21293-P44.minimised.mol

>  <scratch_subdir>  (338) 
/opt/xchem-fragalysis-2/maxwin/BulkDock/SCRATCH/511013/C21293-P44

>  <fragmenstein_runtime>  (338) 
4.837431192398071

>  <fragmenstein_outcome>  (338) 
too moved

>  <fragmenstein_mode>  (338) 
expansion

>  <fragmenstein_error>  (338) 


$$$$
C21294-P146
     RDKit          3D

 41 43  0  0  0  0  0  0  0  0999 V2000
    4.6622   -2.4722   15.4903 O   0  0  0  0  0  0  0  0  0  0  0  0
    4.7288   -1.7230   16.4572 C   0  0  0  0  0  0  0  0  0  0  0  0
    6.5263   -0.9134   16.7209 N   0  0  0  0  0  0  0  0  0  0  0  0
    8.0295   -1.1944   15.8860 C   0  0  0  0  0  0  0  0  0  0  0  0
    9.5283   -0.7009   15.8615 C   0  0  0  0  0  0  0  0  0  0  0  0
    9.6721    0.7114   16.2736 C   0  0  0  0  0  0  0  0  0  0  0  0
   10.6774    1.5990   15.8900 C   0  0  0  0  0  0  0  0  0  0  0  0
   10.6249    2.9175   16.3418 C   0  0  0  0  0  0  0  0  0  0  0  0
   11.7474    4.0949   15.7729 Cl  0  0  0  0  0  0  0  0  0  0  0  0
    9.6037    3.3296   17.1940 C   0  0  0  0  0  0  0  0  0  0  0  0
    8.5320    2.4793   17.4498 C   0  0  0  0  0  0  0  0  0  0  0  0
    8.5323    1.1987   16.8935 C   0  0  0  0  0  0  0  0  0  0  0  0
    7.2283    0.6279   16.0962 C   0  0  0  0  0  0  0  0  0  0  0  0
    3.1903   -1.7321   17.2888 C   0  0  0  0  0  0  0  0  0  0  0  0
    3.0998   -3.1177   17.4523 F   0  0  0  0  0  0  0  0  0  0  0  0
    3.0823   -1.1888   18.4419 F   0  0  0  0  0  0  0  0  0  0  0  0
    1.5755   -1.5147   16.8148 C   0  0  0  0  0  0  0  0  0  0  0  0
    0.5705   -2.2167   17.7896 C   0  0  0  0  0  0  0  0  0  0  0  0
   -0.8984   -2.1333   17.3776 C   0  0  0  0  0  0  0  0  0  0  0  0
   -1.2127   -0.9788   16.5582 N   0  0  0  0  0  0  0  0  0  0  0  0
   -0.4445    0.1945   16.8888 C   0  0  0  0  0  0  0  0  0  0  0  0
    1.0633   -0.0349   16.7862 C   0  0  0  0  0  0  0  0  0  0  0  0
    8.0846   -2.2778   15.8295 H   0  0  0  0  0  0  0  0  0  0  0  0
    7.7027   -1.2265   14.8300 H   0  0  0  0  0  0  0  0  0  0  0  0
   10.1862   -1.3481   16.4350 H   0  0  0  0  0  0  0  0  0  0  0  0
    9.8792   -0.7984   14.8250 H   0  0  0  0  0  0  0  0  0  0  0  0
   11.4901    1.2765   15.2433 H   0  0  0  0  0  0  0  0  0  0  0  0
    9.5648    4.3574   17.5467 H   0  0  0  0  0  0  0  0  0  0  0  0
    7.6392    2.8872   17.9152 H   0  0  0  0  0  0  0  0  0  0  0  0
    7.8413    0.6072   15.2021 H   0  0  0  0  0  0  0  0  0  0  0  0
    6.6558    1.5629   16.0105 H   0  0  0  0  0  0  0  0  0  0  0  0
    1.4031   -2.0202   15.8560 H   0  0  0  0  0  0  0  0  0  0  0  0
    0.6432   -1.7415   18.7718 H   0  0  0  0  0  0  0  0  0  0  0  0
    0.8151   -3.2802   17.8854 H   0  0  0  0  0  0  0  0  0  0  0  0
   -1.1644   -3.0303   16.8069 H   0  0  0  0  0  0  0  0  0  0  0  0
   -1.5257   -2.1430   18.2770 H   0  0  0  0  0  0  0  0  0  0  0  0
   -2.2138   -0.7839   16.5914 H   0  0  0  0  0  0  0  0  0  0  0  0
   -0.7233    1.0065   16.2065 H   0  0  0  0  0  0  0  0  0  0  0  0
   -0.6900    0.5616   17.8819 H   0  0  0  0  0  0  0  0  0  0  0  0
    1.3955    0.4459   15.8600 H   0  0  0  0  0  0  0  0  0  0  0  0
    1.4794    0.5140   17.6377 H   0  0  0  0  0  0  0  0  0  0  0  0
  1  2  2  0
  2  3  1  0
  3  4  1  0
  4  5  1  0
  5  6  1  0
  6  7  2  0
  7  8  1  0
  8  9  1  0
  8 10  2  0
 10 11  1  0
 11 12  2  0
 12 13  1  0
  2 14  1  0
 14 15  1  0
 14 16  1  0
 14 17  1  0
 17 18  1  0
 18 19  1  0
 19 20  1  0
 20 21  1  0
 21 22  1  0
 13  3  1  0
 22 17  1  0
 12  6  1  0
  4 23  1  0
  4 24  1  0
  5 25  1  0
  5 26  1  0
  7 27  1  0
 10 28  1  0
 11 29  1  0
 13 30  1  0
 13 31  1  0
 17 32  1  0
 18 33  1  0
 18 34  1  0
 19 35  1  0
 19 36  1  0
 20 37  1  0
 21 38  1  0
 21 39  1  0
 22 40  1  0
 22 41  1  0
M  END
>  <Energy>  (339) 
526.97787015296092

>  <compound_id>  (339) 
21294

>  <target_id>  (339) 
1

>  <reference_id>  (339) 
146

>  <inspiration_ids>  (339) 
[146, 44]

>  <energy_score>  (339) 
419.49983748108514

>  <distance_score>  (339) 
8.947495886090778

>  <path>  (339) 
/opt/xchem-fragalysis-2/maxwin/BulkDock/SCRATCH/511013/C21294-P146/C21294-P146.minimised.mol

>  <scratch_subdir>  (339) 
/opt/xchem-fragalysis-2/maxwin/BulkDock/SCRATCH/511013/C21294-P146

>  <fragmenstein_runtime>  (339) 
8.777522325515747

>  <fragmenstein_outcome>  (339) 
too moved

>  <fragmenstein_mode>  (339) 
expansion

>  <fragmenstein_error>  (339) 


$$$$
C21294-P44
     RDKit          3D

 41 43  0  0  0  0  0  0  0  0999 V2000
    5.8018    7.9809   18.4197 O   0  0  0  0  0  0  0  0  0  0  0  0
    5.7792    6.8677   18.8916 C   0  0  0  0  0  0  0  0  0  0  0  0
    6.0172    5.5805   18.2716 N   0  0  0  0  0  0  0  0  0  0  0  0
    6.2625    5.2018   16.7751 C   0  0  0  0  0  0  0  0  0  0  0  0
    7.5808    5.0698   15.8960 C   0  0  0  0  0  0  0  0  0  0  0  0
    8.2767    3.8919   16.4930 C   0  0  0  0  0  0  0  0  0  0  0  0
    8.8394    2.8063   15.8238 C   0  0  0  0  0  0  0  0  0  0  0  0
    9.0251    1.6262   16.5340 C   0  0  0  0  0  0  0  0  0  0  0  0
    9.4813    0.1877   15.7083 Cl  0  0  0  0  0  0  0  0  0  0  0  0
    8.7194    1.5802   17.8930 C   0  0  0  0  0  0  0  0  0  0  0  0
    8.3028    2.7265   18.5743 C   0  0  0  0  0  0  0  0  0  0  0  0
    8.0740    3.8924   17.8693 C   0  0  0  0  0  0  0  0  0  0  0  0
    7.4956    5.2108   18.3863 C   0  0  0  0  0  0  0  0  0  0  0  0
    5.4857    6.7895   20.4751 C   0  0  0  0  0  0  0  0  0  0  0  0
    6.6520    6.4228   21.1094 F   0  0  0  0  0  0  0  0  0  0  0  0
    5.2425    8.0595   20.9487 F   0  0  0  0  0  0  0  0  0  0  0  0
    4.3585    5.8929   21.0334 C   0  0  0  0  0  0  0  0  0  0  0  0
    2.9560    6.1565   20.4708 C   0  0  0  0  0  0  0  0  0  0  0  0
    1.8911    5.2702   21.1423 C   0  0  0  0  0  0  0  0  0  0  0  0
    1.8755    5.4176   22.5972 N   0  0  0  0  0  0  0  0  0  0  0  0
    3.1793    5.1039   23.1726 C   0  0  0  0  0  0  0  0  0  0  0  0
    4.2711    5.9976   22.5795 C   0  0  0  0  0  0  0  0  0  0  0  0
    5.6680    4.2820   16.6447 H   0  0  0  0  0  0  0  0  0  0  0  0
    5.6772    5.9763   16.2570 H   0  0  0  0  0  0  0  0  0  0  0  0
    8.1954    5.9756   15.9219 H   0  0  0  0  0  0  0  0  0  0  0  0
    7.2960    4.8718   14.8579 H   0  0  0  0  0  0  0  0  0  0  0  0
    9.0058    2.8370   14.7540 H   0  0  0  0  0  0  0  0  0  0  0  0
    8.7168    0.6485   18.4372 H   0  0  0  0  0  0  0  0  0  0  0  0
    8.0587    2.6608   19.6222 H   0  0  0  0  0  0  0  0  0  0  0  0
    7.6749    5.1842   19.4646 H   0  0  0  0  0  0  0  0  0  0  0  0
    8.1204    6.0757   18.0998 H   0  0  0  0  0  0  0  0  0  0  0  0
    4.6480    4.8819   20.7801 H   0  0  0  0  0  0  0  0  0  0  0  0
    2.9478    5.9707   19.3905 H   0  0  0  0  0  0  0  0  0  0  0  0
    2.6927    7.2124   20.6135 H   0  0  0  0  0  0  0  0  0  0  0  0
    2.0468    4.2199   20.8711 H   0  0  0  0  0  0  0  0  0  0  0  0
    0.9063    5.5514   20.7527 H   0  0  0  0  0  0  0  0  0  0  0  0
    1.1684    4.8024   22.9959 H   0  0  0  0  0  0  0  0  0  0  0  0
    3.4222    4.0467   23.0188 H   0  0  0  0  0  0  0  0  0  0  0  0
    3.1354    5.2657   24.2552 H   0  0  0  0  0  0  0  0  0  0  0  0
    5.2315    5.7372   23.0345 H   0  0  0  0  0  0  0  0  0  0  0  0
    4.0712    7.0397   22.8633 H   0  0  0  0  0  0  0  0  0  0  0  0
  1  2  2  0
  2  3  1  0
  3  4  1  0
  4  5  1  0
  5  6  1  0
  6  7  2  0
  7  8  1  0
  8  9  1  0
  8 10  2  0
 10 11  1  0
 11 12  2  0
 12 13  1  0
  2 14  1  0
 14 15  1  0
 14 16  1  0
 14 17  1  0
 17 18  1  0
 18 19  1  0
 19 20  1  0
 20 21  1  0
 21 22  1  0
 13  3  1  0
 22 17  1  0
 12  6  1  0
  4 23  1  0
  4 24  1  0
  5 25  1  0
  5 26  1  0
  7 27  1  0
 10 28  1  0
 11 29  1  0
 13 30  1  0
 13 31  1  0
 17 32  1  0
 18 33  1  0
 18 34  1  0
 19 35  1  0
 19 36  1  0
 20 37  1  0
 21 38  1  0
 21 39  1  0
 22 40  1  0
 22 41  1  0
M  END
>  <Energy>  (340) 
177.1841117693069

>  <compound_id>  (340) 
21294

>  <target_id>  (340) 
1

>  <reference_id>  (340) 
44

>  <inspiration_ids>  (340) 
[146, 44]

>  <energy_score>  (340) 
69.70607909743717

>  <distance_score>  (340) 
8.638562092637617

>  <path>  (340) 
/opt/xchem-fragalysis-2/maxwin/BulkDock/SCRATCH/511013/C21294-P44/C21294-P44.minimised.mol

>  <scratch_subdir>  (340) 
/opt/xchem-fragalysis-2/maxwin/BulkDock/SCRATCH/511013/C21294-P44

>  <fragmenstein_runtime>  (340) 
4.840956211090088

>  <fragmenstein_outcome>  (340) 
too moved

>  <fragmenstein_mode>  (340) 
expansion

>  <fragmenstein_error>  (340) 


$$$$
C21303-P146
     RDKit          3D

 49 51  0  0  0  0  0  0  0  0999 V2000
    5.5874   -0.4989   24.4011 O   0  0  0  0  0  0  0  0  0  0  0  0
    4.8684    0.2134   23.6307 C   0  0  0  0  0  0  0  0  0  0  0  0
    3.5391    0.9730   24.5699 C   0  0  0  0  0  0  0  0  0  0  0  0
    3.9021    1.5977   25.9105 N   0  0  0  0  0  0  0  0  0  0  0  0
    2.9942    2.7370   26.1732 C   0  0  0  0  0  0  0  0  0  0  0  0
    2.7444    3.0030   27.6544 C   0  0  0  0  0  0  0  0  0  0  0  0
    2.0619    1.8049   28.3056 C   0  0  0  0  0  0  0  0  0  0  0  0
    2.5347    0.4768   27.7135 C   0  0  0  0  0  0  0  0  0  0  0  0
    3.8859    0.6018   26.9976 C   0  0  0  0  0  0  0  0  0  0  0  0
    5.1010    0.6687   21.7550 N   0  0  0  0  0  0  0  0  0  0  0  0
    6.6364    0.2936   20.4046 C   0  0  0  0  0  0  0  0  0  0  0  0
    7.8121    1.3308   19.2977 C   0  0  0  0  0  0  0  0  0  0  0  0
    8.8324    0.9953   18.1484 N   0  0  0  0  0  0  0  0  0  0  0  0
    9.5824    2.3053   17.8483 C   0  0  0  0  0  0  0  0  0  0  0  0
   10.2639    2.5019   16.4438 C   0  0  0  0  0  0  0  0  0  0  0  0
   10.4709    1.2117   15.7000 C   0  0  0  0  0  0  0  0  0  0  0  0
   11.5816    0.9531   14.8896 C   0  0  0  0  0  0  0  0  0  0  0  0
   11.7946   -0.3314   14.3934 C   0  0  0  0  0  0  0  0  0  0  0  0
   10.8536   -1.3286   14.6331 C   0  0  0  0  0  0  0  0  0  0  0  0
    9.6818   -1.0340   15.3337 C   0  0  0  0  0  0  0  0  0  0  0  0
    9.5073    0.2214   15.9114 C   0  0  0  0  0  0  0  0  0  0  0  0
    8.3398    0.6034   16.8032 C   0  0  0  0  0  0  0  0  0  0  0  0
    3.0628    1.7549   23.9601 H   0  0  0  0  0  0  0  0  0  0  0  0
    2.9465    0.1086   24.8602 H   0  0  0  0  0  0  0  0  0  0  0  0
    3.4279    3.6321   25.7126 H   0  0  0  0  0  0  0  0  0  0  0  0
    2.0137    2.5838   25.7038 H   0  0  0  0  0  0  0  0  0  0  0  0
    3.6970    3.2097   28.1585 H   0  0  0  0  0  0  0  0  0  0  0  0
    2.1233    3.8969   27.7819 H   0  0  0  0  0  0  0  0  0  0  0  0
    2.2555    1.8266   29.3845 H   0  0  0  0  0  0  0  0  0  0  0  0
    0.9743    1.8806   28.1866 H   0  0  0  0  0  0  0  0  0  0  0  0
    1.7783    0.1016   27.0171 H   0  0  0  0  0  0  0  0  0  0  0  0
    2.6069   -0.2716   28.5115 H   0  0  0  0  0  0  0  0  0  0  0  0
    4.6401    0.9062   27.7350 H   0  0  0  0  0  0  0  0  0  0  0  0
    4.2150   -0.3830   26.6461 H   0  0  0  0  0  0  0  0  0  0  0  0
    4.2914    1.1865   21.4212 H   0  0  0  0  0  0  0  0  0  0  0  0
    7.1056   -0.7023   20.1161 H   0  0  0  0  0  0  0  0  0  0  0  0
    7.2635    1.0350   20.9929 H   0  0  0  0  0  0  0  0  0  0  0  0
    7.3351    2.2697   19.0191 H   0  0  0  0  0  0  0  0  0  0  0  0
    8.5633    1.6508   20.0468 H   0  0  0  0  0  0  0  0  0  0  0  0
    8.8947    3.1560   17.9533 H   0  0  0  0  0  0  0  0  0  0  0  0
   10.3403    2.4585   18.6231 H   0  0  0  0  0  0  0  0  0  0  0  0
    9.6204    3.1395   15.8234 H   0  0  0  0  0  0  0  0  0  0  0  0
   11.2069    3.0406   16.5779 H   0  0  0  0  0  0  0  0  0  0  0  0
   12.3217    1.7282   14.7056 H   0  0  0  0  0  0  0  0  0  0  0  0
   12.6817   -0.5455   13.8040 H   0  0  0  0  0  0  0  0  0  0  0  0
   10.9952   -2.3189   14.2082 H   0  0  0  0  0  0  0  0  0  0  0  0
    8.9040   -1.7843   15.3953 H   0  0  0  0  0  0  0  0  0  0  0  0
    7.6455   -0.2267   16.7915 H   0  0  0  0  0  0  0  0  0  0  0  0
    7.8346    1.4427   16.3062 H   0  0  0  0  0  0  0  0  0  0  0  0
  1  2  2  0
  2  3  1  0
  3  4  1  0
  4  5  1  0
  5  6  1  0
  6  7  1  0
  7  8  1  0
  8  9  1  0
  2 10  1  0
 10 11  1  0
 11 12  1  0
 12 13  1  0
 13 14  1  0
 14 15  1  0
 15 16  1  0
 16 17  2  0
 17 18  1  0
 18 19  2  0
 19 20  1  0
 20 21  2  0
 21 22  1  0
  9  4  1  0
 22 13  1  0
 21 16  1  0
  3 23  1  0
  3 24  1  0
  5 25  1  0
  5 26  1  0
  6 27  1  0
  6 28  1  0
  7 29  1  0
  7 30  1  0
  8 31  1  0
  8 32  1  0
  9 33  1  0
  9 34  1  0
 10 35  1  0
 11 36  1  0
 11 37  1  0
 12 38  1  0
 12 39  1  0
 14 40  1  0
 14 41  1  0
 15 42  1  0
 15 43  1  0
 17 44  1  0
 18 45  1  0
 19 46  1  0
 20 47  1  0
 22 48  1  0
 22 49  1  0
M  END
>  <Energy>  (341) 
455.15696848573623

>  <compound_id>  (341) 
21303

>  <target_id>  (341) 
1

>  <reference_id>  (341) 
146

>  <inspiration_ids>  (341) 
[146, 44]

>  <energy_score>  (341) 
318.8719778782703

>  <distance_score>  (341) 
5.630766924131557

>  <path>  (341) 
/opt/xchem-fragalysis-2/maxwin/BulkDock/SCRATCH/511013/C21303-P146/C21303-P146.minimised.mol

>  <scratch_subdir>  (341) 
/opt/xchem-fragalysis-2/maxwin/BulkDock/SCRATCH/511013/C21303-P146

>  <fragmenstein_runtime>  (341) 
7.368765115737915

>  <fragmenstein_outcome>  (341) 
too moved

>  <fragmenstein_mode>  (341) 
expansion

>  <fragmenstein_error>  (341) 


$$$$
C21303-P44
     RDKit          3D

 49 51  0  0  0  0  0  0  0  0999 V2000
    5.0711   -1.3940   25.6895 O   0  0  0  0  0  0  0  0  0  0  0  0
    4.9311   -0.3436   25.1244 C   0  0  0  0  0  0  0  0  0  0  0  0
    4.7117    0.9558   25.9639 C   0  0  0  0  0  0  0  0  0  0  0  0
    3.2776    1.2393   26.2691 N   0  0  0  0  0  0  0  0  0  0  0  0
    3.1121    2.6716   26.5951 C   0  0  0  0  0  0  0  0  0  0  0  0
    1.9322    3.0147   27.5167 C   0  0  0  0  0  0  0  0  0  0  0  0
    0.7901    2.0304   27.3564 C   0  0  0  0  0  0  0  0  0  0  0  0
    1.2746    0.6101   27.6410 C   0  0  0  0  0  0  0  0  0  0  0  0
    2.7735    0.3904   27.3576 C   0  0  0  0  0  0  0  0  0  0  0  0
    4.9472   -0.0200   23.7057 N   0  0  0  0  0  0  0  0  0  0  0  0
    5.0462   -0.9591   22.4174 C   0  0  0  0  0  0  0  0  0  0  0  0
    6.3500   -1.0032   20.7399 C   0  0  0  0  0  0  0  0  0  0  0  0
    7.7609   -0.3850   19.6118 N   0  0  0  0  0  0  0  0  0  0  0  0
    8.3453    1.1432   19.7620 C   0  0  0  0  0  0  0  0  0  0  0  0
    8.7565    2.1747   18.6309 C   0  0  0  0  0  0  0  0  0  0  0  0
    9.0412    1.4968   17.3473 C   0  0  0  0  0  0  0  0  0  0  0  0
    9.8901    1.9995   16.3595 C   0  0  0  0  0  0  0  0  0  0  0  0
   10.2247    1.2167   15.2667 C   0  0  0  0  0  0  0  0  0  0  0  0
    9.6027   -0.0091   15.1083 C   0  0  0  0  0  0  0  0  0  0  0  0
    8.5959   -0.4086   15.9854 C   0  0  0  0  0  0  0  0  0  0  0  0
    8.3282    0.3282   17.1506 C   0  0  0  0  0  0  0  0  0  0  0  0
    7.2537   -0.0152   18.2596 C   0  0  0  0  0  0  0  0  0  0  0  0
    5.1444    1.7937   25.4037 H   0  0  0  0  0  0  0  0  0  0  0  0
    5.3062    0.8745   26.8831 H   0  0  0  0  0  0  0  0  0  0  0  0
    4.0170    3.0774   27.0673 H   0  0  0  0  0  0  0  0  0  0  0  0
    2.9870    3.2093   25.6472 H   0  0  0  0  0  0  0  0  0  0  0  0
    2.2716    2.9998   28.5605 H   0  0  0  0  0  0  0  0  0  0  0  0
    1.5864    4.0338   27.3102 H   0  0  0  0  0  0  0  0  0  0  0  0
   -0.0378    2.2851   28.0275 H   0  0  0  0  0  0  0  0  0  0  0  0
    0.3963    2.0946   26.3359 H   0  0  0  0  0  0  0  0  0  0  0  0
    0.6653   -0.0945   27.0684 H   0  0  0  0  0  0  0  0  0  0  0  0
    1.0918    0.3729   28.6968 H   0  0  0  0  0  0  0  0  0  0  0  0
    3.3414    0.5859   28.2775 H   0  0  0  0  0  0  0  0  0  0  0  0
    2.9183   -0.6700   27.1235 H   0  0  0  0  0  0  0  0  0  0  0  0
    4.7098    0.9500   23.5871 H   0  0  0  0  0  0  0  0  0  0  0  0
    4.1089   -1.4486   22.6066 H   0  0  0  0  0  0  0  0  0  0  0  0
    5.2430   -1.9094   23.0253 H   0  0  0  0  0  0  0  0  0  0  0  0
    6.0274   -2.0266   20.5011 H   0  0  0  0  0  0  0  0  0  0  0  0
    6.1114    0.0112   20.3112 H   0  0  0  0  0  0  0  0  0  0  0  0
    9.1540    1.0558   20.4772 H   0  0  0  0  0  0  0  0  0  0  0  0
    7.5367    1.7265   20.1841 H   0  0  0  0  0  0  0  0  0  0  0  0
    7.9294    2.8786   18.4607 H   0  0  0  0  0  0  0  0  0  0  0  0
    9.5882    2.7846   18.9902 H   0  0  0  0  0  0  0  0  0  0  0  0
   10.3285    2.9878   16.4663 H   0  0  0  0  0  0  0  0  0  0  0  0
   10.9467    1.5669   14.5360 H   0  0  0  0  0  0  0  0  0  0  0  0
    9.8688   -0.6322   14.2674 H   0  0  0  0  0  0  0  0  0  0  0  0
    8.0403   -1.3025   15.7244 H   0  0  0  0  0  0  0  0  0  0  0  0
    6.7721    0.8724   18.5769 H   0  0  0  0  0  0  0  0  0  0  0  0
    6.4464   -0.6033   17.8113 H   0  0  0  0  0  0  0  0  0  0  0  0
  1  2  2  0
  2  3  1  0
  3  4  1  0
  4  5  1  0
  5  6  1  0
  6  7  1  0
  7  8  1  0
  8  9  1  0
  2 10  1  0
 10 11  1  0
 11 12  1  0
 12 13  1  0
 13 14  1  0
 14 15  1  0
 15 16  1  0
 16 17  2  0
 17 18  1  0
 18 19  2  0
 19 20  1  0
 20 21  2  0
 21 22  1  0
  9  4  1  0
 22 13  1  0
 21 16  1  0
  3 23  1  0
  3 24  1  0
  5 25  1  0
  5 26  1  0
  6 27  1  0
  6 28  1  0
  7 29  1  0
  7 30  1  0
  8 31  1  0
  8 32  1  0
  9 33  1  0
  9 34  1  0
 10 35  1  0
 11 36  1  0
 11 37  1  0
 12 38  1  0
 12 39  1  0
 14 40  1  0
 14 41  1  0
 15 42  1  0
 15 43  1  0
 17 44  1  0
 18 45  1  0
 19 46  1  0
 20 47  1  0
 22 48  1  0
 22 49  1  0
M  END
>  <Energy>  (342) 
408.47045369261531

>  <compound_id>  (342) 
21303

>  <target_id>  (342) 
1

>  <reference_id>  (342) 
44

>  <inspiration_ids>  (342) 
[146, 44]

>  <energy_score>  (342) 
272.18546308515477

>  <distance_score>  (342) 
6.12462664828411

>  <path>  (342) 
/opt/xchem-fragalysis-2/maxwin/BulkDock/SCRATCH/511013/C21303-P44/C21303-P44.minimised.mol

>  <scratch_subdir>  (342) 
/opt/xchem-fragalysis-2/maxwin/BulkDock/SCRATCH/511013/C21303-P44

>  <fragmenstein_runtime>  (342) 
9.836562156677246

>  <fragmenstein_outcome>  (342) 
too moved

>  <fragmenstein_mode>  (342) 
expansion

>  <fragmenstein_error>  (342) 


$$$$
C21304-P146
     RDKit          3D

 50 53  0  0  0  0  0  0  0  0999 V2000
    4.4942   -4.9291   18.7115 O   0  0  0  0  0  0  0  0  0  0  0  0
    4.7189   -5.7342   17.9805 C   0  0  0  0  0  0  0  0  0  0  0  0
    6.0150   -6.4801   17.8396 N   0  0  0  0  0  0  0  0  0  0  0  0
    7.4360   -6.4332   18.8210 C   0  0  0  0  0  0  0  0  0  0  0  0
    9.5818   -5.8109   18.9641 C   0  0  0  0  0  0  0  0  0  0  0  0
   10.3042   -4.6778   17.2084 C   0  0  0  0  0  0  0  0  0  0  0  0
   11.5671   -4.1741   16.8969 C   0  0  0  0  0  0  0  0  0  0  0  0
   11.4482   -3.2979   15.7673 C   0  0  0  0  0  0  0  0  0  0  0  0
   10.1870   -2.8973   14.9566 C   0  0  0  0  0  0  0  0  0  0  0  0
    8.7656   -3.3674   15.0331 C   0  0  0  0  0  0  0  0  0  0  0  0
    8.6201   -4.3947   16.0127 C   0  0  0  0  0  0  0  0  0  0  0  0
    7.0958   -5.6108   16.5913 C   0  0  0  0  0  0  0  0  0  0  0  0
    3.8078   -6.4806   16.9218 N   0  0  0  0  0  0  0  0  0  0  0  0
    2.5193   -6.4955   16.6361 C   0  0  0  0  0  0  0  0  0  0  0  0
    1.7033   -6.9354   18.0712 C   0  0  0  0  0  0  0  0  0  0  0  0
    1.3177   -5.5395   18.0482 C   0  0  0  0  0  0  0  0  0  0  0  0
   -0.0851   -5.3083   18.3692 N   0  0  0  0  0  0  0  0  0  0  0  0
   -0.4625   -5.6572   19.7549 C   0  0  0  0  0  0  0  0  0  0  0  0
   -0.4071   -4.5287   20.7891 C   0  0  0  0  0  0  0  0  0  0  0  0
   -1.2345   -3.3439   20.3289 C   0  0  0  0  0  0  0  0  0  0  0  0
   -0.7413   -2.8841   18.9659 C   0  0  0  0  0  0  0  0  0  0  0  0
   -0.6534   -4.0268   17.9418 C   0  0  0  0  0  0  0  0  0  0  0  0
    1.9754   -5.9252   16.5553 C   0  0  0  0  0  0  0  0  0  0  0  0
    7.2241   -7.3782   19.4216 H   0  0  0  0  0  0  0  0  0  0  0  0
    6.9766   -5.6842   19.5450 H   0  0  0  0  0  0  0  0  0  0  0  0
   10.2652   -5.9690   19.8151 H   0  0  0  0  0  0  0  0  0  0  0  0
    9.1889   -5.0142   19.7263 H   0  0  0  0  0  0  0  0  0  0  0  0
   12.4706   -4.3362   17.4601 H   0  0  0  0  0  0  0  0  0  0  0  0
   12.3624   -2.7856   15.4477 H   0  0  0  0  0  0  0  0  0  0  0  0
   10.3832   -2.1080   14.2228 H   0  0  0  0  0  0  0  0  0  0  0  0
    7.9780   -2.8888   14.4679 H   0  0  0  0  0  0  0  0  0  0  0  0
    7.0426   -6.2223   15.7206 H   0  0  0  0  0  0  0  0  0  0  0  0
    6.1410   -5.2415   16.1198 H   0  0  0  0  0  0  0  0  0  0  0  0
    2.5789   -7.7172   16.6574 H   0  0  0  0  0  0  0  0  0  0  0  0
    2.6659   -7.0318   15.4377 H   0  0  0  0  0  0  0  0  0  0  0  0
    2.3561   -7.2492   18.8872 H   0  0  0  0  0  0  0  0  0  0  0  0
    0.8857   -7.6460   17.8748 H   0  0  0  0  0  0  0  0  0  0  0  0
    1.9922   -4.8938   18.6012 H   0  0  0  0  0  0  0  0  0  0  0  0
    0.1252   -6.5068   20.1225 H   0  0  0  0  0  0  0  0  0  0  0  0
   -1.4961   -6.0269   19.7165 H   0  0  0  0  0  0  0  0  0  0  0  0
    0.6293   -4.2242   20.9579 H   0  0  0  0  0  0  0  0  0  0  0  0
   -0.7914   -4.8939   21.7485 H   0  0  0  0  0  0  0  0  0  0  0  0
   -2.2907   -3.6314   20.2608 H   0  0  0  0  0  0  0  0  0  0  0  0
   -1.1715   -2.5372   21.0623 H   0  0  0  0  0  0  0  0  0  0  0  0
   -1.4205   -2.1178   18.5747 H   0  0  0  0  0  0  0  0  0  0  0  0
    0.2319   -2.4045   19.0667 H   0  0  0  0  0  0  0  0  0  0  0  0
   -0.1469   -3.6658   17.0380 H   0  0  0  0  0  0  0  0  0  0  0  0
   -1.6811   -4.2428   17.6195 H   0  0  0  0  0  0  0  0  0  0  0  0
    1.0871   -6.2311   15.6881 H   0  0  0  0  0  0  0  0  0  0  0  0
    2.1386   -4.7839   16.1640 H   0  0  0  0  0  0  0  0  0  0  0  0
  1  2  2  0
  2  3  1  0
  3  4  1  0
  4  5  1  0
  5  6  1  0
  6  7  2  0
  7  8  1  0
  8  9  2  0
  9 10  1  0
 10 11  2  0
 11 12  1  0
  2 13  1  0
 13 14  1  0
 14 15  1  0
 15 16  1  0
 16 17  1  0
 17 18  1  0
 18 19  1  0
 19 20  1  0
 20 21  1  0
 21 22  1  0
 16 23  1  0
 12  3  1  0
 23 13  1  0
 11  6  1  0
 22 17  1  0
  4 24  1  0
  4 25  1  0
  5 26  1  0
  5 27  1  0
  7 28  1  0
  8 29  1  0
  9 30  1  0
 10 31  1  0
 12 32  1  0
 12 33  1  0
 14 34  1  0
 14 35  1  0
 15 36  1  0
 15 37  1  0
 16 38  1  0
 18 39  1  0
 18 40  1  0
 19 41  1  0
 19 42  1  0
 20 43  1  0
 20 44  1  0
 21 45  1  0
 21 46  1  0
 22 47  1  0
 22 48  1  0
 23 49  1  0
 23 50  1  0
M  END
>  <Energy>  (343) 
1481.24854189042

>  <compound_id>  (343) 
21304

>  <target_id>  (343) 
1

>  <reference_id>  (343) 
146

>  <inspiration_ids>  (343) 
[146, 44]

>  <energy_score>  (343) 
1437.0038438954093

>  <distance_score>  (343) 
9.240182109366017

>  <path>  (343) 
/opt/xchem-fragalysis-2/maxwin/BulkDock/SCRATCH/511013/C21304-P146/C21304-P146.minimised.mol

>  <scratch_subdir>  (343) 
/opt/xchem-fragalysis-2/maxwin/BulkDock/SCRATCH/511013/C21304-P146

>  <fragmenstein_runtime>  (343) 
11.528696775436401

>  <fragmenstein_outcome>  (343) 
too moved

>  <fragmenstein_mode>  (343) 
expansion

>  <fragmenstein_error>  (343) 


$$$$
C21304-P44
     RDKit          3D

 50 53  0  0  0  0  0  0  0  0999 V2000
    7.0788    1.5293   20.5173 O   0  0  0  0  0  0  0  0  0  0  0  0
    6.7840    0.5195   20.1234 C   0  0  0  0  0  0  0  0  0  0  0  0
    7.2463    0.4292   18.4481 N   0  0  0  0  0  0  0  0  0  0  0  0
    7.9330    1.6522   17.3240 C   0  0  0  0  0  0  0  0  0  0  0  0
    7.9830    1.6031   15.7931 C   0  0  0  0  0  0  0  0  0  0  0  0
    9.2139    0.8398   15.5312 C   0  0  0  0  0  0  0  0  0  0  0  0
   10.0010    1.0065   14.3872 C   0  0  0  0  0  0  0  0  0  0  0  0
   11.0580    0.1417   14.1377 C   0  0  0  0  0  0  0  0  0  0  0  0
   11.2591   -0.9367   14.9803 C   0  0  0  0  0  0  0  0  0  0  0  0
   10.4632   -1.0904   16.1232 C   0  0  0  0  0  0  0  0  0  0  0  0
    9.4754   -0.1392   16.4859 C   0  0  0  0  0  0  0  0  0  0  0  0
    8.5136   -0.0536   18.0326 C   0  0  0  0  0  0  0  0  0  0  0  0
    5.7216   -0.9471   20.9916 N   0  0  0  0  0  0  0  0  0  0  0  0
    4.9303   -0.6596   22.5736 C   0  0  0  0  0  0  0  0  0  0  0  0
    5.0811    0.1331   24.2164 C   0  0  0  0  0  0  0  0  0  0  0  0
    5.0576   -1.2121   24.6861 C   0  0  0  0  0  0  0  0  0  0  0  0
    4.0748   -1.3154   25.7997 N   0  0  0  0  0  0  0  0  0  0  0  0
    4.2694   -2.5834   26.5413 C   0  0  0  0  0  0  0  0  0  0  0  0
    3.2534   -2.7924   27.6777 C   0  0  0  0  0  0  0  0  0  0  0  0
    3.1494   -1.5983   28.6149 C   0  0  0  0  0  0  0  0  0  0  0  0
    3.0069   -0.3118   27.8274 C   0  0  0  0  0  0  0  0  0  0  0  0
    4.1208   -0.1990   26.7848 C   0  0  0  0  0  0  0  0  0  0  0  0
    4.9051   -1.3302   22.8382 C   0  0  0  0  0  0  0  0  0  0  0  0
    7.3378    2.5472   17.6049 H   0  0  0  0  0  0  0  0  0  0  0  0
    8.8584    2.1117   17.7456 H   0  0  0  0  0  0  0  0  0  0  0  0
    8.0726    2.6215   15.3985 H   0  0  0  0  0  0  0  0  0  0  0  0
    7.1290    1.1145   15.3149 H   0  0  0  0  0  0  0  0  0  0  0  0
    9.7670    1.7897   13.6711 H   0  0  0  0  0  0  0  0  0  0  0  0
   11.6602    0.2585   13.2423 H   0  0  0  0  0  0  0  0  0  0  0  0
   12.0372   -1.6622   14.7561 H   0  0  0  0  0  0  0  0  0  0  0  0
   10.7659   -1.9372   16.7179 H   0  0  0  0  0  0  0  0  0  0  0  0
    9.2010    0.6025   18.5232 H   0  0  0  0  0  0  0  0  0  0  0  0
    7.9064   -0.2784   17.1375 H   0  0  0  0  0  0  0  0  0  0  0  0
    4.3996    0.0053   21.6719 H   0  0  0  0  0  0  0  0  0  0  0  0
    4.8941    0.6014   22.6302 H   0  0  0  0  0  0  0  0  0  0  0  0
    5.9506    0.5955   24.6679 H   0  0  0  0  0  0  0  0  0  0  0  0
    4.1923    0.7455   24.4170 H   0  0  0  0  0  0  0  0  0  0  0  0
    5.9834   -1.6724   25.0475 H   0  0  0  0  0  0  0  0  0  0  0  0
    5.2800   -2.6195   26.9708 H   0  0  0  0  0  0  0  0  0  0  0  0
    4.1877   -3.4295   25.8480 H   0  0  0  0  0  0  0  0  0  0  0  0
    3.5382   -3.6812   28.2535 H   0  0  0  0  0  0  0  0  0  0  0  0
    2.2639   -3.0040   27.2720 H   0  0  0  0  0  0  0  0  0  0  0  0
    2.3007   -1.7249   29.2961 H   0  0  0  0  0  0  0  0  0  0  0  0
    4.0523   -1.5476   29.2359 H   0  0  0  0  0  0  0  0  0  0  0  0
    2.0273   -0.2771   27.3353 H   0  0  0  0  0  0  0  0  0  0  0  0
    3.0519    0.5439   28.5108 H   0  0  0  0  0  0  0  0  0  0  0  0
    5.1017   -0.1680   27.2776 H   0  0  0  0  0  0  0  0  0  0  0  0
    3.9681    0.7795   26.3244 H   0  0  0  0  0  0  0  0  0  0  0  0
    5.3357   -2.4346   22.9384 H   0  0  0  0  0  0  0  0  0  0  0  0
    3.7897   -1.9491   22.9182 H   0  0  0  0  0  0  0  0  0  0  0  0
  1  2  2  0
  2  3  1  0
  3  4  1  0
  4  5  1  0
  5  6  1  0
  6  7  2  0
  7  8  1  0
  8  9  2  0
  9 10  1  0
 10 11  2  0
 11 12  1  0
  2 13  1  0
 13 14  1  0
 14 15  1  0
 15 16  1  0
 16 17  1  0
 17 18  1  0
 18 19  1  0
 19 20  1  0
 20 21  1  0
 21 22  1  0
 16 23  1  0
 12  3  1  0
 23 13  1  0
 11  6  1  0
 22 17  1  0
  4 24  1  0
  4 25  1  0
  5 26  1  0
  5 27  1  0
  7 28  1  0
  8 29  1  0
  9 30  1  0
 10 31  1  0
 12 32  1  0
 12 33  1  0
 14 34  1  0
 14 35  1  0
 15 36  1  0
 15 37  1  0
 16 38  1  0
 18 39  1  0
 18 40  1  0
 19 41  1  0
 19 42  1  0
 20 43  1  0
 20 44  1  0
 21 45  1  0
 21 46  1  0
 22 47  1  0
 22 48  1  0
 23 49  1  0
 23 50  1  0
M  END
>  <Energy>  (344) 
1293.1879889881743

>  <compound_id>  (344) 
21304

>  <target_id>  (344) 
1

>  <reference_id>  (344) 
44

>  <inspiration_ids>  (344) 
[146, 44]

>  <energy_score>  (344) 
1248.943290993176

>  <distance_score>  (344) 
6.866376465180614

>  <path>  (344) 
/opt/xchem-fragalysis-2/maxwin/BulkDock/SCRATCH/511013/C21304-P44/C21304-P44.minimised.mol

>  <scratch_subdir>  (344) 
/opt/xchem-fragalysis-2/maxwin/BulkDock/SCRATCH/511013/C21304-P44

>  <fragmenstein_runtime>  (344) 
7.928670883178711

>  <fragmenstein_outcome>  (344) 
too moved

>  <fragmenstein_mode>  (344) 
expansion

>  <fragmenstein_error>  (344) 


$$$$
C21308-P146
     RDKit          3D

 47 50  0  0  0  0  0  0  0  0999 V2000
    8.4117   -0.1858   16.3802 C   0  0  0  0  0  0  0  0  0  0  0  0
    8.8849    0.8654   17.3506 C   0  0  0  0  0  0  0  0  0  0  0  0
    9.9026    1.6290   16.6849 C   0  0  0  0  0  0  0  0  0  0  0  0
   10.4643    2.7583   17.2291 C   0  0  0  0  0  0  0  0  0  0  0  0
    9.9179    3.2149   18.3931 C   0  0  0  0  0  0  0  0  0  0  0  0
    8.8454    2.5113   18.9979 C   0  0  0  0  0  0  0  0  0  0  0  0
    8.3984    1.2402   18.6635 C   0  0  0  0  0  0  0  0  0  0  0  0
    7.4318    0.3703   19.7890 C   0  0  0  0  0  0  0  0  0  0  0  0
    6.4213    1.0177   21.2915 N   0  0  0  0  0  0  0  0  0  0  0  0
    4.8718    0.8050   22.3630 C   0  0  0  0  0  0  0  0  0  0  0  0
    3.6234    1.9895   22.7307 C   0  0  0  0  0  0  0  0  0  0  0  0
    3.0220    2.2309   24.0128 C   0  0  0  0  0  0  0  0  0  0  0  0
    3.2526    1.4963   25.1318 N   0  0  0  0  0  0  0  0  0  0  0  0
    4.0659    0.3837   25.0400 C   0  0  0  0  0  0  0  0  0  0  0  0
    4.2376   -0.3259   26.2579 N   0  0  0  0  0  0  0  0  0  0  0  0
    5.2986    0.3042   27.0445 C   0  0  0  0  0  0  0  0  0  0  0  0
    4.8510    1.6046   27.7372 C   0  0  0  0  0  0  0  0  0  0  0  0
    3.4401    1.5391   28.3256 C   0  0  0  0  0  0  0  0  0  0  0  0
    2.9395    0.1070   28.3842 C   0  0  0  0  0  0  0  0  0  0  0  0
    2.9869   -0.5550   27.0067 C   0  0  0  0  0  0  0  0  0  0  0  0
    4.8536    0.0127   23.8923 N   0  0  0  0  0  0  0  0  0  0  0  0
    7.2684    2.7456   20.8371 C   0  0  0  0  0  0  0  0  0  0  0  0
    7.8251    3.3624   19.6084 C   0  0  0  0  0  0  0  0  0  0  0  0
    7.3610   -0.4394   16.4776 H   0  0  0  0  0  0  0  0  0  0  0  0
    9.0669   -1.0579   16.3924 H   0  0  0  0  0  0  0  0  0  0  0  0
    8.4954    0.1833   15.3533 H   0  0  0  0  0  0  0  0  0  0  0  0
   10.2718    1.3238   15.7030 H   0  0  0  0  0  0  0  0  0  0  0  0
   11.2329    3.3148   16.7023 H   0  0  0  0  0  0  0  0  0  0  0  0
   10.2057    4.2020   18.7511 H   0  0  0  0  0  0  0  0  0  0  0  0
    8.3198   -0.0510   20.2654 H   0  0  0  0  0  0  0  0  0  0  0  0
    6.9612   -0.3698   19.1865 H   0  0  0  0  0  0  0  0  0  0  0  0
    2.9761    2.4130   21.9503 H   0  0  0  0  0  0  0  0  0  0  0  0
    2.2634    2.9997   24.1212 H   0  0  0  0  0  0  0  0  0  0  0  0
    6.2026    0.4798   26.4496 H   0  0  0  0  0  0  0  0  0  0  0  0
    5.6115   -0.4120   27.8163 H   0  0  0  0  0  0  0  0  0  0  0  0
    5.5682    1.8298   28.5364 H   0  0  0  0  0  0  0  0  0  0  0  0
    4.9121    2.4516   27.0440 H   0  0  0  0  0  0  0  0  0  0  0  0
    2.7563    2.1435   27.7181 H   0  0  0  0  0  0  0  0  0  0  0  0
    3.4339    1.9840   29.3272 H   0  0  0  0  0  0  0  0  0  0  0  0
    3.5542   -0.4653   29.0907 H   0  0  0  0  0  0  0  0  0  0  0  0
    1.9151    0.0791   28.7729 H   0  0  0  0  0  0  0  0  0  0  0  0
    2.1019   -0.2308   26.4666 H   0  0  0  0  0  0  0  0  0  0  0  0
    2.8801   -1.6368   27.1490 H   0  0  0  0  0  0  0  0  0  0  0  0
    6.6478    3.5424   21.3073 H   0  0  0  0  0  0  0  0  0  0  0  0
    8.2234    2.6350   21.4073 H   0  0  0  0  0  0  0  0  0  0  0  0
    7.1429    3.6917   18.8230 H   0  0  0  0  0  0  0  0  0  0  0  0
    8.2896    4.3057   19.9370 H   0  0  0  0  0  0  0  0  0  0  0  0
  1  2  1  0
  2  3  2  0
  3  4  1  0
  4  5  2  0
  5  6  1  0
  6  7  2  0
  7  8  1  0
  8  9  1  0
  9 10  1  0
 10 11  2  0
 11 12  1  0
 12 13  2  0
 13 14  1  0
 14 15  1  0
 15 16  1  0
 16 17  1  0
 17 18  1  0
 18 19  1  0
 19 20  1  0
 14 21  2  0
  9 22  1  0
 22 23  1  0
  7  2  1  0
 21 10  1  0
 23  6  1  0
 20 15  1  0
  1 24  1  0
  1 25  1  0
  1 26  1  0
  3 27  1  0
  4 28  1  0
  5 29  1  0
  8 30  1  0
  8 31  1  0
 11 32  1  0
 12 33  1  0
 16 34  1  0
 16 35  1  0
 17 36  1  0
 17 37  1  0
 18 38  1  0
 18 39  1  0
 19 40  1  0
 19 41  1  0
 20 42  1  0
 20 43  1  0
 22 44  1  0
 22 45  1  0
 23 46  1  0
 23 47  1  0
M  END
>  <Energy>  (345) 
445.90208890765462

>  <compound_id>  (345) 
21308

>  <target_id>  (345) 
1

>  <reference_id>  (345) 
146

>  <inspiration_ids>  (345) 
[146, 44]

>  <energy_score>  (345) 
474.86408866320807

>  <distance_score>  (345) 
7.343550392192661

>  <path>  (345) 
/opt/xchem-fragalysis-2/maxwin/BulkDock/SCRATCH/511013/C21308-P146/C21308-P146.minimised.mol

>  <scratch_subdir>  (345) 
/opt/xchem-fragalysis-2/maxwin/BulkDock/SCRATCH/511013/C21308-P146

>  <fragmenstein_runtime>  (345) 
8.07672667503357

>  <fragmenstein_outcome>  (345) 
too moved

>  <fragmenstein_mode>  (345) 
expansion

>  <fragmenstein_error>  (345) 


$$$$
C21308-P44
     RDKit          3D

 47 50  0  0  0  0  0  0  0  0999 V2000
    7.5296   -0.8817   15.3685 C   0  0  0  0  0  0  0  0  0  0  0  0
    8.4188   -0.0039   16.2147 C   0  0  0  0  0  0  0  0  0  0  0  0
    9.5233    0.4805   15.4802 C   0  0  0  0  0  0  0  0  0  0  0  0
   10.0789    1.6943   15.8090 C   0  0  0  0  0  0  0  0  0  0  0  0
    9.5218    2.3968   16.8624 C   0  0  0  0  0  0  0  0  0  0  0  0
    8.5690    1.8068   17.7084 C   0  0  0  0  0  0  0  0  0  0  0  0
    8.0642    0.5426   17.4999 C   0  0  0  0  0  0  0  0  0  0  0  0
    6.9215   -0.1017   18.5881 C   0  0  0  0  0  0  0  0  0  0  0  0
    6.3320    0.4234   20.1394 N   0  0  0  0  0  0  0  0  0  0  0  0
    4.6841    0.5888   21.2884 C   0  0  0  0  0  0  0  0  0  0  0  0
    4.8766   -0.6104   22.5606 C   0  0  0  0  0  0  0  0  0  0  0  0
    4.7640   -0.4330   24.0815 C   0  0  0  0  0  0  0  0  0  0  0  0
    4.4309    0.6980   24.7179 N   0  0  0  0  0  0  0  0  0  0  0  0
    4.0933    1.6838   23.8652 C   0  0  0  0  0  0  0  0  0  0  0  0
    3.2408    2.6645   24.3852 N   0  0  0  0  0  0  0  0  0  0  0  0
    2.8874    3.8128   23.5736 C   0  0  0  0  0  0  0  0  0  0  0  0
    1.5215    4.3676   24.0015 C   0  0  0  0  0  0  0  0  0  0  0  0
    1.4360    4.6087   25.5026 C   0  0  0  0  0  0  0  0  0  0  0  0
    1.7926    3.3367   26.2583 C   0  0  0  0  0  0  0  0  0  0  0  0
    3.1668    2.8060   25.8387 C   0  0  0  0  0  0  0  0  0  0  0  0
    4.3904    1.6488   22.3926 N   0  0  0  0  0  0  0  0  0  0  0  0
    7.5430    1.7149   19.9107 C   0  0  0  0  0  0  0  0  0  0  0  0
    7.8569    2.5991   18.7172 C   0  0  0  0  0  0  0  0  0  0  0  0
    6.4853   -0.7657   15.6575 H   0  0  0  0  0  0  0  0  0  0  0  0
    7.8646   -1.9193   15.3767 H   0  0  0  0  0  0  0  0  0  0  0  0
    7.5496   -0.5494   14.3222 H   0  0  0  0  0  0  0  0  0  0  0  0
    9.8233    0.0022   14.5477 H   0  0  0  0  0  0  0  0  0  0  0  0
   10.8453    2.1443   15.1868 H   0  0  0  0  0  0  0  0  0  0  0  0
    9.8338    3.4250   17.0385 H   0  0  0  0  0  0  0  0  0  0  0  0
    6.2299   -0.6363   17.9319 H   0  0  0  0  0  0  0  0  0  0  0  0
    7.6750   -0.6803   19.1079 H   0  0  0  0  0  0  0  0  0  0  0  0
    4.9302   -1.6685   22.4521 H   0  0  0  0  0  0  0  0  0  0  0  0
    4.8816   -1.3072   24.7183 H   0  0  0  0  0  0  0  0  0  0  0  0
    3.6582    4.5869   23.6665 H   0  0  0  0  0  0  0  0  0  0  0  0
    2.7910    3.5586   22.5164 H   0  0  0  0  0  0  0  0  0  0  0  0
    1.3200    5.3003   23.4626 H   0  0  0  0  0  0  0  0  0  0  0  0
    0.7372    3.6569   23.7110 H   0  0  0  0  0  0  0  0  0  0  0  0
    0.4250    4.9334   25.7724 H   0  0  0  0  0  0  0  0  0  0  0  0
    2.1229    5.4146   25.7874 H   0  0  0  0  0  0  0  0  0  0  0  0
    1.7862    3.5308   27.3367 H   0  0  0  0  0  0  0  0  0  0  0  0
    1.0281    2.5747   26.0653 H   0  0  0  0  0  0  0  0  0  0  0  0
    3.3128    1.8611   26.3740 H   0  0  0  0  0  0  0  0  0  0  0  0
    3.9525    3.4940   26.1752 H   0  0  0  0  0  0  0  0  0  0  0  0
    8.5151    1.2598   20.1234 H   0  0  0  0  0  0  0  0  0  0  0  0
    7.1122    2.4268   20.5118 H   0  0  0  0  0  0  0  0  0  0  0  0
    7.0114    3.1062   18.2575 H   0  0  0  0  0  0  0  0  0  0  0  0
    8.5236    3.3992   19.0689 H   0  0  0  0  0  0  0  0  0  0  0  0
  1  2  1  0
  2  3  2  0
  3  4  1  0
  4  5  2  0
  5  6  1  0
  6  7  2  0
  7  8  1  0
  8  9  1  0
  9 10  1  0
 10 11  2  0
 11 12  1  0
 12 13  2  0
 13 14  1  0
 14 15  1  0
 15 16  1  0
 16 17  1  0
 17 18  1  0
 18 19  1  0
 19 20  1  0
 14 21  2  0
  9 22  1  0
 22 23  1  0
  7  2  1  0
 21 10  1  0
 23  6  1  0
 20 15  1  0
  1 24  1  0
  1 25  1  0
  1 26  1  0
  3 27  1  0
  4 28  1  0
  5 29  1  0
  8 30  1  0
  8 31  1  0
 11 32  1  0
 12 33  1  0
 16 34  1  0
 16 35  1  0
 17 36  1  0
 17 37  1  0
 18 38  1  0
 18 39  1  0
 19 40  1  0
 19 41  1  0
 20 42  1  0
 20 43  1  0
 22 44  1  0
 22 45  1  0
 23 46  1  0
 23 47  1  0
M  END
>  <Energy>  (346) 
396.42623950767074

>  <compound_id>  (346) 
21308

>  <target_id>  (346) 
1

>  <reference_id>  (346) 
44

>  <inspiration_ids>  (346) 
[146, 44]

>  <energy_score>  (346) 
425.38823926322704

>  <distance_score>  (346) 
6.800140954221418

>  <path>  (346) 
/opt/xchem-fragalysis-2/maxwin/BulkDock/SCRATCH/511013/C21308-P44/C21308-P44.minimised.mol

>  <scratch_subdir>  (346) 
/opt/xchem-fragalysis-2/maxwin/BulkDock/SCRATCH/511013/C21308-P44

>  <fragmenstein_runtime>  (346) 
6.908000230789185

>  <fragmenstein_outcome>  (346) 
too moved

>  <fragmenstein_mode>  (346) 
expansion

>  <fragmenstein_error>  (346) 


$$$$
C21314-P146
     RDKit          3D

 51 53  0  0  0  0  0  0  0  0999 V2000
   12.9084    4.8497   18.8225 C   0  0  0  0  0  0  0  0  0  0  0  0
   12.0575    3.8968   19.4543 O   0  0  0  0  0  0  0  0  0  0  0  0
   11.0289    3.4092   18.6926 C   0  0  0  0  0  0  0  0  0  0  0  0
   11.0372    3.3991   17.2929 C   0  0  0  0  0  0  0  0  0  0  0  0
   10.0118    2.7883   16.5831 C   0  0  0  0  0  0  0  0  0  0  0  0
    8.9190    2.2926   17.2738 C   0  0  0  0  0  0  0  0  0  0  0  0
    8.8686    2.3578   18.6770 C   0  0  0  0  0  0  0  0  0  0  0  0
    9.9479    2.8365   19.3752 C   0  0  0  0  0  0  0  0  0  0  0  0
    9.7871    2.7149   20.8399 C   0  0  0  0  0  0  0  0  0  0  0  0
    8.7749    1.5584   21.3563 C   0  0  0  0  0  0  0  0  0  0  0  0
    7.2820    1.6064   20.8189 N   0  0  0  0  0  0  0  0  0  0  0  0
    5.5560    1.0800   21.6947 C   0  0  0  0  0  0  0  0  0  0  0  0
    5.2752   -0.0688   21.4887 O   0  0  0  0  0  0  0  0  0  0  0  0
    3.9316    2.0388   22.7735 C   0  0  0  0  0  0  0  0  0  0  0  0
    3.4255    1.6072   24.4002 C   0  0  0  0  0  0  0  0  0  0  0  0
    2.5721    2.5727   21.9941 C   0  0  0  0  0  0  0  0  0  0  0  0
    4.2235    3.7566   23.2473 N   0  0  0  0  0  0  0  0  0  0  0  0
    3.2167    4.3782   24.1702 C   0  0  0  0  0  0  0  0  0  0  0  0
    2.6042    5.6836   23.6713 C   0  0  0  0  0  0  0  0  0  0  0  0
    3.6770    6.7304   23.4346 C   0  0  0  0  0  0  0  0  0  0  0  0
    5.0090    6.0980   23.0398 C   0  0  0  0  0  0  0  0  0  0  0  0
    4.8218    4.7480   22.3343 C   0  0  0  0  0  0  0  0  0  0  0  0
    7.5504    2.1837   19.4115 C   0  0  0  0  0  0  0  0  0  0  0  0
   13.5864    5.2437   19.5859 H   0  0  0  0  0  0  0  0  0  0  0  0
   13.5228    4.4052   18.0353 H   0  0  0  0  0  0  0  0  0  0  0  0
   12.3284    5.6917   18.4286 H   0  0  0  0  0  0  0  0  0  0  0  0
   11.8583    3.8172   16.7189 H   0  0  0  0  0  0  0  0  0  0  0  0
   10.0374    2.7591   15.4970 H   0  0  0  0  0  0  0  0  0  0  0  0
    8.0680    1.9300   16.7047 H   0  0  0  0  0  0  0  0  0  0  0  0
   10.7615    2.5242   21.3088 H   0  0  0  0  0  0  0  0  0  0  0  0
    9.4256    3.6848   21.2124 H   0  0  0  0  0  0  0  0  0  0  0  0
    8.8976    2.0204   22.3243 H   0  0  0  0  0  0  0  0  0  0  0  0
    9.2124    0.5906   21.1427 H   0  0  0  0  0  0  0  0  0  0  0  0
    2.3752    1.8305   24.4714 H   0  0  0  0  0  0  0  0  0  0  0  0
    3.8448    2.2344   25.2004 H   0  0  0  0  0  0  0  0  0  0  0  0
    3.6821    0.5900   24.7227 H   0  0  0  0  0  0  0  0  0  0  0  0
    1.8005    2.9166   22.6832 H   0  0  0  0  0  0  0  0  0  0  0  0
    2.6695    3.4887   21.3908 H   0  0  0  0  0  0  0  0  0  0  0  0
    2.2438    1.8608   21.2468 H   0  0  0  0  0  0  0  0  0  0  0  0
    2.3687    3.7518   24.4347 H   0  0  0  0  0  0  0  0  0  0  0  0
    3.7364    4.5786   25.1168 H   0  0  0  0  0  0  0  0  0  0  0  0
    1.8736    6.0628   24.3952 H   0  0  0  0  0  0  0  0  0  0  0  0
    2.0519    5.5022   22.7411 H   0  0  0  0  0  0  0  0  0  0  0  0
    3.3393    7.4196   22.6513 H   0  0  0  0  0  0  0  0  0  0  0  0
    3.8238    7.3368   24.3363 H   0  0  0  0  0  0  0  0  0  0  0  0
    5.6311    5.9593   23.9339 H   0  0  0  0  0  0  0  0  0  0  0  0
    5.5599    6.7869   22.3887 H   0  0  0  0  0  0  0  0  0  0  0  0
    4.2098    4.9334   21.4451 H   0  0  0  0  0  0  0  0  0  0  0  0
    5.8145    4.4153   22.0118 H   0  0  0  0  0  0  0  0  0  0  0  0
    7.1949    3.2039   19.3466 H   0  0  0  0  0  0  0  0  0  0  0  0
    7.3087    1.2845   18.9078 H   0  0  0  0  0  0  0  0  0  0  0  0
  1  2  1  0
  2  3  1  0
  3  4  2  0
  4  5  1  0
  5  6  2  0
  6  7  1  0
  7  8  2  0
  8  9  1  0
  9 10  1  0
 10 11  1  0
 11 12  1  0
 12 13  2  0
 12 14  1  0
 14 15  1  0
 14 16  1  0
 14 17  1  0
 17 18  1  0
 18 19  1  0
 19 20  1  0
 20 21  1  0
 21 22  1  0
 11 23  1  0
  8  3  1  0
 22 17  1  0
 23  7  1  0
  1 24  1  0
  1 25  1  0
  1 26  1  0
  4 27  1  0
  5 28  1  0
  6 29  1  0
  9 30  1  0
  9 31  1  0
 10 32  1  0
 10 33  1  0
 15 34  1  0
 15 35  1  0
 15 36  1  0
 16 37  1  0
 16 38  1  0
 16 39  1  0
 18 40  1  0
 18 41  1  0
 19 42  1  0
 19 43  1  0
 20 44  1  0
 20 45  1  0
 21 46  1  0
 21 47  1  0
 22 48  1  0
 22 49  1  0
 23 50  1  0
 23 51  1  0
M  END
>  <Energy>  (347) 
530.49986569020325

>  <compound_id>  (347) 
21314

>  <target_id>  (347) 
1

>  <reference_id>  (347) 
146

>  <inspiration_ids>  (347) 
[146, 44]

>  <energy_score>  (347) 
390.58136431537355

>  <distance_score>  (347) 
7.914889263406894

>  <path>  (347) 
/opt/xchem-fragalysis-2/maxwin/BulkDock/SCRATCH/511013/C21314-P146/C21314-P146.minimised.mol

>  <scratch_subdir>  (347) 
/opt/xchem-fragalysis-2/maxwin/BulkDock/SCRATCH/511013/C21314-P146

>  <fragmenstein_runtime>  (347) 
9.910280466079712

>  <fragmenstein_outcome>  (347) 
too moved

>  <fragmenstein_mode>  (347) 
expansion

>  <fragmenstein_error>  (347) 


$$$$
C21314-P44
     RDKit          3D

 51 53  0  0  0  0  0  0  0  0999 V2000
   10.8814    4.4514   15.8407 C   0  0  0  0  0  0  0  0  0  0  0  0
    9.7552    3.9648   16.5715 O   0  0  0  0  0  0  0  0  0  0  0  0
    9.5951    2.6136   16.5390 C   0  0  0  0  0  0  0  0  0  0  0  0
   10.0058    1.8215   15.4692 C   0  0  0  0  0  0  0  0  0  0  0  0
    9.7706    0.4603   15.5064 C   0  0  0  0  0  0  0  0  0  0  0  0
    9.2430   -0.1137   16.6657 C   0  0  0  0  0  0  0  0  0  0  0  0
    9.0327    0.6490   17.8493 C   0  0  0  0  0  0  0  0  0  0  0  0
    9.0027    1.9974   17.6379 C   0  0  0  0  0  0  0  0  0  0  0  0
    8.0337    2.4286   18.6361 C   0  0  0  0  0  0  0  0  0  0  0  0
    7.5588    0.7282   19.2953 C   0  0  0  0  0  0  0  0  0  0  0  0
    6.3545    0.3060   19.7659 N   0  0  0  0  0  0  0  0  0  0  0  0
    5.7673   -0.9419   21.1194 C   0  0  0  0  0  0  0  0  0  0  0  0
    5.5468   -2.1810   20.8228 O   0  0  0  0  0  0  0  0  0  0  0  0
    5.2014   -0.3604   23.1580 C   0  0  0  0  0  0  0  0  0  0  0  0
    4.5569   -1.6661   23.7926 C   0  0  0  0  0  0  0  0  0  0  0  0
    6.0167   -0.0145   24.9161 C   0  0  0  0  0  0  0  0  0  0  0  0
    4.3619    1.0698   24.0300 N   0  0  0  0  0  0  0  0  0  0  0  0
    3.5762    0.7155   25.2931 C   0  0  0  0  0  0  0  0  0  0  0  0
    2.9063    1.7952   26.1710 C   0  0  0  0  0  0  0  0  0  0  0  0
    2.3084    2.9470   25.4096 C   0  0  0  0  0  0  0  0  0  0  0  0
    3.3864    3.4510   24.4978 C   0  0  0  0  0  0  0  0  0  0  0  0
    3.8989    2.3742   23.5153 C   0  0  0  0  0  0  0  0  0  0  0  0
    8.2980    0.2926   19.6553 C   0  0  0  0  0  0  0  0  0  0  0  0
   11.1364    5.4359   16.2446 H   0  0  0  0  0  0  0  0  0  0  0  0
   11.7686    3.8177   15.9262 H   0  0  0  0  0  0  0  0  0  0  0  0
   10.6109    4.5856   14.7881 H   0  0  0  0  0  0  0  0  0  0  0  0
   10.4174    2.2537   14.5641 H   0  0  0  0  0  0  0  0  0  0  0  0
    9.9710   -0.1532   14.6299 H   0  0  0  0  0  0  0  0  0  0  0  0
    9.0554   -1.1632   16.5282 H   0  0  0  0  0  0  0  0  0  0  0  0
    8.5349    3.0158   19.4156 H   0  0  0  0  0  0  0  0  0  0  0  0
    7.1711    2.9447   18.2194 H   0  0  0  0  0  0  0  0  0  0  0  0
    7.0652    0.4866   18.2988 H   0  0  0  0  0  0  0  0  0  0  0  0
    7.3078    1.6481   20.0549 H   0  0  0  0  0  0  0  0  0  0  0  0
    5.3418   -2.4142   23.9101 H   0  0  0  0  0  0  0  0  0  0  0  0
    4.2070   -1.5775   24.8145 H   0  0  0  0  0  0  0  0  0  0  0  0
    3.7030   -2.0248   23.2390 H   0  0  0  0  0  0  0  0  0  0  0  0
    5.6527   -0.7363   25.6602 H   0  0  0  0  0  0  0  0  0  0  0  0
    5.9729    1.0214   25.2971 H   0  0  0  0  0  0  0  0  0  0  0  0
    7.1061   -0.1820   25.0966 H   0  0  0  0  0  0  0  0  0  0  0  0
    4.1603    0.2161   26.0640 H   0  0  0  0  0  0  0  0  0  0  0  0
    2.8718   -0.0529   25.0436 H   0  0  0  0  0  0  0  0  0  0  0  0
    3.6659    2.1940   26.8582 H   0  0  0  0  0  0  0  0  0  0  0  0
    2.1416    1.3300   26.8048 H   0  0  0  0  0  0  0  0  0  0  0  0
    1.4220    2.6651   24.8377 H   0  0  0  0  0  0  0  0  0  0  0  0
    1.9974    3.7351   26.1045 H   0  0  0  0  0  0  0  0  0  0  0  0
    4.2301    3.8255   25.0941 H   0  0  0  0  0  0  0  0  0  0  0  0
    3.0113    4.3080   23.9247 H   0  0  0  0  0  0  0  0  0  0  0  0
    3.1121    2.2606   22.7703 H   0  0  0  0  0  0  0  0  0  0  0  0
    4.7269    2.9537   23.1266 H   0  0  0  0  0  0  0  0  0  0  0  0
    8.4320   -0.7935   19.4752 H   0  0  0  0  0  0  0  0  0  0  0  0
    9.0509    0.7195   20.4288 H   0  0  0  0  0  0  0  0  0  0  0  0
  1  2  1  0
  2  3  1  0
  3  4  2  0
  4  5  1  0
  5  6  2  0
  6  7  1  0
  7  8  2  0
  8  9  1  0
  9 10  1  0
 10 11  1  0
 11 12  1  0
 12 13  2  0
 12 14  1  0
 14 15  1  0
 14 16  1  0
 14 17  1  0
 17 18  1  0
 18 19  1  0
 19 20  1  0
 20 21  1  0
 21 22  1  0
 11 23  1  0
  8  3  1  0
 22 17  1  0
 23  7  1  0
  1 24  1  0
  1 25  1  0
  1 26  1  0
  4 27  1  0
  5 28  1  0
  6 29  1  0
  9 30  1  0
  9 31  1  0
 10 32  1  0
 10 33  1  0
 15 34  1  0
 15 35  1  0
 15 36  1  0
 16 37  1  0
 16 38  1  0
 16 39  1  0
 18 40  1  0
 18 41  1  0
 19 42  1  0
 19 43  1  0
 20 44  1  0
 20 45  1  0
 21 46  1  0
 21 47  1  0
 22 48  1  0
 22 49  1  0
 23 50  1  0
 23 51  1  0
M  END
>  <Energy>  (348) 
1243.0439916145067

>  <compound_id>  (348) 
21314

>  <target_id>  (348) 
1

>  <reference_id>  (348) 
44

>  <inspiration_ids>  (348) 
[146, 44]

>  <energy_score>  (348) 
1103.1254902396909

>  <distance_score>  (348) 
7.313155595456457

>  <path>  (348) 
/opt/xchem-fragalysis-2/maxwin/BulkDock/SCRATCH/511013/C21314-P44/C21314-P44.minimised.mol

>  <scratch_subdir>  (348) 
/opt/xchem-fragalysis-2/maxwin/BulkDock/SCRATCH/511013/C21314-P44

>  <fragmenstein_runtime>  (348) 
9.225233554840088

>  <fragmenstein_outcome>  (348) 
too moved

>  <fragmenstein_mode>  (348) 
expansion

>  <fragmenstein_error>  (348) 


$$$$
C21315-P146
     RDKit          3D

 51 53  0  0  0  0  0  0  0  0999 V2000
   10.2208   -0.7275   14.9698 C   0  0  0  0  0  0  0  0  0  0  0  0
    8.7234   -0.3365   15.9215 S   0  0  0  0  0  0  0  0  0  0  0  0
    9.2033    1.1272   16.8216 C   0  0  0  0  0  0  0  0  0  0  0  0
    9.9061    2.1028   16.0899 C   0  0  0  0  0  0  0  0  0  0  0  0
   10.5014    3.1955   16.7105 C   0  0  0  0  0  0  0  0  0  0  0  0
   10.4354    3.3215   18.0862 C   0  0  0  0  0  0  0  0  0  0  0  0
    9.7251    2.3783   18.8374 C   0  0  0  0  0  0  0  0  0  0  0  0
    9.0047    1.3043   18.2118 C   0  0  0  0  0  0  0  0  0  0  0  0
    8.2044    0.3660   19.1425 C   0  0  0  0  0  0  0  0  0  0  0  0
    8.1199    0.9536   20.4299 N   0  0  0  0  0  0  0  0  0  0  0  0
    7.0091    1.4000   21.0176 C   0  0  0  0  0  0  0  0  0  0  0  0
    6.8618    2.7094   20.6704 O   0  0  0  0  0  0  0  0  0  0  0  0
    5.2040    0.7554   22.2037 C   0  0  0  0  0  0  0  0  0  0  0  0
    4.9975    0.0752   24.1607 C   0  0  0  0  0  0  0  0  0  0  0  0
    4.7072   -1.1836   22.5647 C   0  0  0  0  0  0  0  0  0  0  0  0
    3.8269    2.0777   22.7749 N   0  0  0  0  0  0  0  0  0  0  0  0
    3.2458    2.2522   24.2031 C   0  0  0  0  0  0  0  0  0  0  0  0
    3.1355    3.7201   24.6875 C   0  0  0  0  0  0  0  0  0  0  0  0
    2.3643    4.5996   23.7198 C   0  0  0  0  0  0  0  0  0  0  0  0
    1.6132    3.7291   22.7300 C   0  0  0  0  0  0  0  0  0  0  0  0
    2.6399    2.8260   21.9513 C   0  0  0  0  0  0  0  0  0  0  0  0
    9.3204    1.1127   21.1735 C   0  0  0  0  0  0  0  0  0  0  0  0
    9.8964    2.4148   20.3679 C   0  0  0  0  0  0  0  0  0  0  0  0
   10.3205   -0.0654   14.1067 H   0  0  0  0  0  0  0  0  0  0  0  0
   10.1464   -1.7594   14.6182 H   0  0  0  0  0  0  0  0  0  0  0  0
   11.1175   -0.6593   15.5874 H   0  0  0  0  0  0  0  0  0  0  0  0
   10.0142    2.0212   15.0108 H   0  0  0  0  0  0  0  0  0  0  0  0
   11.0534    3.9223   16.1206 H   0  0  0  0  0  0  0  0  0  0  0  0
   10.9572    4.1390   18.5773 H   0  0  0  0  0  0  0  0  0  0  0  0
    7.2363    0.0578   18.8177 H   0  0  0  0  0  0  0  0  0  0  0  0
    8.7183   -0.5313   19.3432 H   0  0  0  0  0  0  0  0  0  0  0  0
    5.0078    0.6325   25.1052 H   0  0  0  0  0  0  0  0  0  0  0  0
    5.8079   -0.5812   24.5325 H   0  0  0  0  0  0  0  0  0  0  0  0
    4.0532   -0.4181   24.4559 H   0  0  0  0  0  0  0  0  0  0  0  0
    5.3623   -1.6911   21.8087 H   0  0  0  0  0  0  0  0  0  0  0  0
    3.8076   -1.6079   23.0817 H   0  0  0  0  0  0  0  0  0  0  0  0
    5.2244   -1.7872   23.3683 H   0  0  0  0  0  0  0  0  0  0  0  0
    3.6377    1.7090   25.0503 H   0  0  0  0  0  0  0  0  0  0  0  0
    2.2348    1.9031   24.1807 H   0  0  0  0  0  0  0  0  0  0  0  0
    2.6081    3.7157   25.6506 H   0  0  0  0  0  0  0  0  0  0  0  0
    4.1206    4.1558   24.8872 H   0  0  0  0  0  0  0  0  0  0  0  0
    3.0618    5.2542   23.1826 H   0  0  0  0  0  0  0  0  0  0  0  0
    1.6746    5.2556   24.2623 H   0  0  0  0  0  0  0  0  0  0  0  0
    1.0898    4.3690   22.0077 H   0  0  0  0  0  0  0  0  0  0  0  0
    0.8256    3.1898   23.2607 H   0  0  0  0  0  0  0  0  0  0  0  0
    2.1647    2.1316   21.2617 H   0  0  0  0  0  0  0  0  0  0  0  0
    2.9962    3.6666   21.3320 H   0  0  0  0  0  0  0  0  0  0  0  0
    9.2854    1.7187   22.0746 H   0  0  0  0  0  0  0  0  0  0  0  0
   10.0244    0.3406   21.2705 H   0  0  0  0  0  0  0  0  0  0  0  0
    9.3670    3.3137   20.7171 H   0  0  0  0  0  0  0  0  0  0  0  0
   10.9515    2.5522   20.6394 H   0  0  0  0  0  0  0  0  0  0  0  0
  1  2  1  0
  2  3  1  0
  3  4  2  0
  4  5  1  0
  5  6  2  0
  6  7  1  0
  7  8  2  0
  8  9  1  0
  9 10  1  0
 10 11  1  0
 11 12  2  0
 11 13  1  0
 13 14  1  0
 13 15  1  0
 13 16  1  0
 16 17  1  0
 17 18  1  0
 18 19  1  0
 19 20  1  0
 20 21  1  0
 10 22  1  0
 22 23  1  0
  8  3  1  0
 21 16  1  0
 23  7  1  0
  1 24  1  0
  1 25  1  0
  1 26  1  0
  4 27  1  0
  5 28  1  0
  6 29  1  0
  9 30  1  0
  9 31  1  0
 14 32  1  0
 14 33  1  0
 14 34  1  0
 15 35  1  0
 15 36  1  0
 15 37  1  0
 17 38  1  0
 17 39  1  0
 18 40  1  0
 18 41  1  0
 19 42  1  0
 19 43  1  0
 20 44  1  0
 20 45  1  0
 21 46  1  0
 21 47  1  0
 22 48  1  0
 22 49  1  0
 23 50  1  0
 23 51  1  0
M  END
>  <Energy>  (349) 
709.33186626380018

>  <compound_id>  (349) 
21315

>  <target_id>  (349) 
1

>  <reference_id>  (349) 
146

>  <inspiration_ids>  (349) 
[146, 44]

>  <energy_score>  (349) 
571.0429451406104

>  <distance_score>  (349) 
7.206428878163375

>  <path>  (349) 
/opt/xchem-fragalysis-2/maxwin/BulkDock/SCRATCH/511013/C21315-P146/C21315-P146.minimised.mol

>  <scratch_subdir>  (349) 
/opt/xchem-fragalysis-2/maxwin/BulkDock/SCRATCH/511013/C21315-P146

>  <fragmenstein_runtime>  (349) 
9.640580177307129

>  <fragmenstein_outcome>  (349) 
too moved

>  <fragmenstein_mode>  (349) 
expansion

>  <fragmenstein_error>  (349) 


$$$$
C21315-P44
     RDKit          3D

 51 53  0  0  0  0  0  0  0  0999 V2000
    8.1364   -0.6195   15.2158 C   0  0  0  0  0  0  0  0  0  0  0  0
    9.4471   -0.6454   16.4857 S   0  0  0  0  0  0  0  0  0  0  0  0
    9.1149    0.8717   17.4036 C   0  0  0  0  0  0  0  0  0  0  0  0
    9.3986    1.8210   16.3100 C   0  0  0  0  0  0  0  0  0  0  0  0
    9.2954    3.1831   16.3973 C   0  0  0  0  0  0  0  0  0  0  0  0
    8.8935    3.6384   17.5986 C   0  0  0  0  0  0  0  0  0  0  0  0
    8.6931    2.6983   18.6271 C   0  0  0  0  0  0  0  0  0  0  0  0
    8.8001    1.3295   18.7447 C   0  0  0  0  0  0  0  0  0  0  0  0
    8.8269    1.1606   20.7029 C   0  0  0  0  0  0  0  0  0  0  0  0
    8.4588    0.4711   22.6813 N   0  0  0  0  0  0  0  0  0  0  0  0
    6.7393    0.3486   24.1495 C   0  0  0  0  0  0  0  0  0  0  0  0
    6.7076    1.5711   24.9829 O   0  0  0  0  0  0  0  0  0  0  0  0
    5.4525   -0.8248   24.7944 C   0  0  0  0  0  0  0  0  0  0  0  0
    4.8523   -2.0395   24.2459 C   0  0  0  0  0  0  0  0  0  0  0  0
    6.3034   -1.3155   26.0561 C   0  0  0  0  0  0  0  0  0  0  0  0
    4.2688   -0.0290   25.4631 N   0  0  0  0  0  0  0  0  0  0  0  0
    3.9645    1.3572   25.1119 C   0  0  0  0  0  0  0  0  0  0  0  0
    3.8616    2.3001   26.3133 C   0  0  0  0  0  0  0  0  0  0  0  0
    2.7342    1.8775   27.2492 C   0  0  0  0  0  0  0  0  0  0  0  0
    2.5879    0.3606   27.3259 C   0  0  0  0  0  0  0  0  0  0  0  0
    3.8346   -0.3854   26.8262 C   0  0  0  0  0  0  0  0  0  0  0  0
    7.7242    1.4729   20.7497 C   0  0  0  0  0  0  0  0  0  0  0  0
    8.2251    3.1015   19.8936 C   0  0  0  0  0  0  0  0  0  0  0  0
    7.2020   -0.2870   15.6608 H   0  0  0  0  0  0  0  0  0  0  0  0
    8.0006   -1.6329   14.8291 H   0  0  0  0  0  0  0  0  0  0  0  0
    8.3931    0.0354   14.3806 H   0  0  0  0  0  0  0  0  0  0  0  0
    9.7511    1.4923   15.3283 H   0  0  0  0  0  0  0  0  0  0  0  0
    9.5068    3.8385   15.5634 H   0  0  0  0  0  0  0  0  0  0  0  0
    8.7455    4.6992   17.7746 H   0  0  0  0  0  0  0  0  0  0  0  0
    9.8767    1.5780   20.9680 H   0  0  0  0  0  0  0  0  0  0  0  0
    9.1673    0.1544   20.3925 H   0  0  0  0  0  0  0  0  0  0  0  0
    4.2859   -2.6076   24.9904 H   0  0  0  0  0  0  0  0  0  0  0  0
    5.6500   -2.7093   23.9500 H   0  0  0  0  0  0  0  0  0  0  0  0
    4.2205   -1.8045   23.4010 H   0  0  0  0  0  0  0  0  0  0  0  0
    7.2626   -1.7377   25.7469 H   0  0  0  0  0  0  0  0  0  0  0  0
    6.5737   -0.4763   26.7085 H   0  0  0  0  0  0  0  0  0  0  0  0
    5.7989   -2.0844   26.6511 H   0  0  0  0  0  0  0  0  0  0  0  0
    4.5966    1.7923   24.3547 H   0  0  0  0  0  0  0  0  0  0  0  0
    2.9945    1.3956   24.6262 H   0  0  0  0  0  0  0  0  0  0  0  0
    4.8138    2.3107   26.8580 H   0  0  0  0  0  0  0  0  0  0  0  0
    3.6861    3.3270   25.9724 H   0  0  0  0  0  0  0  0  0  0  0  0
    1.7847    2.3106   26.9119 H   0  0  0  0  0  0  0  0  0  0  0  0
    2.9231    2.2906   28.2470 H   0  0  0  0  0  0  0  0  0  0  0  0
    1.7119    0.0465   26.7550 H   0  0  0  0  0  0  0  0  0  0  0  0
    2.3797    0.0693   28.3627 H   0  0  0  0  0  0  0  0  0  0  0  0
    4.6276   -0.1648   27.5500 H   0  0  0  0  0  0  0  0  0  0  0  0
    3.6216   -1.4577   26.8880 H   0  0  0  0  0  0  0  0  0  0  0  0
    7.1736    0.6854   19.9286 H   0  0  0  0  0  0  0  0  0  0  0  0
    6.7259    1.8978   21.0412 H   0  0  0  0  0  0  0  0  0  0  0  0
    9.0646    3.6355   20.3756 H   0  0  0  0  0  0  0  0  0  0  0  0
    7.3187    3.6716   19.6471 H   0  0  0  0  0  0  0  0  0  0  0  0
  1  2  1  0
  2  3  1  0
  3  4  2  0
  4  5  1  0
  5  6  2  0
  6  7  1  0
  7  8  2  0
  8  9  1  0
  9 10  1  0
 10 11  1  0
 11 12  2  0
 11 13  1  0
 13 14  1  0
 13 15  1  0
 13 16  1  0
 16 17  1  0
 17 18  1  0
 18 19  1  0
 19 20  1  0
 20 21  1  0
 10 22  1  0
 22 23  1  0
  8  3  1  0
 21 16  1  0
 23  7  1  0
  1 24  1  0
  1 25  1  0
  1 26  1  0
  4 27  1  0
  5 28  1  0
  6 29  1  0
  9 30  1  0
  9 31  1  0
 14 32  1  0
 14 33  1  0
 14 34  1  0
 15 35  1  0
 15 36  1  0
 15 37  1  0
 17 38  1  0
 17 39  1  0
 18 40  1  0
 18 41  1  0
 19 42  1  0
 19 43  1  0
 20 44  1  0
 20 45  1  0
 21 46  1  0
 21 47  1  0
 22 48  1  0
 22 49  1  0
 23 50  1  0
 23 51  1  0
M  END
>  <Energy>  (350) 
1623.982515207538

>  <compound_id>  (350) 
21315

>  <target_id>  (350) 
1

>  <reference_id>  (350) 
44

>  <inspiration_ids>  (350) 
[146, 44]

>  <energy_score>  (350) 
1485.6935940843605

>  <distance_score>  (350) 
7.488975413322564

>  <path>  (350) 
/opt/xchem-fragalysis-2/maxwin/BulkDock/SCRATCH/511013/C21315-P44/C21315-P44.minimised.mol

>  <scratch_subdir>  (350) 
/opt/xchem-fragalysis-2/maxwin/BulkDock/SCRATCH/511013/C21315-P44

>  <fragmenstein_runtime>  (350) 
9.83649492263794

>  <fragmenstein_outcome>  (350) 
too moved

>  <fragmenstein_mode>  (350) 
expansion

>  <fragmenstein_error>  (350) 


$$$$
C21316-P146
     RDKit          3D

 53 55  0  0  0  0  0  0  0  0999 V2000
   11.5960    4.3551   18.6442 C   0  0  0  0  0  0  0  0  0  0  0  0
   10.7850    3.3951   19.5080 C   0  0  0  0  0  0  0  0  0  0  0  0
    9.8561    2.4241   18.8040 C   0  0  0  0  0  0  0  0  0  0  0  0
    9.8817    2.2610   17.4254 C   0  0  0  0  0  0  0  0  0  0  0  0
    9.1609    1.2250   16.8631 C   0  0  0  0  0  0  0  0  0  0  0  0
    8.3025    0.4410   17.6577 C   0  0  0  0  0  0  0  0  0  0  0  0
    8.1162    0.6163   19.0591 C   0  0  0  0  0  0  0  0  0  0  0  0
    9.0385    1.5124   19.5679 C   0  0  0  0  0  0  0  0  0  0  0  0
    9.0900    1.2894   21.0149 C   0  0  0  0  0  0  0  0  0  0  0  0
    7.6826    1.7193   21.1301 C   0  0  0  0  0  0  0  0  0  0  0  0
    5.8640    0.9567   21.7594 N   0  0  0  0  0  0  0  0  0  0  0  0
    5.1517    0.2755   23.6368 C   0  0  0  0  0  0  0  0  0  0  0  0
    6.0611    0.2746   24.4735 O   0  0  0  0  0  0  0  0  0  0  0  0
    3.6323   -0.1385   24.5198 C   0  0  0  0  0  0  0  0  0  0  0  0
    4.3102   -1.5224   24.9713 C   0  0  0  0  0  0  0  0  0  0  0  0
    3.2122    1.4718   24.7601 C   0  0  0  0  0  0  0  0  0  0  0  0
    3.7046   -0.0667   26.2953 N   0  0  0  0  0  0  0  0  0  0  0  0
    4.7351    0.7122   27.0051 C   0  0  0  0  0  0  0  0  0  0  0  0
    4.8392    0.3562   28.4958 C   0  0  0  0  0  0  0  0  0  0  0  0
    3.4988    0.4506   29.2025 C   0  0  0  0  0  0  0  0  0  0  0  0
    2.5229   -0.4671   28.4988 C   0  0  0  0  0  0  0  0  0  0  0  0
    2.4153   -0.0970   27.0216 C   0  0  0  0  0  0  0  0  0  0  0  0
    6.6973    0.0036   20.1529 C   0  0  0  0  0  0  0  0  0  0  0  0
   12.2436    3.8511   17.9289 H   0  0  0  0  0  0  0  0  0  0  0  0
   12.2281    4.9839   19.2801 H   0  0  0  0  0  0  0  0  0  0  0  0
   10.9320    5.0188   18.0793 H   0  0  0  0  0  0  0  0  0  0  0  0
   11.4869    2.8329   20.1322 H   0  0  0  0  0  0  0  0  0  0  0  0
   10.1718    4.0016   20.1868 H   0  0  0  0  0  0  0  0  0  0  0  0
   10.4966    2.8792   16.7778 H   0  0  0  0  0  0  0  0  0  0  0  0
    9.1843    1.0745   15.7854 H   0  0  0  0  0  0  0  0  0  0  0  0
    7.6455   -0.1632   17.0363 H   0  0  0  0  0  0  0  0  0  0  0  0
    9.8065    1.9362   21.5314 H   0  0  0  0  0  0  0  0  0  0  0  0
    9.3133    0.2771   21.2526 H   0  0  0  0  0  0  0  0  0  0  0  0
    7.9888    2.7638   21.5804 H   0  0  0  0  0  0  0  0  0  0  0  0
    7.3235    2.3794   20.2997 H   0  0  0  0  0  0  0  0  0  0  0  0
    3.7895   -2.1719   25.6937 H   0  0  0  0  0  0  0  0  0  0  0  0
    4.3875   -2.1153   24.0591 H   0  0  0  0  0  0  0  0  0  0  0  0
    5.3366   -1.4980   25.3639 H   0  0  0  0  0  0  0  0  0  0  0  0
    2.3547    1.7412   25.3716 H   0  0  0  0  0  0  0  0  0  0  0  0
    3.9541    2.1243   25.2021 H   0  0  0  0  0  0  0  0  0  0  0  0
    2.9880    1.9621   23.8014 H   0  0  0  0  0  0  0  0  0  0  0  0
    4.5429    1.7881   26.9756 H   0  0  0  0  0  0  0  0  0  0  0  0
    5.7313    0.5330   26.6063 H   0  0  0  0  0  0  0  0  0  0  0  0
    5.5570    1.0283   28.9808 H   0  0  0  0  0  0  0  0  0  0  0  0
    5.2400   -0.6607   28.5991 H   0  0  0  0  0  0  0  0  0  0  0  0
    3.6052    0.1549   30.2519 H   0  0  0  0  0  0  0  0  0  0  0  0
    3.1329    1.4840   29.1882 H   0  0  0  0  0  0  0  0  0  0  0  0
    1.5369   -0.3963   28.9724 H   0  0  0  0  0  0  0  0  0  0  0  0
    2.8503   -1.5101   28.5969 H   0  0  0  0  0  0  0  0  0  0  0  0
    1.7598   -0.8442   26.6071 H   0  0  0  0  0  0  0  0  0  0  0  0
    1.8946    0.8635   26.9920 H   0  0  0  0  0  0  0  0  0  0  0  0
    6.2373    0.2791   19.2335 H   0  0  0  0  0  0  0  0  0  0  0  0
    7.1409   -1.0052   20.2287 H   0  0  0  0  0  0  0  0  0  0  0  0
  1  2  1  0
  2  3  1  0
  3  4  2  0
  4  5  1  0
  5  6  2  0
  6  7  1  0
  7  8  2  0
  8  9  1  0
  9 10  1  0
 10 11  1  0
 11 12  1  0
 12 13  2  0
 12 14  1  0
 14 15  1  0
 14 16  1  0
 14 17  1  0
 17 18  1  0
 18 19  1  0
 19 20  1  0
 20 21  1  0
 21 22  1  0
 11 23  1  0
  8  3  1  0
 22 17  1  0
 23  7  1  0
  1 24  1  0
  1 25  1  0
  1 26  1  0
  2 27  1  0
  2 28  1  0
  4 29  1  0
  5 30  1  0
  6 31  1  0
  9 32  1  0
  9 33  1  0
 10 34  1  0
 10 35  1  0
 15 36  1  0
 15 37  1  0
 15 38  1  0
 16 39  1  0
 16 40  1  0
 16 41  1  0
 18 42  1  0
 18 43  1  0
 19 44  1  0
 19 45  1  0
 20 46  1  0
 20 47  1  0
 21 48  1  0
 21 49  1  0
 22 50  1  0
 22 51  1  0
 23 52  1  0
 23 53  1  0
M  END
>  <Energy>  (351) 
941.64614137525268

>  <compound_id>  (351) 
21316

>  <target_id>  (351) 
1

>  <reference_id>  (351) 
146

>  <inspiration_ids>  (351) 
[146, 44]

>  <energy_score>  (351) 
802.2859545126748

>  <distance_score>  (351) 
7.678539505896211

>  <path>  (351) 
/opt/xchem-fragalysis-2/maxwin/BulkDock/SCRATCH/511013/C21316-P146/C21316-P146.minimised.mol

>  <scratch_subdir>  (351) 
/opt/xchem-fragalysis-2/maxwin/BulkDock/SCRATCH/511013/C21316-P146

>  <fragmenstein_runtime>  (351) 
10.04541277885437

>  <fragmenstein_outcome>  (351) 
too moved

>  <fragmenstein_mode>  (351) 
expansion

>  <fragmenstein_error>  (351) 


$$$$
C21316-P44
     RDKit          3D

 53 55  0  0  0  0  0  0  0  0999 V2000
    9.3835    3.1758   19.1971 C   0  0  0  0  0  0  0  0  0  0  0  0
    9.3484    4.6570   18.8478 C   0  0  0  0  0  0  0  0  0  0  0  0
    7.9495    4.9968   18.3861 C   0  0  0  0  0  0  0  0  0  0  0  0
    7.5168    4.4296   17.1771 C   0  0  0  0  0  0  0  0  0  0  0  0
    6.1896    4.5503   16.7819 C   0  0  0  0  0  0  0  0  0  0  0  0
    5.2627    5.1773   17.6222 C   0  0  0  0  0  0  0  0  0  0  0  0
    5.6570    5.7048   18.8641 C   0  0  0  0  0  0  0  0  0  0  0  0
    7.0200    5.7157   19.1790 C   0  0  0  0  0  0  0  0  0  0  0  0
    7.3503    6.5872   20.3482 C   0  0  0  0  0  0  0  0  0  0  0  0
    6.0579    7.2068   20.9496 C   0  0  0  0  0  0  0  0  0  0  0  0
    4.9312    6.3066   21.4152 N   0  0  0  0  0  0  0  0  0  0  0  0
    3.7057    6.6180   22.1741 C   0  0  0  0  0  0  0  0  0  0  0  0
    3.2562    7.6849   22.5321 O   0  0  0  0  0  0  0  0  0  0  0  0
    2.8473    5.2737   22.7359 C   0  0  0  0  0  0  0  0  0  0  0  0
    2.0879    4.6025   21.5889 C   0  0  0  0  0  0  0  0  0  0  0  0
    3.7895    4.2767   23.4377 C   0  0  0  0  0  0  0  0  0  0  0  0
    1.7772    5.6912   23.7578 N   0  0  0  0  0  0  0  0  0  0  0  0
    2.2666    6.3538   24.9761 C   0  0  0  0  0  0  0  0  0  0  0  0
    2.0248    5.5565   26.2635 C   0  0  0  0  0  0  0  0  0  0  0  0
    0.5464    5.2492   26.4864 C   0  0  0  0  0  0  0  0  0  0  0  0
   -0.2163    5.1248   25.1747 C   0  0  0  0  0  0  0  0  0  0  0  0
    0.7039    4.7120   24.0246 C   0  0  0  0  0  0  0  0  0  0  0  0
    4.6267    6.2785   19.8711 C   0  0  0  0  0  0  0  0  0  0  0  0
    8.4416    2.8367   19.6320 H   0  0  0  0  0  0  0  0  0  0  0  0
   10.1789    2.9854   19.9207 H   0  0  0  0  0  0  0  0  0  0  0  0
    9.5124    2.5633   18.2992 H   0  0  0  0  0  0  0  0  0  0  0  0
    9.6170    5.2515   19.7265 H   0  0  0  0  0  0  0  0  0  0  0  0
   10.0767    4.9000   18.0664 H   0  0  0  0  0  0  0  0  0  0  0  0
    8.2039    3.8627   16.5528 H   0  0  0  0  0  0  0  0  0  0  0  0
    5.8619    4.1000   15.8485 H   0  0  0  0  0  0  0  0  0  0  0  0
    4.2160    5.2036   17.3274 H   0  0  0  0  0  0  0  0  0  0  0  0
    7.9806    7.4138   19.9951 H   0  0  0  0  0  0  0  0  0  0  0  0
    7.9228    6.0913   21.1294 H   0  0  0  0  0  0  0  0  0  0  0  0
    5.7266    8.1252   20.4325 H   0  0  0  0  0  0  0  0  0  0  0  0
    6.3919    7.6428   21.9051 H   0  0  0  0  0  0  0  0  0  0  0  0
    1.2981    5.2600   21.2046 H   0  0  0  0  0  0  0  0  0  0  0  0
    1.6386    3.6461   21.8736 H   0  0  0  0  0  0  0  0  0  0  0  0
    2.7136    4.3821   20.7342 H   0  0  0  0  0  0  0  0  0  0  0  0
    3.2913    3.3387   23.7019 H   0  0  0  0  0  0  0  0  0  0  0  0
    4.2421    4.6917   24.3432 H   0  0  0  0  0  0  0  0  0  0  0  0
    4.6298    4.0390   22.7955 H   0  0  0  0  0  0  0  0  0  0  0  0
    3.3285    6.6149   24.9135 H   0  0  0  0  0  0  0  0  0  0  0  0
    1.7390    7.3126   25.0621 H   0  0  0  0  0  0  0  0  0  0  0  0
    2.5873    4.6153   26.2194 H   0  0  0  0  0  0  0  0  0  0  0  0
    2.4170    6.1088   27.1253 H   0  0  0  0  0  0  0  0  0  0  0  0
    0.4584    4.3218   27.0649 H   0  0  0  0  0  0  0  0  0  0  0  0
    0.0849    6.0361   27.0949 H   0  0  0  0  0  0  0  0  0  0  0  0
   -0.6868    6.0867   24.9329 H   0  0  0  0  0  0  0  0  0  0  0  0
   -1.0325    4.4016   25.2872 H   0  0  0  0  0  0  0  0  0  0  0  0
    1.1203    3.7237   24.2529 H   0  0  0  0  0  0  0  0  0  0  0  0
    0.0665    4.6087   23.1398 H   0  0  0  0  0  0  0  0  0  0  0  0
    3.7629    5.6235   19.7722 H   0  0  0  0  0  0  0  0  0  0  0  0
    4.2231    7.2460   19.5256 H   0  0  0  0  0  0  0  0  0  0  0  0
  1  2  1  0
  2  3  1  0
  3  4  2  0
  4  5  1  0
  5  6  2  0
  6  7  1  0
  7  8  2  0
  8  9  1  0
  9 10  1  0
 10 11  1  0
 11 12  1  0
 12 13  2  0
 12 14  1  0
 14 15  1  0
 14 16  1  0
 14 17  1  0
 17 18  1  0
 18 19  1  0
 19 20  1  0
 20 21  1  0
 21 22  1  0
 11 23  1  0
  8  3  1  0
 22 17  1  0
 23  7  1  0
  1 24  1  0
  1 25  1  0
  1 26  1  0
  2 27  1  0
  2 28  1  0
  4 29  1  0
  5 30  1  0
  6 31  1  0
  9 32  1  0
  9 33  1  0
 10 34  1  0
 10 35  1  0
 15 36  1  0
 15 37  1  0
 15 38  1  0
 16 39  1  0
 16 40  1  0
 16 41  1  0
 18 42  1  0
 18 43  1  0
 19 44  1  0
 19 45  1  0
 20 46  1  0
 20 47  1  0
 21 48  1  0
 21 49  1  0
 22 50  1  0
 22 51  1  0
 23 52  1  0
 23 53  1  0
M  END
>  <Energy>  (352) 
174.34921282699162

>  <compound_id>  (352) 
21316

>  <target_id>  (352) 
1

>  <reference_id>  (352) 
44

>  <inspiration_ids>  (352) 
[146, 44]

>  <energy_score>  (352) 
34.98902596441616

>  <distance_score>  (352) 
9.645274447167397

>  <path>  (352) 
/opt/xchem-fragalysis-2/maxwin/BulkDock/SCRATCH/511013/C21316-P44/C21316-P44.minimised.mol

>  <scratch_subdir>  (352) 
/opt/xchem-fragalysis-2/maxwin/BulkDock/SCRATCH/511013/C21316-P44

>  <fragmenstein_runtime>  (352) 
8.81632113456726

>  <fragmenstein_outcome>  (352) 
too moved

>  <fragmenstein_mode>  (352) 
expansion

>  <fragmenstein_error>  (352) 


$$$$
C21319-P146
     RDKit          3D

 51 53  0  0  0  0  0  0  0  0999 V2000
    9.8041    3.2079   17.7618 C   0  0  0  0  0  0  0  0  0  0  0  0
   10.1580    3.2309   19.1420 O   0  0  0  0  0  0  0  0  0  0  0  0
    9.2521    3.8045   19.9929 C   0  0  0  0  0  0  0  0  0  0  0  0
    9.6329    3.8196   21.3472 C   0  0  0  0  0  0  0  0  0  0  0  0
    8.8036    4.3866   22.3326 C   0  0  0  0  0  0  0  0  0  0  0  0
    7.5583    4.8728   21.9458 C   0  0  0  0  0  0  0  0  0  0  0  0
    7.2087    4.9135   20.6040 C   0  0  0  0  0  0  0  0  0  0  0  0
    8.0346    4.3837   19.6167 C   0  0  0  0  0  0  0  0  0  0  0  0
    5.9138    5.6270   20.5215 C   0  0  0  0  0  0  0  0  0  0  0  0
    5.5901    5.6897   22.2823 C   0  0  0  0  0  0  0  0  0  0  0  0
    4.3866    5.8946   22.8446 N   0  0  0  0  0  0  0  0  0  0  0  0
    3.8778    6.0032   24.1588 C   0  0  0  0  0  0  0  0  0  0  0  0
    3.8060    7.0753   24.7575 O   0  0  0  0  0  0  0  0  0  0  0  0
    3.2432    4.6940   24.8806 C   0  0  0  0  0  0  0  0  0  0  0  0
    2.8219    3.5570   23.9262 C   0  0  0  0  0  0  0  0  0  0  0  0
    4.2744    4.1644   25.8975 C   0  0  0  0  0  0  0  0  0  0  0  0
    1.9428    4.9872   25.5906 N   0  0  0  0  0  0  0  0  0  0  0  0
    1.9718    5.3951   26.9976 C   0  0  0  0  0  0  0  0  0  0  0  0
    0.5868    5.7963   27.5419 C   0  0  0  0  0  0  0  0  0  0  0  0
   -0.5343    5.0526   26.8258 C   0  0  0  0  0  0  0  0  0  0  0  0
   -0.4639    5.2903   25.3144 C   0  0  0  0  0  0  0  0  0  0  0  0
    0.9310    5.7313   24.8407 C   0  0  0  0  0  0  0  0  0  0  0  0
    6.2964    5.5537   22.9862 C   0  0  0  0  0  0  0  0  0  0  0  0
   10.6150    2.7179   17.2158 H   0  0  0  0  0  0  0  0  0  0  0  0
    9.7031    4.2227   17.3633 H   0  0  0  0  0  0  0  0  0  0  0  0
    8.8931    2.6224   17.5983 H   0  0  0  0  0  0  0  0  0  0  0  0
   10.5943    3.3989   21.6348 H   0  0  0  0  0  0  0  0  0  0  0  0
    9.1248    4.4092   23.3693 H   0  0  0  0  0  0  0  0  0  0  0  0
    7.7105    4.4338   18.5831 H   0  0  0  0  0  0  0  0  0  0  0  0
    6.0484    6.6397   20.1208 H   0  0  0  0  0  0  0  0  0  0  0  0
    5.1063    5.1115   19.9958 H   0  0  0  0  0  0  0  0  0  0  0  0
    5.4149    6.8087   21.9475 H   0  0  0  0  0  0  0  0  0  0  0  0
    5.0412    4.7037   21.9545 H   0  0  0  0  0  0  0  0  0  0  0  0
    1.8353    3.6980   23.4731 H   0  0  0  0  0  0  0  0  0  0  0  0
    3.4810    3.4838   23.0689 H   0  0  0  0  0  0  0  0  0  0  0  0
    2.7906    2.5883   24.4368 H   0  0  0  0  0  0  0  0  0  0  0  0
    4.4949    4.9042   26.6758 H   0  0  0  0  0  0  0  0  0  0  0  0
    5.2392    3.9758   25.4330 H   0  0  0  0  0  0  0  0  0  0  0  0
    3.9428    3.2408   26.3846 H   0  0  0  0  0  0  0  0  0  0  0  0
    2.3269    4.5562   27.6071 H   0  0  0  0  0  0  0  0  0  0  0  0
    2.6565    6.2368   27.1544 H   0  0  0  0  0  0  0  0  0  0  0  0
    0.4413    6.8761   27.4090 H   0  0  0  0  0  0  0  0  0  0  0  0
    0.5415    5.6011   28.6194 H   0  0  0  0  0  0  0  0  0  0  0  0
   -1.5117    5.3628   27.2115 H   0  0  0  0  0  0  0  0  0  0  0  0
   -0.4424    3.9783   27.0298 H   0  0  0  0  0  0  0  0  0  0  0  0
   -1.1895    6.0618   25.0297 H   0  0  0  0  0  0  0  0  0  0  0  0
   -0.7649    4.3709   24.7971 H   0  0  0  0  0  0  0  0  0  0  0  0
    0.9877    5.5758   23.7583 H   0  0  0  0  0  0  0  0  0  0  0  0
    1.0593    6.8114   24.9895 H   0  0  0  0  0  0  0  0  0  0  0  0
    6.7841    6.4647   23.5343 H   0  0  0  0  0  0  0  0  0  0  0  0
    6.3411    4.8222   23.8697 H   0  0  0  0  0  0  0  0  0  0  0  0
  1  2  1  0
  2  3  1  0
  3  4  2  0
  4  5  1  0
  5  6  2  0
  6  7  1  0
  7  8  2  0
  7  9  1  0
  9 10  1  0
 10 11  1  0
 11 12  1  0
 12 13  2  0
 12 14  1  0
 14 15  1  0
 14 16  1  0
 14 17  1  0
 17 18  1  0
 18 19  1  0
 19 20  1  0
 20 21  1  0
 21 22  1  0
 11 23  1  0
  8  3  1  0
 22 17  1  0
 23  6  1  0
  1 24  1  0
  1 25  1  0
  1 26  1  0
  4 27  1  0
  5 28  1  0
  8 29  1  0
  9 30  1  0
  9 31  1  0
 10 32  1  0
 10 33  1  0
 15 34  1  0
 15 35  1  0
 15 36  1  0
 16 37  1  0
 16 38  1  0
 16 39  1  0
 18 40  1  0
 18 41  1  0
 19 42  1  0
 19 43  1  0
 20 44  1  0
 20 45  1  0
 21 46  1  0
 21 47  1  0
 22 48  1  0
 22 49  1  0
 23 50  1  0
 23 51  1  0
M  END
>  <Energy>  (353) 
703.06971554559664

>  <compound_id>  (353) 
21319

>  <target_id>  (353) 
1

>  <reference_id>  (353) 
146

>  <inspiration_ids>  (353) 
[146, 44]

>  <energy_score>  (353) 
568.2476025330315

>  <distance_score>  (353) 
9.197348049125669

>  <path>  (353) 
/opt/xchem-fragalysis-2/maxwin/BulkDock/SCRATCH/511013/C21319-P146/C21319-P146.minimised.mol

>  <scratch_subdir>  (353) 
/opt/xchem-fragalysis-2/maxwin/BulkDock/SCRATCH/511013/C21319-P146

>  <fragmenstein_runtime>  (353) 
13.784990787506104

>  <fragmenstein_outcome>  (353) 
too moved

>  <fragmenstein_mode>  (353) 
expansion

>  <fragmenstein_error>  (353) 


$$$$
C21319-P44
     RDKit          3D

 51 53  0  0  0  0  0  0  0  0999 V2000
   10.5776    1.3829   13.7204 C   0  0  0  0  0  0  0  0  0  0  0  0
   10.4396    2.2116   14.8692 O   0  0  0  0  0  0  0  0  0  0  0  0
    9.6637    1.7227   15.8820 C   0  0  0  0  0  0  0  0  0  0  0  0
    8.9113    0.5596   15.8471 C   0  0  0  0  0  0  0  0  0  0  0  0
    8.1078    0.2173   16.9485 C   0  0  0  0  0  0  0  0  0  0  0  0
    8.2110    0.8555   18.1931 C   0  0  0  0  0  0  0  0  0  0  0  0
    8.8828    2.0928   18.1411 C   0  0  0  0  0  0  0  0  0  0  0  0
    9.5539    2.5405   17.0028 C   0  0  0  0  0  0  0  0  0  0  0  0
    8.5571    2.8750   19.3686 C   0  0  0  0  0  0  0  0  0  0  0  0
    7.4057    1.5846   19.9200 C   0  0  0  0  0  0  0  0  0  0  0  0
    6.3319    2.0160   21.1748 N   0  0  0  0  0  0  0  0  0  0  0  0
    4.9208    1.1433   22.2095 C   0  0  0  0  0  0  0  0  0  0  0  0
    3.8266    1.2787   21.6704 O   0  0  0  0  0  0  0  0  0  0  0  0
    4.9537    0.3075   24.0003 C   0  0  0  0  0  0  0  0  0  0  0  0
    4.5555   -1.1814   24.2802 C   0  0  0  0  0  0  0  0  0  0  0  0
    5.9416    0.5921   25.2511 C   0  0  0  0  0  0  0  0  0  0  0  0
    3.6970    1.2424   24.7694 N   0  0  0  0  0  0  0  0  0  0  0  0
    3.6899    2.6653   24.3614 C   0  0  0  0  0  0  0  0  0  0  0  0
    3.0397    3.6521   25.3499 C   0  0  0  0  0  0  0  0  0  0  0  0
    1.7883    3.0698   25.9763 C   0  0  0  0  0  0  0  0  0  0  0  0
    2.1358    1.7929   26.7297 C   0  0  0  0  0  0  0  0  0  0  0  0
    3.4234    1.1036   26.2190 C   0  0  0  0  0  0  0  0  0  0  0  0
    7.0974    0.6586   19.7985 C   0  0  0  0  0  0  0  0  0  0  0  0
    9.6232    1.2868   13.1932 H   0  0  0  0  0  0  0  0  0  0  0  0
   10.9900    0.4028   13.9826 H   0  0  0  0  0  0  0  0  0  0  0  0
   11.2841    1.8690   13.0408 H   0  0  0  0  0  0  0  0  0  0  0  0
    8.7987   -0.0148   14.9312 H   0  0  0  0  0  0  0  0  0  0  0  0
    7.2467   -0.3935   16.6893 H   0  0  0  0  0  0  0  0  0  0  0  0
    9.9947    3.5343   16.9882 H   0  0  0  0  0  0  0  0  0  0  0  0
    8.0586    3.8331   19.1624 H   0  0  0  0  0  0  0  0  0  0  0  0
    9.4253    3.0262   20.0200 H   0  0  0  0  0  0  0  0  0  0  0  0
    6.9664    2.3696   19.1156 H   0  0  0  0  0  0  0  0  0  0  0  0
    8.5755    1.3395   20.3308 H   0  0  0  0  0  0  0  0  0  0  0  0
    5.3879   -1.8399   24.5459 H   0  0  0  0  0  0  0  0  0  0  0  0
    3.9690   -1.2490   25.1882 H   0  0  0  0  0  0  0  0  0  0  0  0
    4.0549   -1.6877   23.4654 H   0  0  0  0  0  0  0  0  0  0  0  0
    6.1216    1.6589   25.4322 H   0  0  0  0  0  0  0  0  0  0  0  0
    6.9123    0.0918   25.2379 H   0  0  0  0  0  0  0  0  0  0  0  0
    5.5641    0.1497   26.1808 H   0  0  0  0  0  0  0  0  0  0  0  0
    3.1277    2.7530   23.4280 H   0  0  0  0  0  0  0  0  0  0  0  0
    4.7004    3.0403   24.1829 H   0  0  0  0  0  0  0  0  0  0  0  0
    3.7586    3.9122   26.1374 H   0  0  0  0  0  0  0  0  0  0  0  0
    2.7966    4.5834   24.8253 H   0  0  0  0  0  0  0  0  0  0  0  0
    1.0513    2.8595   25.1931 H   0  0  0  0  0  0  0  0  0  0  0  0
    1.3239    3.7927   26.6562 H   0  0  0  0  0  0  0  0  0  0  0  0
    1.2827    1.1065   26.7196 H   0  0  0  0  0  0  0  0  0  0  0  0
    2.2896    2.0400   27.7887 H   0  0  0  0  0  0  0  0  0  0  0  0
    4.2368    1.5558   26.8006 H   0  0  0  0  0  0  0  0  0  0  0  0
    3.3501    0.0584   26.5282 H   0  0  0  0  0  0  0  0  0  0  0  0
    7.1709   -0.4485   20.0597 H   0  0  0  0  0  0  0  0  0  0  0  0
    6.2778    0.4452   19.0436 H   0  0  0  0  0  0  0  0  0  0  0  0
  1  2  1  0
  2  3  1  0
  3  4  2  0
  4  5  1  0
  5  6  2  0
  6  7  1  0
  7  8  2  0
  7  9  1  0
  9 10  1  0
 10 11  1  0
 11 12  1  0
 12 13  2  0
 12 14  1  0
 14 15  1  0
 14 16  1  0
 14 17  1  0
 17 18  1  0
 18 19  1  0
 19 20  1  0
 20 21  1  0
 21 22  1  0
 11 23  1  0
  8  3  1  0
 22 17  1  0
 23  6  1  0
  1 24  1  0
  1 25  1  0
  1 26  1  0
  4 27  1  0
  5 28  1  0
  8 29  1  0
  9 30  1  0
  9 31  1  0
 10 32  1  0
 10 33  1  0
 15 34  1  0
 15 35  1  0
 15 36  1  0
 16 37  1  0
 16 38  1  0
 16 39  1  0
 18 40  1  0
 18 41  1  0
 19 42  1  0
 19 43  1  0
 20 44  1  0
 20 45  1  0
 21 46  1  0
 21 47  1  0
 22 48  1  0
 22 49  1  0
 23 50  1  0
 23 51  1  0
M  END
>  <Energy>  (354) 
1054.9573176324934

>  <compound_id>  (354) 
21319

>  <target_id>  (354) 
1

>  <reference_id>  (354) 
44

>  <inspiration_ids>  (354) 
[146, 44]

>  <energy_score>  (354) 
920.1352046199527

>  <distance_score>  (354) 
7.218532449033361

>  <path>  (354) 
/opt/xchem-fragalysis-2/maxwin/BulkDock/SCRATCH/511013/C21319-P44/C21319-P44.minimised.mol

>  <scratch_subdir>  (354) 
/opt/xchem-fragalysis-2/maxwin/BulkDock/SCRATCH/511013/C21319-P44

>  <fragmenstein_runtime>  (354) 
10.280820846557617

>  <fragmenstein_outcome>  (354) 
too moved

>  <fragmenstein_mode>  (354) 
expansion

>  <fragmenstein_error>  (354) 


$$$$
C21321-P146
     RDKit          3D

 51 53  0  0  0  0  0  0  0  0999 V2000
    3.1786    3.0427   25.7135 C   0  0  0  0  0  0  0  0  0  0  0  0
    3.4909    4.4520   25.1070 C   0  0  0  0  0  0  0  0  0  0  0  0
    2.8964    4.4455   23.6905 C   0  0  0  0  0  0  0  0  0  0  0  0
    5.1452    4.7289   25.0876 C   0  0  0  0  0  0  0  0  0  0  0  0
    5.8052    3.9757   25.7681 O   0  0  0  0  0  0  0  0  0  0  0  0
    5.5421    5.9028   24.3271 N   0  0  0  0  0  0  0  0  0  0  0  0
    6.8665    6.6134   24.2374 C   0  0  0  0  0  0  0  0  0  0  0  0
    8.1757    5.7826   24.3851 C   0  0  0  0  0  0  0  0  0  0  0  0
    8.4120    5.0589   23.1091 C   0  0  0  0  0  0  0  0  0  0  0  0
    9.6430    4.4889   22.7340 C   0  0  0  0  0  0  0  0  0  0  0  0
    9.7890    3.8430   21.4976 C   0  0  0  0  0  0  0  0  0  0  0  0
   11.0880    3.1526   21.1779 C   0  0  0  0  0  0  0  0  0  0  0  0
   11.3407    3.0795   19.7799 O   0  0  0  0  0  0  0  0  0  0  0  0
    8.6848    3.8213   20.6374 C   0  0  0  0  0  0  0  0  0  0  0  0
    7.4663    4.4126   21.0265 C   0  0  0  0  0  0  0  0  0  0  0  0
    7.2895    4.9620   22.3046 C   0  0  0  0  0  0  0  0  0  0  0  0
    5.9286    5.4935   22.8225 C   0  0  0  0  0  0  0  0  0  0  0  0
    2.8264    5.4993   25.9746 N   0  0  0  0  0  0  0  0  0  0  0  0
    3.1429    5.4084   27.4114 C   0  0  0  0  0  0  0  0  0  0  0  0
    2.0185    4.8310   28.2833 C   0  0  0  0  0  0  0  0  0  0  0  0
    0.7174    5.6194   28.1542 C   0  0  0  0  0  0  0  0  0  0  0  0
    0.6551    6.4131   26.8559 C   0  0  0  0  0  0  0  0  0  0  0  0
    1.3803    5.6772   25.7307 C   0  0  0  0  0  0  0  0  0  0  0  0
    3.7300    2.8460   26.6379 H   0  0  0  0  0  0  0  0  0  0  0  0
    2.1108    2.9111   25.9167 H   0  0  0  0  0  0  0  0  0  0  0  0
    3.4342    2.2435   25.0146 H   0  0  0  0  0  0  0  0  0  0  0  0
    3.3860    3.7087   23.0536 H   0  0  0  0  0  0  0  0  0  0  0  0
    1.8351    4.1744   23.6735 H   0  0  0  0  0  0  0  0  0  0  0  0
    2.9992    5.4228   23.2066 H   0  0  0  0  0  0  0  0  0  0  0  0
    6.8418    7.2050   25.1660 H   0  0  0  0  0  0  0  0  0  0  0  0
    6.9043    7.4018   23.4655 H   0  0  0  0  0  0  0  0  0  0  0  0
    8.1076    5.0773   25.2190 H   0  0  0  0  0  0  0  0  0  0  0  0
    9.0074    6.4698   24.5783 H   0  0  0  0  0  0  0  0  0  0  0  0
   10.4811    4.5393   23.4274 H   0  0  0  0  0  0  0  0  0  0  0  0
   11.0679    2.1374   21.5850 H   0  0  0  0  0  0  0  0  0  0  0  0
   11.9290    3.6889   21.6301 H   0  0  0  0  0  0  0  0  0  0  0  0
   11.1236    3.9543   19.4128 H   0  0  0  0  0  0  0  0  0  0  0  0
    8.7478    3.3374   19.6644 H   0  0  0  0  0  0  0  0  0  0  0  0
    6.6339    4.4242   20.3328 H   0  0  0  0  0  0  0  0  0  0  0  0
    5.2212    4.7038   22.5674 H   0  0  0  0  0  0  0  0  0  0  0  0
    5.6270    6.3458   22.1911 H   0  0  0  0  0  0  0  0  0  0  0  0
    3.3480    6.4299   27.7592 H   0  0  0  0  0  0  0  0  0  0  0  0
    4.0740    4.8643   27.6012 H   0  0  0  0  0  0  0  0  0  0  0  0
    2.3341    4.8232   29.3333 H   0  0  0  0  0  0  0  0  0  0  0  0
    1.8335    3.7846   28.0188 H   0  0  0  0  0  0  0  0  0  0  0  0
   -0.1287    4.9239   28.2124 H   0  0  0  0  0  0  0  0  0  0  0  0
    0.6071    6.3081   29.0003 H   0  0  0  0  0  0  0  0  0  0  0  0
   -0.3914    6.5901   26.5818 H   0  0  0  0  0  0  0  0  0  0  0  0
    1.1097    7.4015   27.0015 H   0  0  0  0  0  0  0  0  0  0  0  0
    1.2449    6.2533   24.8081 H   0  0  0  0  0  0  0  0  0  0  0  0
    0.8729    4.7145   25.5974 H   0  0  0  0  0  0  0  0  0  0  0  0
  1  2  1  0
  2  3  1  0
  2  4  1  0
  4  5  2  0
  4  6  1  0
  6  7  1  0
  7  8  1  0
  8  9  1  0
  9 10  2  0
 10 11  1  0
 11 12  1  0
 12 13  1  0
 11 14  2  0
 14 15  1  0
 15 16  2  0
 16 17  1  0
  2 18  1  0
 18 19  1  0
 19 20  1  0
 20 21  1  0
 21 22  1  0
 22 23  1  0
 17  6  1  0
 23 18  1  0
 16  9  1  0
  1 24  1  0
  1 25  1  0
  1 26  1  0
  3 27  1  0
  3 28  1  0
  3 29  1  0
  7 30  1  0
  7 31  1  0
  8 32  1  0
  8 33  1  0
 10 34  1  0
 12 35  1  0
 12 36  1  0
 13 37  1  0
 14 38  1  0
 15 39  1  0
 17 40  1  0
 17 41  1  0
 19 42  1  0
 19 43  1  0
 20 44  1  0
 20 45  1  0
 21 46  1  0
 21 47  1  0
 22 48  1  0
 22 49  1  0
 23 50  1  0
 23 51  1  0
M  END
>  <Energy>  (355) 
169.23766389436693

>  <compound_id>  (355) 
21321

>  <target_id>  (355) 
1

>  <reference_id>  (355) 
146

>  <inspiration_ids>  (355) 
[146, 44]

>  <energy_score>  (355) 
29.746968020055647

>  <distance_score>  (355) 
9.585267400389942

>  <path>  (355) 
/opt/xchem-fragalysis-2/maxwin/BulkDock/SCRATCH/511013/C21321-P146/C21321-P146.minimised.mol

>  <scratch_subdir>  (355) 
/opt/xchem-fragalysis-2/maxwin/BulkDock/SCRATCH/511013/C21321-P146

>  <fragmenstein_runtime>  (355) 
10.918323278427124

>  <fragmenstein_outcome>  (355) 
too moved

>  <fragmenstein_mode>  (355) 
expansion

>  <fragmenstein_error>  (355) 


$$$$
C21321-P44
     RDKit          3D

 51 53  0  0  0  0  0  0  0  0999 V2000
    4.7989    1.2577   22.2657 C   0  0  0  0  0  0  0  0  0  0  0  0
    6.0252    2.6177   21.2107 C   0  0  0  0  0  0  0  0  0  0  0  0
    5.5833    4.4511   20.5197 C   0  0  0  0  0  0  0  0  0  0  0  0
    7.6505    2.7552   19.9394 C   0  0  0  0  0  0  0  0  0  0  0  0
    8.5846    3.3682   20.3995 O   0  0  0  0  0  0  0  0  0  0  0  0
    7.6913    2.0549   18.6692 N   0  0  0  0  0  0  0  0  0  0  0  0
    8.7589    1.8061   17.7428 C   0  0  0  0  0  0  0  0  0  0  0  0
    8.5651    0.7956   16.6205 C   0  0  0  0  0  0  0  0  0  0  0  0
    8.4449    1.7543   15.5162 C   0  0  0  0  0  0  0  0  0  0  0  0
    9.2634    1.5986   14.3989 C   0  0  0  0  0  0  0  0  0  0  0  0
    9.6267    2.7327   13.6962 C   0  0  0  0  0  0  0  0  0  0  0  0
   10.7593    2.6399   12.7066 C   0  0  0  0  0  0  0  0  0  0  0  0
   11.9043    2.0106   13.3086 O   0  0  0  0  0  0  0  0  0  0  0  0
    8.9775    3.9433   14.0066 C   0  0  0  0  0  0  0  0  0  0  0  0
    8.0529    4.0535   15.0743 C   0  0  0  0  0  0  0  0  0  0  0  0
    7.8093    2.9570   15.8910 C   0  0  0  0  0  0  0  0  0  0  0  0
    7.1996    3.0852   17.3940 C   0  0  0  0  0  0  0  0  0  0  0  0
    5.1778    3.6781   22.6615 N   0  0  0  0  0  0  0  0  0  0  0  0
    3.8216    4.4086   22.5257 C   0  0  0  0  0  0  0  0  0  0  0  0
    2.7855    4.1385   23.6360 C   0  0  0  0  0  0  0  0  0  0  0  0
    3.2800    4.5908   24.9975 C   0  0  0  0  0  0  0  0  0  0  0  0
    4.7990    4.6410   25.0346 C   0  0  0  0  0  0  0  0  0  0  0  0
    5.4222    3.5291   24.1696 C   0  0  0  0  0  0  0  0  0  0  0  0
    4.3534    0.7252   21.4322 H   0  0  0  0  0  0  0  0  0  0  0  0
    3.9898    1.8205   22.7970 H   0  0  0  0  0  0  0  0  0  0  0  0
    5.0858    0.5668   23.1002 H   0  0  0  0  0  0  0  0  0  0  0  0
    4.5780    4.6562   20.1115 H   0  0  0  0  0  0  0  0  0  0  0  0
    6.2854    4.6746   19.6952 H   0  0  0  0  0  0  0  0  0  0  0  0
    5.7874    5.3022   21.1975 H   0  0  0  0  0  0  0  0  0  0  0  0
    9.3389    1.1789   18.3929 H   0  0  0  0  0  0  0  0  0  0  0  0
    9.4657    2.6452   17.6190 H   0  0  0  0  0  0  0  0  0  0  0  0
    7.6981    0.1467   16.7065 H   0  0  0  0  0  0  0  0  0  0  0  0
    9.4552    0.1690   16.4995 H   0  0  0  0  0  0  0  0  0  0  0  0
    9.7542    0.6468   14.1984 H   0  0  0  0  0  0  0  0  0  0  0  0
   11.0695    3.6340   12.3700 H   0  0  0  0  0  0  0  0  0  0  0  0
   10.4606    2.0552   11.8323 H   0  0  0  0  0  0  0  0  0  0  0  0
   11.8471    2.1822   14.2641 H   0  0  0  0  0  0  0  0  0  0  0  0
    9.2272    4.8454   13.4493 H   0  0  0  0  0  0  0  0  0  0  0  0
    7.6384    5.0278   15.3209 H   0  0  0  0  0  0  0  0  0  0  0  0
    6.1418    3.3530   17.3846 H   0  0  0  0  0  0  0  0  0  0  0  0
    7.6430    4.0390   17.7383 H   0  0  0  0  0  0  0  0  0  0  0  0
    4.0557    5.4825   22.5598 H   0  0  0  0  0  0  0  0  0  0  0  0
    3.2599    4.2985   21.5970 H   0  0  0  0  0  0  0  0  0  0  0  0
    2.5282    3.0752   23.6669 H   0  0  0  0  0  0  0  0  0  0  0  0
    1.8518    4.6646   23.4027 H   0  0  0  0  0  0  0  0  0  0  0  0
    2.8812    5.5824   25.2411 H   0  0  0  0  0  0  0  0  0  0  0  0
    2.9016    3.9060   25.7656 H   0  0  0  0  0  0  0  0  0  0  0  0
    5.1571    5.6188   24.6885 H   0  0  0  0  0  0  0  0  0  0  0  0
    5.1389    4.5396   26.0722 H   0  0  0  0  0  0  0  0  0  0  0  0
    4.9918    2.5983   24.5607 H   0  0  0  0  0  0  0  0  0  0  0  0
    6.4892    3.5516   24.4127 H   0  0  0  0  0  0  0  0  0  0  0  0
  1  2  1  0
  2  3  1  0
  2  4  1  0
  4  5  2  0
  4  6  1  0
  6  7  1  0
  7  8  1  0
  8  9  1  0
  9 10  2  0
 10 11  1  0
 11 12  1  0
 12 13  1  0
 11 14  2  0
 14 15  1  0
 15 16  2  0
 16 17  1  0
  2 18  1  0
 18 19  1  0
 19 20  1  0
 20 21  1  0
 21 22  1  0
 22 23  1  0
 17  6  1  0
 23 18  1  0
 16  9  1  0
  1 24  1  0
  1 25  1  0
  1 26  1  0
  3 27  1  0
  3 28  1  0
  3 29  1  0
  7 30  1  0
  7 31  1  0
  8 32  1  0
  8 33  1  0
 10 34  1  0
 12 35  1  0
 12 36  1  0
 13 37  1  0
 14 38  1  0
 15 39  1  0
 17 40  1  0
 17 41  1  0
 19 42  1  0
 19 43  1  0
 20 44  1  0
 20 45  1  0
 21 46  1  0
 21 47  1  0
 22 48  1  0
 22 49  1  0
 23 50  1  0
 23 51  1  0
M  END
>  <Energy>  (356) 
608.07619687321528

>  <compound_id>  (356) 
21321

>  <target_id>  (356) 
1

>  <reference_id>  (356) 
44

>  <inspiration_ids>  (356) 
[146, 44]

>  <energy_score>  (356) 
468.5855009988988

>  <distance_score>  (356) 
8.048374695163355

>  <path>  (356) 
/opt/xchem-fragalysis-2/maxwin/BulkDock/SCRATCH/511013/C21321-P44/C21321-P44.minimised.mol

>  <scratch_subdir>  (356) 
/opt/xchem-fragalysis-2/maxwin/BulkDock/SCRATCH/511013/C21321-P44

>  <fragmenstein_runtime>  (356) 
10.719208002090454

>  <fragmenstein_outcome>  (356) 
too moved

>  <fragmenstein_mode>  (356) 
expansion

>  <fragmenstein_error>  (356) 


$$$$
C21322-P146
     RDKit          3D

 47 49  0  0  0  0  0  0  0  0999 V2000
   12.8247    5.0281   16.6785 N   0  0  0  0  0  0  0  0  0  0  0  0
   11.8293    4.1797   17.1886 C   0  0  0  0  0  0  0  0  0  0  0  0
   10.9967    3.4776   16.3120 C   0  0  0  0  0  0  0  0  0  0  0  0
    9.9083    2.7547   16.7931 C   0  0  0  0  0  0  0  0  0  0  0  0
    9.6029    2.7750   18.1599 C   0  0  0  0  0  0  0  0  0  0  0  0
   10.4398    3.4552   19.0440 C   0  0  0  0  0  0  0  0  0  0  0  0
   11.5342    4.1756   18.5538 C   0  0  0  0  0  0  0  0  0  0  0  0
   10.0908    3.4221   20.5015 C   0  0  0  0  0  0  0  0  0  0  0  0
    8.5676    3.5005   20.6734 C   0  0  0  0  0  0  0  0  0  0  0  0
    7.8004    2.4655   19.9862 N   0  0  0  0  0  0  0  0  0  0  0  0
    7.2685    1.2482   20.8003 C   0  0  0  0  0  0  0  0  0  0  0  0
    5.3503    0.9312   21.6798 C   0  0  0  0  0  0  0  0  0  0  0  0
    3.7516    1.8903   22.6318 C   0  0  0  0  0  0  0  0  0  0  0  0
    3.5542    3.3877   23.2409 N   0  0  0  0  0  0  0  0  0  0  0  0
    2.6971    4.2150   22.3476 C   0  0  0  0  0  0  0  0  0  0  0  0
    2.3035    5.5666   22.9613 C   0  0  0  0  0  0  0  0  0  0  0  0
    1.5765    5.4050   24.2851 C   0  0  0  0  0  0  0  0  0  0  0  0
    2.4242    4.5575   25.2122 C   0  0  0  0  0  0  0  0  0  0  0  0
    2.7969    3.2395   24.5399 C   0  0  0  0  0  0  0  0  0  0  0  0
    8.3214    2.1350   18.6364 C   0  0  0  0  0  0  0  0  0  0  0  0
   13.5538    5.2468   17.3462 H   0  0  0  0  0  0  0  0  0  0  0  0
   13.2107    4.6660   15.8093 H   0  0  0  0  0  0  0  0  0  0  0  0
   11.1881    3.5017   15.2430 H   0  0  0  0  0  0  0  0  0  0  0  0
    9.2601    2.2357   16.0909 H   0  0  0  0  0  0  0  0  0  0  0  0
   12.1430    4.7583   19.2391 H   0  0  0  0  0  0  0  0  0  0  0  0
   10.4847    2.5086   20.9600 H   0  0  0  0  0  0  0  0  0  0  0  0
   10.5470    4.2739   21.0196 H   0  0  0  0  0  0  0  0  0  0  0  0
    8.2278    4.4658   20.2720 H   0  0  0  0  0  0  0  0  0  0  0  0
    8.3365    3.5528   21.7372 H   0  0  0  0  0  0  0  0  0  0  0  0
    8.2039    1.0589   21.3432 H   0  0  0  0  0  0  0  0  0  0  0  0
    7.2869    0.4485   20.0092 H   0  0  0  0  0  0  0  0  0  0  0  0
    5.4125    0.8174   22.6756 H   0  0  0  0  0  0  0  0  0  0  0  0
    4.9933   -0.0343   21.5075 H   0  0  0  0  0  0  0  0  0  0  0  0
    3.6933    1.4591   23.6442 H   0  0  0  0  0  0  0  0  0  0  0  0
    2.8935    1.8061   21.9458 H   0  0  0  0  0  0  0  0  0  0  0  0
    3.2188    4.4526   21.4168 H   0  0  0  0  0  0  0  0  0  0  0  0
    1.7792    3.6764   22.0796 H   0  0  0  0  0  0  0  0  0  0  0  0
    3.2052    6.1750   23.1075 H   0  0  0  0  0  0  0  0  0  0  0  0
    1.6639    6.1127   22.2581 H   0  0  0  0  0  0  0  0  0  0  0  0
    1.3847    6.3851   24.7349 H   0  0  0  0  0  0  0  0  0  0  0  0
    0.6040    4.9255   24.1210 H   0  0  0  0  0  0  0  0  0  0  0  0
    1.8742    4.3594   26.1391 H   0  0  0  0  0  0  0  0  0  0  0  0
    3.3359    5.1014   25.4890 H   0  0  0  0  0  0  0  0  0  0  0  0
    1.8752    2.6756   24.3667 H   0  0  0  0  0  0  0  0  0  0  0  0
    3.3993    2.6777   25.2637 H   0  0  0  0  0  0  0  0  0  0  0  0
    8.4326    1.0566   18.4827 H   0  0  0  0  0  0  0  0  0  0  0  0
    7.5802    2.5459   17.9481 H   0  0  0  0  0  0  0  0  0  0  0  0
  1  2  1  0
  2  3  2  0
  3  4  1  0
  4  5  2  0
  5  6  1  0
  6  7  2  0
  6  8  1  0
  8  9  1  0
  9 10  1  0
 10 11  1  0
 11 12  1  0
 12 13  1  0
 13 14  1  0
 14 15  1  0
 15 16  1  0
 16 17  1  0
 17 18  1  0
 18 19  1  0
 10 20  1  0
  7  2  1  0
 19 14  1  0
 20  5  1  0
  1 21  1  0
  1 22  1  0
  3 23  1  0
  4 24  1  0
  7 25  1  0
  8 26  1  0
  8 27  1  0
  9 28  1  0
  9 29  1  0
 11 30  1  0
 11 31  1  0
 12 32  1  0
 12 33  1  0
 13 34  1  0
 13 35  1  0
 15 36  1  0
 15 37  1  0
 16 38  1  0
 16 39  1  0
 17 40  1  0
 17 41  1  0
 18 42  1  0
 18 43  1  0
 19 44  1  0
 19 45  1  0
 20 46  1  0
 20 47  1  0
M  END
>  <Energy>  (357) 
311.7266774435551

>  <compound_id>  (357) 
21322

>  <target_id>  (357) 
1

>  <reference_id>  (357) 
146

>  <inspiration_ids>  (357) 
[146, 44]

>  <energy_score>  (357) 
213.6510797311921

>  <distance_score>  (357) 
7.625441978865914

>  <path>  (357) 
/opt/xchem-fragalysis-2/maxwin/BulkDock/SCRATCH/511013/C21322-P146/C21322-P146.minimised.mol

>  <scratch_subdir>  (357) 
/opt/xchem-fragalysis-2/maxwin/BulkDock/SCRATCH/511013/C21322-P146

>  <fragmenstein_runtime>  (357) 
6.816582202911377

>  <fragmenstein_outcome>  (357) 
too moved

>  <fragmenstein_mode>  (357) 
expansion

>  <fragmenstein_error>  (357) 


$$$$
C21322-P44
     RDKit          3D

 47 49  0  0  0  0  0  0  0  0999 V2000
   11.3314    1.6353   14.4018 N   0  0  0  0  0  0  0  0  0  0  0  0
   10.4194    1.1272   15.3308 C   0  0  0  0  0  0  0  0  0  0  0  0
    9.8391   -0.1179   15.1425 C   0  0  0  0  0  0  0  0  0  0  0  0
    8.7817   -0.5435   15.9498 C   0  0  0  0  0  0  0  0  0  0  0  0
    8.3646    0.2109   17.0637 C   0  0  0  0  0  0  0  0  0  0  0  0
    8.9570    1.4475   17.2490 C   0  0  0  0  0  0  0  0  0  0  0  0
    9.8937    1.9403   16.3305 C   0  0  0  0  0  0  0  0  0  0  0  0
    8.4377    2.2370   18.3955 C   0  0  0  0  0  0  0  0  0  0  0  0
    7.9868    1.3126   19.5719 C   0  0  0  0  0  0  0  0  0  0  0  0
    7.2317    0.0411   19.4144 N   0  0  0  0  0  0  0  0  0  0  0  0
    6.3585   -1.0244   20.6899 C   0  0  0  0  0  0  0  0  0  0  0  0
    5.0097   -0.8042   22.2632 C   0  0  0  0  0  0  0  0  0  0  0  0
    4.9322   -0.2593   24.0874 C   0  0  0  0  0  0  0  0  0  0  0  0
    3.8286    0.3291   24.9793 N   0  0  0  0  0  0  0  0  0  0  0  0
    3.7327    1.8042   24.8705 C   0  0  0  0  0  0  0  0  0  0  0  0
    3.2988    2.5528   26.1457 C   0  0  0  0  0  0  0  0  0  0  0  0
    2.2920    1.7858   26.9814 C   0  0  0  0  0  0  0  0  0  0  0  0
    2.7529    0.3510   27.2276 C   0  0  0  0  0  0  0  0  0  0  0  0
    3.9691   -0.0721   26.3853 C   0  0  0  0  0  0  0  0  0  0  0  0
    7.1174   -0.0996   17.9671 C   0  0  0  0  0  0  0  0  0  0  0  0
   11.8500    0.9162   13.9077 H   0  0  0  0  0  0  0  0  0  0  0  0
   11.9176    2.3758   14.7677 H   0  0  0  0  0  0  0  0  0  0  0  0
   10.1589   -0.7434   14.3183 H   0  0  0  0  0  0  0  0  0  0  0  0
    8.2634   -1.4488   15.6465 H   0  0  0  0  0  0  0  0  0  0  0  0
   10.2343    2.9683   16.4262 H   0  0  0  0  0  0  0  0  0  0  0  0
    9.2068    2.9215   18.7721 H   0  0  0  0  0  0  0  0  0  0  0  0
    7.6024    2.8607   18.0580 H   0  0  0  0  0  0  0  0  0  0  0  0
    7.4306    2.0102   20.1633 H   0  0  0  0  0  0  0  0  0  0  0  0
    8.8912    1.0566   20.0997 H   0  0  0  0  0  0  0  0  0  0  0  0
    7.2525   -1.4859   20.8837 H   0  0  0  0  0  0  0  0  0  0  0  0
    5.9162   -2.0493   20.4639 H   0  0  0  0  0  0  0  0  0  0  0  0
    4.7487   -1.8075   22.6138 H   0  0  0  0  0  0  0  0  0  0  0  0
    4.4697   -0.0667   21.6920 H   0  0  0  0  0  0  0  0  0  0  0  0
    5.7885    0.3095   24.4216 H   0  0  0  0  0  0  0  0  0  0  0  0
    5.0406   -1.2617   24.5377 H   0  0  0  0  0  0  0  0  0  0  0  0
    4.6914    2.2467   24.5951 H   0  0  0  0  0  0  0  0  0  0  0  0
    3.0360    2.0610   24.0662 H   0  0  0  0  0  0  0  0  0  0  0  0
    4.1879    2.7448   26.7612 H   0  0  0  0  0  0  0  0  0  0  0  0
    2.8929    3.5347   25.8761 H   0  0  0  0  0  0  0  0  0  0  0  0
    2.1365    2.2955   27.9396 H   0  0  0  0  0  0  0  0  0  0  0  0
    1.3163    1.7878   26.4847 H   0  0  0  0  0  0  0  0  0  0  0  0
    1.9126   -0.3282   27.0475 H   0  0  0  0  0  0  0  0  0  0  0  0
    3.0102    0.2308   28.2874 H   0  0  0  0  0  0  0  0  0  0  0  0
    4.0585   -1.1620   26.4683 H   0  0  0  0  0  0  0  0  0  0  0  0
    4.8876    0.3498   26.8141 H   0  0  0  0  0  0  0  0  0  0  0  0
    6.4824   -0.2777   17.0648 H   0  0  0  0  0  0  0  0  0  0  0  0
    6.4501   -0.9365   18.0644 H   0  0  0  0  0  0  0  0  0  0  0  0
  1  2  1  0
  2  3  2  0
  3  4  1  0
  4  5  2  0
  5  6  1  0
  6  7  2  0
  6  8  1  0
  8  9  1  0
  9 10  1  0
 10 11  1  0
 11 12  1  0
 12 13  1  0
 13 14  1  0
 14 15  1  0
 15 16  1  0
 16 17  1  0
 17 18  1  0
 18 19  1  0
 10 20  1  0
  7  2  1  0
 19 14  1  0
 20  5  1  0
  1 21  1  0
  1 22  1  0
  3 23  1  0
  4 24  1  0
  7 25  1  0
  8 26  1  0
  8 27  1  0
  9 28  1  0
  9 29  1  0
 11 30  1  0
 11 31  1  0
 12 32  1  0
 12 33  1  0
 13 34  1  0
 13 35  1  0
 15 36  1  0
 15 37  1  0
 16 38  1  0
 16 39  1  0
 17 40  1  0
 17 41  1  0
 18 42  1  0
 18 43  1  0
 19 44  1  0
 19 45  1  0
 20 46  1  0
 20 47  1  0
M  END
>  <Energy>  (358) 
378.84766945032788

>  <compound_id>  (358) 
21322

>  <target_id>  (358) 
1

>  <reference_id>  (358) 
44

>  <inspiration_ids>  (358) 
[146, 44]

>  <energy_score>  (358) 
280.7720717379695

>  <distance_score>  (358) 
6.784338539680907

>  <path>  (358) 
/opt/xchem-fragalysis-2/maxwin/BulkDock/SCRATCH/511013/C21322-P44/C21322-P44.minimised.mol

>  <scratch_subdir>  (358) 
/opt/xchem-fragalysis-2/maxwin/BulkDock/SCRATCH/511013/C21322-P44

>  <fragmenstein_runtime>  (358) 
6.275461435317993

>  <fragmenstein_outcome>  (358) 
too moved

>  <fragmenstein_mode>  (358) 
expansion

>  <fragmenstein_error>  (358) 


$$$$
C21325-P146
     RDKit          3D

 49 51  0  0  0  0  0  0  0  0999 V2000
    3.8412    3.7813   25.5130 C   0  0  0  0  0  0  0  0  0  0  0  0
    3.2872    3.5054   24.0834 C   0  0  0  0  0  0  0  0  0  0  0  0
    4.3241    4.1059   22.9399 C   0  0  0  0  0  0  0  0  0  0  0  0
    5.6910    3.2588   22.1014 N   0  0  0  0  0  0  0  0  0  0  0  0
    5.8781    1.3803   21.5310 C   0  0  0  0  0  0  0  0  0  0  0  0
    5.1911    0.4359   21.6982 O   0  0  0  0  0  0  0  0  0  0  0  0
    7.4569    1.6615   20.5150 N   0  0  0  0  0  0  0  0  0  0  0  0
    8.8418    1.4674   21.1033 C   0  0  0  0  0  0  0  0  0  0  0  0
    9.7460    2.5923   20.3439 C   0  0  0  0  0  0  0  0  0  0  0  0
    9.6730    2.4321   18.8485 C   0  0  0  0  0  0  0  0  0  0  0  0
   10.4031    3.1824   17.9284 C   0  0  0  0  0  0  0  0  0  0  0  0
   10.3493    2.8361   16.5772 C   0  0  0  0  0  0  0  0  0  0  0  0
   11.1800    3.7979   15.4157 Cl  0  0  0  0  0  0  0  0  0  0  0  0
    9.6113    1.7301   16.1533 C   0  0  0  0  0  0  0  0  0  0  0  0
    8.8713    0.9937   17.0790 C   0  0  0  0  0  0  0  0  0  0  0  0
    8.8679    1.3695   18.4260 C   0  0  0  0  0  0  0  0  0  0  0  0
    8.1162    0.6583   19.5546 C   0  0  0  0  0  0  0  0  0  0  0  0
    1.8714    3.9996   24.0174 N   0  0  0  0  0  0  0  0  0  0  0  0
    1.0252    3.5628   25.1394 C   0  0  0  0  0  0  0  0  0  0  0  0
   -0.4573    3.7268   24.7920 C   0  0  0  0  0  0  0  0  0  0  0  0
   -0.7582    5.0757   24.1412 C   0  0  0  0  0  0  0  0  0  0  0  0
    0.4084    6.0414   24.3052 C   0  0  0  0  0  0  0  0  0  0  0  0
    1.7259    5.4416   23.7790 C   0  0  0  0  0  0  0  0  0  0  0  0
    3.4630    3.0447   26.2297 H   0  0  0  0  0  0  0  0  0  0  0  0
    3.5624    4.7788   25.8706 H   0  0  0  0  0  0  0  0  0  0  0  0
    4.9322    3.7585   25.5585 H   0  0  0  0  0  0  0  0  0  0  0  0
    3.2137    2.4257   23.9212 H   0  0  0  0  0  0  0  0  0  0  0  0
    3.7333    4.4693   22.0904 H   0  0  0  0  0  0  0  0  0  0  0  0
    4.8426    4.9835   23.3485 H   0  0  0  0  0  0  0  0  0  0  0  0
    6.4238    3.8543   21.7230 H   0  0  0  0  0  0  0  0  0  0  0  0
    9.3599    0.5315   21.3023 H   0  0  0  0  0  0  0  0  0  0  0  0
    8.8845    2.0360   22.0301 H   0  0  0  0  0  0  0  0  0  0  0  0
    9.3533    3.5870   20.5959 H   0  0  0  0  0  0  0  0  0  0  0  0
   10.7773    2.5355   20.7092 H   0  0  0  0  0  0  0  0  0  0  0  0
   11.0115    4.0204   18.2554 H   0  0  0  0  0  0  0  0  0  0  0  0
    9.5821    1.4612   15.1003 H   0  0  0  0  0  0  0  0  0  0  0  0
    8.2557    0.1740   16.7224 H   0  0  0  0  0  0  0  0  0  0  0  0
    8.6062   -0.2438   19.8913 H   0  0  0  0  0  0  0  0  0  0  0  0
    7.2632    0.1699   19.0988 H   0  0  0  0  0  0  0  0  0  0  0  0
    1.2102    2.5202   25.3927 H   0  0  0  0  0  0  0  0  0  0  0  0
    1.2481    4.1349   26.0498 H   0  0  0  0  0  0  0  0  0  0  0  0
   -1.0508    3.6166   25.7074 H   0  0  0  0  0  0  0  0  0  0  0  0
   -0.7815    2.9299   24.1131 H   0  0  0  0  0  0  0  0  0  0  0  0
   -1.6730    5.5043   24.5656 H   0  0  0  0  0  0  0  0  0  0  0  0
   -0.9514    4.9251   23.0716 H   0  0  0  0  0  0  0  0  0  0  0  0
    0.1957    6.9780   23.7772 H   0  0  0  0  0  0  0  0  0  0  0  0
    0.5190    6.2982   25.3666 H   0  0  0  0  0  0  0  0  0  0  0  0
    1.7713    5.6106   22.6967 H   0  0  0  0  0  0  0  0  0  0  0  0
    2.5487    6.0138   24.2235 H   0  0  0  0  0  0  0  0  0  0  0  0
  1  2  1  0
  2  3  1  0
  3  4  1  0
  4  5  1  0
  5  6  2  0
  5  7  1  0
  7  8  1  0
  8  9  1  0
  9 10  1  0
 10 11  2  0
 11 12  1  0
 12 13  1  0
 12 14  2  0
 14 15  1  0
 15 16  2  0
 16 17  1  0
  2 18  1  0
 18 19  1  0
 19 20  1  0
 20 21  1  0
 21 22  1  0
 22 23  1  0
 17  7  1  0
 23 18  1  0
 16 10  1  0
  1 24  1  0
  1 25  1  0
  1 26  1  0
  2 27  1  0
  3 28  1  0
  3 29  1  0
  4 30  1  0
  8 31  1  0
  8 32  1  0
  9 33  1  0
  9 34  1  0
 11 35  1  0
 14 36  1  0
 15 37  1  0
 17 38  1  0
 17 39  1  0
 19 40  1  0
 19 41  1  0
 20 42  1  0
 20 43  1  0
 21 44  1  0
 21 45  1  0
 22 46  1  0
 22 47  1  0
 23 48  1  0
 23 49  1  0
M  END
>  <Energy>  (359) 
274.95172263507925

>  <compound_id>  (359) 
21325

>  <target_id>  (359) 
1

>  <reference_id>  (359) 
146

>  <inspiration_ids>  (359) 
[146, 44]

>  <energy_score>  (359) 
262.495537476339

>  <distance_score>  (359) 
6.797061222903575

>  <path>  (359) 
/opt/xchem-fragalysis-2/maxwin/BulkDock/SCRATCH/511013/C21325-P146/C21325-P146.minimised.mol

>  <scratch_subdir>  (359) 
/opt/xchem-fragalysis-2/maxwin/BulkDock/SCRATCH/511013/C21325-P146

>  <fragmenstein_runtime>  (359) 
15.124202013015747

>  <fragmenstein_outcome>  (359) 
too moved

>  <fragmenstein_mode>  (359) 
expansion

>  <fragmenstein_error>  (359) 


$$$$
C21325-P44
     RDKit          3D

 49 51  0  0  0  0  0  0  0  0999 V2000
    5.7465   -0.6126   25.9155 C   0  0  0  0  0  0  0  0  0  0  0  0
    4.3889   -0.7995   25.2166 C   0  0  0  0  0  0  0  0  0  0  0  0
    4.4632   -1.4788   23.6619 C   0  0  0  0  0  0  0  0  0  0  0  0
    5.0104   -0.6775   22.4477 N   0  0  0  0  0  0  0  0  0  0  0  0
    5.9452   -1.2264   20.8928 C   0  0  0  0  0  0  0  0  0  0  0  0
    6.0770   -2.3808   20.7488 O   0  0  0  0  0  0  0  0  0  0  0  0
    6.6060    0.1586   19.7659 N   0  0  0  0  0  0  0  0  0  0  0  0
    8.1072    1.0229   19.8146 C   0  0  0  0  0  0  0  0  0  0  0  0
    8.6135    2.2513   18.8500 C   0  0  0  0  0  0  0  0  0  0  0  0
    9.0209    1.6667   17.5579 C   0  0  0  0  0  0  0  0  0  0  0  0
    9.7794    2.2778   16.5602 C   0  0  0  0  0  0  0  0  0  0  0  0
   10.1148    1.5685   15.4143 C   0  0  0  0  0  0  0  0  0  0  0  0
   11.1434    2.2756   14.2322 Cl  0  0  0  0  0  0  0  0  0  0  0  0
    9.5892    0.3028   15.2140 C   0  0  0  0  0  0  0  0  0  0  0  0
    8.6950   -0.2275   16.1466 C   0  0  0  0  0  0  0  0  0  0  0  0
    8.4338    0.4345   17.3670 C   0  0  0  0  0  0  0  0  0  0  0  0
    7.3104    0.0201   18.4290 C   0  0  0  0  0  0  0  0  0  0  0  0
    3.4290    0.2829   25.6026 N   0  0  0  0  0  0  0  0  0  0  0  0
    2.9733    0.1987   27.0022 C   0  0  0  0  0  0  0  0  0  0  0  0
    1.7679    1.1073   27.2988 C   0  0  0  0  0  0  0  0  0  0  0  0
    1.8692    2.4846   26.6469 C   0  0  0  0  0  0  0  0  0  0  0  0
    3.2847    2.7578   26.1659 C   0  0  0  0  0  0  0  0  0  0  0  0
    3.8195    1.6513   25.2348 C   0  0  0  0  0  0  0  0  0  0  0  0
    6.3142    0.2296   25.5200 H   0  0  0  0  0  0  0  0  0  0  0  0
    6.3557   -1.5175   25.8158 H   0  0  0  0  0  0  0  0  0  0  0  0
    5.6372   -0.4526   26.9928 H   0  0  0  0  0  0  0  0  0  0  0  0
    4.0284   -1.6844   25.7604 H   0  0  0  0  0  0  0  0  0  0  0  0
    5.2020   -2.2629   23.8237 H   0  0  0  0  0  0  0  0  0  0  0  0
    3.5391   -1.9750   23.3896 H   0  0  0  0  0  0  0  0  0  0  0  0
    4.8809    0.3312   22.4122 H   0  0  0  0  0  0  0  0  0  0  0  0
    8.9269    0.4204   20.1661 H   0  0  0  0  0  0  0  0  0  0  0  0
    7.6247    1.7749   20.3983 H   0  0  0  0  0  0  0  0  0  0  0  0
    9.4386    2.7731   19.3455 H   0  0  0  0  0  0  0  0  0  0  0  0
    7.8073    2.9807   18.6920 H   0  0  0  0  0  0  0  0  0  0  0  0
   10.1284    3.2987   16.6923 H   0  0  0  0  0  0  0  0  0  0  0  0
    9.7999   -0.2379   14.2974 H   0  0  0  0  0  0  0  0  0  0  0  0
    8.1695   -1.1293   15.8451 H   0  0  0  0  0  0  0  0  0  0  0  0
    6.5564   -0.5008   17.8233 H   0  0  0  0  0  0  0  0  0  0  0  0
    6.9892    1.0196   18.3327 H   0  0  0  0  0  0  0  0  0  0  0  0
    2.6774   -0.8268   27.2534 H   0  0  0  0  0  0  0  0  0  0  0  0
    3.7870    0.4638   27.6884 H   0  0  0  0  0  0  0  0  0  0  0  0
    1.6890    1.2276   28.3865 H   0  0  0  0  0  0  0  0  0  0  0  0
    0.8358    0.6238   26.9856 H   0  0  0  0  0  0  0  0  0  0  0  0
    1.5540    3.2579   27.3568 H   0  0  0  0  0  0  0  0  0  0  0  0
    1.1771    2.5499   25.7998 H   0  0  0  0  0  0  0  0  0  0  0  0
    3.3226    3.7219   25.6456 H   0  0  0  0  0  0  0  0  0  0  0  0
    3.9471    2.8470   27.0369 H   0  0  0  0  0  0  0  0  0  0  0  0
    3.4582    1.8632   24.2244 H   0  0  0  0  0  0  0  0  0  0  0  0
    4.9044    1.7753   25.2044 H   0  0  0  0  0  0  0  0  0  0  0  0
  1  2  1  0
  2  3  1  0
  3  4  1  0
  4  5  1  0
  5  6  2  0
  5  7  1  0
  7  8  1  0
  8  9  1  0
  9 10  1  0
 10 11  2  0
 11 12  1  0
 12 13  1  0
 12 14  2  0
 14 15  1  0
 15 16  2  0
 16 17  1  0
  2 18  1  0
 18 19  1  0
 19 20  1  0
 20 21  1  0
 21 22  1  0
 22 23  1  0
 17  7  1  0
 23 18  1  0
 16 10  1  0
  1 24  1  0
  1 25  1  0
  1 26  1  0
  2 27  1  0
  3 28  1  0
  3 29  1  0
  4 30  1  0
  8 31  1  0
  8 32  1  0
  9 33  1  0
  9 34  1  0
 11 35  1  0
 14 36  1  0
 15 37  1  0
 17 38  1  0
 17 39  1  0
 19 40  1  0
 19 41  1  0
 20 42  1  0
 20 43  1  0
 21 44  1  0
 21 45  1  0
 22 46  1  0
 22 47  1  0
 23 48  1  0
 23 49  1  0
M  END
>  <Energy>  (360) 
396.31106414847841

>  <compound_id>  (360) 
21325

>  <target_id>  (360) 
1

>  <reference_id>  (360) 
44

>  <inspiration_ids>  (360) 
[146, 44]

>  <energy_score>  (360) 
383.8548789897429

>  <distance_score>  (360) 
6.452184627953307

>  <path>  (360) 
/opt/xchem-fragalysis-2/maxwin/BulkDock/SCRATCH/511013/C21325-P44/C21325-P44.minimised.mol

>  <scratch_subdir>  (360) 
/opt/xchem-fragalysis-2/maxwin/BulkDock/SCRATCH/511013/C21325-P44

>  <fragmenstein_runtime>  (360) 
8.79642629623413

>  <fragmenstein_outcome>  (360) 
too moved

>  <fragmenstein_mode>  (360) 
expansion

>  <fragmenstein_error>  (360) 


$$$$
C21327-P146
     RDKit          3D

 49 51  0  0  0  0  0  0  0  0999 V2000
    4.4052   -1.5865   25.4312 C   0  0  0  0  0  0  0  0  0  0  0  0
    4.0441   -0.1621   24.8760 C   0  0  0  0  0  0  0  0  0  0  0  0
    4.1390    0.7040   26.2626 C   0  0  0  0  0  0  0  0  0  0  0  0
    3.1228    1.6992   26.6780 N   0  0  0  0  0  0  0  0  0  0  0  0
    2.8068    2.6921   25.6581 C   0  0  0  0  0  0  0  0  0  0  0  0
    1.7568    3.7104   26.1146 C   0  0  0  0  0  0  0  0  0  0  0  0
    0.5128    3.0372   26.6737 C   0  0  0  0  0  0  0  0  0  0  0  0
    0.9084    2.0978   27.8014 C   0  0  0  0  0  0  0  0  0  0  0  0
    1.9808    1.0939   27.3710 C   0  0  0  0  0  0  0  0  0  0  0  0
    5.2347   -0.0076   23.9057 N   0  0  0  0  0  0  0  0  0  0  0  0
    5.3886    0.7757   22.0593 C   0  0  0  0  0  0  0  0  0  0  0  0
    4.3615    1.0879   21.6412 O   0  0  0  0  0  0  0  0  0  0  0  0
    7.1422    1.2002   21.1373 N   0  0  0  0  0  0  0  0  0  0  0  0
    7.9130    0.1377   19.9464 C   0  0  0  0  0  0  0  0  0  0  0  0
    8.3928    0.5026   18.3534 C   0  0  0  0  0  0  0  0  0  0  0  0
    8.8723    1.8201   17.9304 C   0  0  0  0  0  0  0  0  0  0  0  0
    9.6929    2.1408   16.8474 C   0  0  0  0  0  0  0  0  0  0  0  0
   10.1985    3.4284   16.7727 C   0  0  0  0  0  0  0  0  0  0  0  0
   11.1824    3.9001   15.4460 Cl  0  0  0  0  0  0  0  0  0  0  0  0
    9.8826    4.3526   17.7683 C   0  0  0  0  0  0  0  0  0  0  0  0
    9.0142    4.0007   18.8099 C   0  0  0  0  0  0  0  0  0  0  0  0
    8.4976    2.7097   18.8678 C   0  0  0  0  0  0  0  0  0  0  0  0
    7.4562    2.1199   19.8110 C   0  0  0  0  0  0  0  0  0  0  0  0
    4.4204   -2.3247   24.6286 H   0  0  0  0  0  0  0  0  0  0  0  0
    3.7095   -1.9176   26.2099 H   0  0  0  0  0  0  0  0  0  0  0  0
    5.4075   -1.5969   25.8809 H   0  0  0  0  0  0  0  0  0  0  0  0
    3.0086   -0.1619   24.6374 H   0  0  0  0  0  0  0  0  0  0  0  0
    4.1962    0.0002   27.1056 H   0  0  0  0  0  0  0  0  0  0  0  0
    5.1169    1.1816   26.3403 H   0  0  0  0  0  0  0  0  0  0  0  0
    3.7151    3.2561   25.4192 H   0  0  0  0  0  0  0  0  0  0  0  0
    2.4762    2.2331   24.7236 H   0  0  0  0  0  0  0  0  0  0  0  0
    1.4817    4.3548   25.2718 H   0  0  0  0  0  0  0  0  0  0  0  0
    2.1934    4.3623   26.8822 H   0  0  0  0  0  0  0  0  0  0  0  0
   -0.0043    2.4840   25.8832 H   0  0  0  0  0  0  0  0  0  0  0  0
   -0.1865    3.7939   27.0463 H   0  0  0  0  0  0  0  0  0  0  0  0
    1.2885    2.6893   28.6443 H   0  0  0  0  0  0  0  0  0  0  0  0
    0.0252    1.5607   28.1658 H   0  0  0  0  0  0  0  0  0  0  0  0
    1.5209    0.3010   26.7812 H   0  0  0  0  0  0  0  0  0  0  0  0
    2.3433    0.6020   28.2831 H   0  0  0  0  0  0  0  0  0  0  0  0
    6.1346   -0.1772   24.2475 H   0  0  0  0  0  0  0  0  0  0  0  0
    7.3726   -0.7716   19.8675 H   0  0  0  0  0  0  0  0  0  0  0  0
    8.8804    0.0601   20.4394 H   0  0  0  0  0  0  0  0  0  0  0  0
    9.3661    0.1323   18.2708 H   0  0  0  0  0  0  0  0  0  0  0  0
    7.8246    0.0389   17.5611 H   0  0  0  0  0  0  0  0  0  0  0  0
    9.9505    1.4003   16.0967 H   0  0  0  0  0  0  0  0  0  0  0  0
   10.2739    5.3658   17.7171 H   0  0  0  0  0  0  0  0  0  0  0  0
    8.7311    4.7448   19.5508 H   0  0  0  0  0  0  0  0  0  0  0  0
    7.0417    3.0906   20.1636 H   0  0  0  0  0  0  0  0  0  0  0  0
    8.3533    2.2823   20.4810 H   0  0  0  0  0  0  0  0  0  0  0  0
  1  2  1  0
  2  3  1  0
  3  4  1  0
  4  5  1  0
  5  6  1  0
  6  7  1  0
  7  8  1  0
  8  9  1  0
  2 10  1  0
 10 11  1  0
 11 12  2  0
 11 13  1  0
 13 14  1  0
 14 15  1  0
 15 16  1  0
 16 17  2  0
 17 18  1  0
 18 19  1  0
 18 20  2  0
 20 21  1  0
 21 22  2  0
 22 23  1  0
  9  4  1  0
 23 13  1  0
 22 16  1  0
  1 24  1  0
  1 25  1  0
  1 26  1  0
  2 27  1  0
  3 28  1  0
  3 29  1  0
  5 30  1  0
  5 31  1  0
  6 32  1  0
  6 33  1  0
  7 34  1  0
  7 35  1  0
  8 36  1  0
  8 37  1  0
  9 38  1  0
  9 39  1  0
 10 40  1  0
 14 41  1  0
 14 42  1  0
 15 43  1  0
 15 44  1  0
 17 45  1  0
 20 46  1  0
 21 47  1  0
 23 48  1  0
 23 49  1  0
M  END
>  <Energy>  (361) 
547.72522368663283

>  <compound_id>  (361) 
21327

>  <target_id>  (361) 
1

>  <reference_id>  (361) 
146

>  <inspiration_ids>  (361) 
[146, 44]

>  <energy_score>  (361) 
516.6675576618788

>  <distance_score>  (361) 
6.61716484302096

>  <path>  (361) 
/opt/xchem-fragalysis-2/maxwin/BulkDock/SCRATCH/511013/C21327-P146/C21327-P146.minimised.mol

>  <scratch_subdir>  (361) 
/opt/xchem-fragalysis-2/maxwin/BulkDock/SCRATCH/511013/C21327-P146

>  <fragmenstein_runtime>  (361) 
9.105862855911255

>  <fragmenstein_outcome>  (361) 
too moved

>  <fragmenstein_mode>  (361) 
expansion

>  <fragmenstein_error>  (361) 


$$$$
C21327-P44
     RDKit          3D

 49 51  0  0  0  0  0  0  0  0999 V2000
    3.2009   -2.3934   23.2863 C   0  0  0  0  0  0  0  0  0  0  0  0
    4.4088   -1.5264   23.5341 C   0  0  0  0  0  0  0  0  0  0  0  0
    4.4697   -0.7963   25.0164 C   0  0  0  0  0  0  0  0  0  0  0  0
    3.4589    0.1545   25.5562 N   0  0  0  0  0  0  0  0  0  0  0  0
    3.7965    1.5656   25.2862 C   0  0  0  0  0  0  0  0  0  0  0  0
    3.2710    2.5779   26.3234 C   0  0  0  0  0  0  0  0  0  0  0  0
    1.9273    2.1801   26.9106 C   0  0  0  0  0  0  0  0  0  0  0  0
    1.9651    0.7526   27.4545 C   0  0  0  0  0  0  0  0  0  0  0  0
    3.1864   -0.0551   26.9843 C   0  0  0  0  0  0  0  0  0  0  0  0
    4.9840   -0.7270   22.3578 N   0  0  0  0  0  0  0  0  0  0  0  0
    5.9990   -1.2523   20.8557 C   0  0  0  0  0  0  0  0  0  0  0  0
    6.1470   -2.3972   20.7508 O   0  0  0  0  0  0  0  0  0  0  0  0
    6.6253    0.1475   19.7405 N   0  0  0  0  0  0  0  0  0  0  0  0
    8.0957    1.0582   19.8100 C   0  0  0  0  0  0  0  0  0  0  0  0
    8.5981    2.2762   18.8370 C   0  0  0  0  0  0  0  0  0  0  0  0
    9.0261    1.6853   17.5525 C   0  0  0  0  0  0  0  0  0  0  0  0
    9.7818    2.3013   16.5554 C   0  0  0  0  0  0  0  0  0  0  0  0
   10.1340    1.5900   15.4150 C   0  0  0  0  0  0  0  0  0  0  0  0
   11.1577    2.3065   14.2341 Cl  0  0  0  0  0  0  0  0  0  0  0  0
    9.6309    0.3141   15.2193 C   0  0  0  0  0  0  0  0  0  0  0  0
    8.7431   -0.2264   16.1522 C   0  0  0  0  0  0  0  0  0  0  0  0
    8.4628    0.4405   17.3657 C   0  0  0  0  0  0  0  0  0  0  0  0
    7.3454    0.0129   18.4212 C   0  0  0  0  0  0  0  0  0  0  0  0
    2.2723   -1.9153   23.2052 H   0  0  0  0  0  0  0  0  0  0  0  0
    2.9899   -2.9527   22.3909 H   0  0  0  0  0  0  0  0  0  0  0  0
    3.1902   -3.1566   24.0878 H   0  0  0  0  0  0  0  0  0  0  0  0
    5.2171   -2.2402   23.7062 H   0  0  0  0  0  0  0  0  0  0  0  0
    4.4896   -1.6598   25.6988 H   0  0  0  0  0  0  0  0  0  0  0  0
    5.4605   -0.3492   25.1474 H   0  0  0  0  0  0  0  0  0  0  0  0
    4.8818    1.7114   25.2365 H   0  0  0  0  0  0  0  0  0  0  0  0
    3.3994    1.8452   24.3056 H   0  0  0  0  0  0  0  0  0  0  0  0
    3.2012    3.5709   25.8645 H   0  0  0  0  0  0  0  0  0  0  0  0
    4.0005    2.6630   27.1397 H   0  0  0  0  0  0  0  0  0  0  0  0
    1.1509    2.2681   26.1428 H   0  0  0  0  0  0  0  0  0  0  0  0
    1.6424    2.8757   27.7084 H   0  0  0  0  0  0  0  0  0  0  0  0
    1.9725    0.7815   28.5511 H   0  0  0  0  0  0  0  0  0  0  0  0
    1.0390    0.2378   27.1730 H   0  0  0  0  0  0  0  0  0  0  0  0
    2.9748   -1.1115   27.1897 H   0  0  0  0  0  0  0  0  0  0  0  0
    4.0676    0.2085   27.5840 H   0  0  0  0  0  0  0  0  0  0  0  0
    4.8323    0.2784   22.3098 H   0  0  0  0  0  0  0  0  0  0  0  0
    8.9243    0.4715   20.1724 H   0  0  0  0  0  0  0  0  0  0  0  0
    7.5969    1.7973   20.3966 H   0  0  0  0  0  0  0  0  0  0  0  0
    7.7865    2.9959   18.6652 H   0  0  0  0  0  0  0  0  0  0  0  0
    9.4154    2.8087   19.3343 H   0  0  0  0  0  0  0  0  0  0  0  0
   10.1174    3.3271   16.6852 H   0  0  0  0  0  0  0  0  0  0  0  0
    9.8551   -0.2290   14.3069 H   0  0  0  0  0  0  0  0  0  0  0  0
    8.2376   -1.1411   15.8558 H   0  0  0  0  0  0  0  0  0  0  0  0
    7.0124    1.0047   18.3082 H   0  0  0  0  0  0  0  0  0  0  0  0
    6.5865   -0.4976   17.8106 H   0  0  0  0  0  0  0  0  0  0  0  0
  1  2  1  0
  2  3  1  0
  3  4  1  0
  4  5  1  0
  5  6  1  0
  6  7  1  0
  7  8  1  0
  8  9  1  0
  2 10  1  0
 10 11  1  0
 11 12  2  0
 11 13  1  0
 13 14  1  0
 14 15  1  0
 15 16  1  0
 16 17  2  0
 17 18  1  0
 18 19  1  0
 18 20  2  0
 20 21  1  0
 21 22  2  0
 22 23  1  0
  9  4  1  0
 23 13  1  0
 22 16  1  0
  1 24  1  0
  1 25  1  0
  1 26  1  0
  2 27  1  0
  3 28  1  0
  3 29  1  0
  5 30  1  0
  5 31  1  0
  6 32  1  0
  6 33  1  0
  7 34  1  0
  7 35  1  0
  8 36  1  0
  8 37  1  0
  9 38  1  0
  9 39  1  0
 10 40  1  0
 14 41  1  0
 14 42  1  0
 15 43  1  0
 15 44  1  0
 17 45  1  0
 20 46  1  0
 21 47  1  0
 23 48  1  0
 23 49  1  0
M  END
>  <Energy>  (362) 
393.79179496369096

>  <compound_id>  (362) 
21327

>  <target_id>  (362) 
1

>  <reference_id>  (362) 
44

>  <inspiration_ids>  (362) 
[146, 44]

>  <energy_score>  (362) 
362.73412893894

>  <distance_score>  (362) 
6.531175177044585

>  <path>  (362) 
/opt/xchem-fragalysis-2/maxwin/BulkDock/SCRATCH/511013/C21327-P44/C21327-P44.minimised.mol

>  <scratch_subdir>  (362) 
/opt/xchem-fragalysis-2/maxwin/BulkDock/SCRATCH/511013/C21327-P44

>  <fragmenstein_runtime>  (362) 
6.616290330886841

>  <fragmenstein_outcome>  (362) 
too moved

>  <fragmenstein_mode>  (362) 
expansion

>  <fragmenstein_error>  (362) 


$$$$
C21330-P146
     RDKit          3D

 53 55  0  0  0  0  0  0  0  0999 V2000
    3.3211    1.9182   24.4028 C   0  0  0  0  0  0  0  0  0  0  0  0
    3.7239    1.8052   22.6198 C   0  0  0  0  0  0  0  0  0  0  0  0
    3.0594    3.4275   22.5511 C   0  0  0  0  0  0  0  0  0  0  0  0
    1.7673    3.7520   23.2572 N   0  0  0  0  0  0  0  0  0  0  0  0
    1.8998    4.8525   24.2328 C   0  0  0  0  0  0  0  0  0  0  0  0
    0.5505    5.3195   24.8112 C   0  0  0  0  0  0  0  0  0  0  0  0
   -0.5372    4.2660   24.6487 C   0  0  0  0  0  0  0  0  0  0  0  0
   -0.6847    3.8691   23.1775 C   0  0  0  0  0  0  0  0  0  0  0  0
    0.6245    4.0057   22.3796 C   0  0  0  0  0  0  0  0  0  0  0  0
    5.5073    1.5304   21.7808 N   0  0  0  0  0  0  0  0  0  0  0  0
    6.6840    2.9163   20.9817 C   0  0  0  0  0  0  0  0  0  0  0  0
    6.4843    4.0794   20.7947 O   0  0  0  0  0  0  0  0  0  0  0  0
    8.0821    2.0737   20.7614 N   0  0  0  0  0  0  0  0  0  0  0  0
    8.1551    1.4849   19.3270 C   0  0  0  0  0  0  0  0  0  0  0  0
    8.8911    1.8371   18.0347 C   0  0  0  0  0  0  0  0  0  0  0  0
    8.8591    1.0100   16.8970 C   0  0  0  0  0  0  0  0  0  0  0  0
    9.6710    1.2612   15.7892 C   0  0  0  0  0  0  0  0  0  0  0  0
   10.5261    2.3558   15.8041 C   0  0  0  0  0  0  0  0  0  0  0  0
   10.5774    3.1792   16.9270 C   0  0  0  0  0  0  0  0  0  0  0  0
    9.7784    2.8939   18.0366 C   0  0  0  0  0  0  0  0  0  0  0  0
    9.8479    3.6060   19.3364 C   0  0  0  0  0  0  0  0  0  0  0  0
    9.0084    4.8858   19.3490 C   0  0  0  0  0  0  0  0  0  0  0  0
    9.7136    5.9270   18.6675 O   0  0  0  0  0  0  0  0  0  0  0  0
    9.4369    2.5531   20.4002 C   0  0  0  0  0  0  0  0  0  0  0  0
    3.5781    0.9966   24.9539 H   0  0  0  0  0  0  0  0  0  0  0  0
    2.2552    2.0342   24.5329 H   0  0  0  0  0  0  0  0  0  0  0  0
    3.7795    2.7740   24.9130 H   0  0  0  0  0  0  0  0  0  0  0  0
    4.2987    1.1311   23.2261 H   0  0  0  0  0  0  0  0  0  0  0  0
    3.8471    4.1322   22.8530 H   0  0  0  0  0  0  0  0  0  0  0  0
    2.8302    3.6737   21.5062 H   0  0  0  0  0  0  0  0  0  0  0  0
    2.3961    5.7187   23.7763 H   0  0  0  0  0  0  0  0  0  0  0  0
    2.5320    4.5333   25.0670 H   0  0  0  0  0  0  0  0  0  0  0  0
    0.2353    6.2344   24.2932 H   0  0  0  0  0  0  0  0  0  0  0  0
    0.6691    5.5783   25.8694 H   0  0  0  0  0  0  0  0  0  0  0  0
   -0.2740    3.3803   25.2408 H   0  0  0  0  0  0  0  0  0  0  0  0
   -1.4937    4.6325   25.0373 H   0  0  0  0  0  0  0  0  0  0  0  0
   -1.4473    4.4979   22.7022 H   0  0  0  0  0  0  0  0  0  0  0  0
   -1.0569    2.8396   23.1268 H   0  0  0  0  0  0  0  0  0  0  0  0
    0.6957    5.0068   21.9339 H   0  0  0  0  0  0  0  0  0  0  0  0
    0.5896    3.3019   21.5403 H   0  0  0  0  0  0  0  0  0  0  0  0
    5.9010    0.6507   21.7303 H   0  0  0  0  0  0  0  0  0  0  0  0
    7.2392    0.9829   19.1386 H   0  0  0  0  0  0  0  0  0  0  0  0
    8.6880    0.5448   19.5799 H   0  0  0  0  0  0  0  0  0  0  0  0
    8.1815    0.1656   16.8537 H   0  0  0  0  0  0  0  0  0  0  0  0
    9.6291    0.6186   14.9121 H   0  0  0  0  0  0  0  0  0  0  0  0
   11.1654    2.5650   14.9500 H   0  0  0  0  0  0  0  0  0  0  0  0
   11.2644    4.0228   16.9455 H   0  0  0  0  0  0  0  0  0  0  0  0
   10.8987    3.8673   19.5254 H   0  0  0  0  0  0  0  0  0  0  0  0
    8.8454    5.2342   20.3732 H   0  0  0  0  0  0  0  0  0  0  0  0
    8.0431    4.7490   18.8510 H   0  0  0  0  0  0  0  0  0  0  0  0
    9.0924    6.6731   18.5967 H   0  0  0  0  0  0  0  0  0  0  0  0
    9.5881    3.1751   21.3035 H   0  0  0  0  0  0  0  0  0  0  0  0
   10.1820    1.8084   20.6631 H   0  0  0  0  0  0  0  0  0  0  0  0
  1  2  1  0
  2  3  1  0
  3  4  1  0
  4  5  1  0
  5  6  1  0
  6  7  1  0
  7  8  1  0
  8  9  1  0
  2 10  1  0
 10 11  1  0
 11 12  2  0
 11 13  1  0
 13 14  1  0
 14 15  1  0
 15 16  2  0
 16 17  1  0
 17 18  2  0
 18 19  1  0
 19 20  2  0
 20 21  1  0
 21 22  1  0
 22 23  1  0
 21 24  1  0
  9  4  1  0
 24 13  1  0
 20 15  1  0
  1 25  1  0
  1 26  1  0
  1 27  1  0
  2 28  1  0
  3 29  1  0
  3 30  1  0
  5 31  1  0
  5 32  1  0
  6 33  1  0
  6 34  1  0
  7 35  1  0
  7 36  1  0
  8 37  1  0
  8 38  1  0
  9 39  1  0
  9 40  1  0
 10 41  1  0
 14 42  1  0
 14 43  1  0
 16 44  1  0
 17 45  1  0
 18 46  1  0
 19 47  1  0
 21 48  1  0
 22 49  1  0
 22 50  1  0
 23 51  1  0
 24 52  1  0
 24 53  1  0
M  END
>  <Energy>  (363) 
398.0347575535896

>  <compound_id>  (363) 
21330

>  <target_id>  (363) 
1

>  <reference_id>  (363) 
146

>  <inspiration_ids>  (363) 
[146, 44]

>  <energy_score>  (363) 
365.5834900448969

>  <distance_score>  (363) 
7.029245819103682

>  <path>  (363) 
/opt/xchem-fragalysis-2/maxwin/BulkDock/SCRATCH/511013/C21330-P146/C21330-P146.minimised.mol

>  <scratch_subdir>  (363) 
/opt/xchem-fragalysis-2/maxwin/BulkDock/SCRATCH/511013/C21330-P146

>  <fragmenstein_runtime>  (363) 
7.361693382263184

>  <fragmenstein_outcome>  (363) 
too moved

>  <fragmenstein_mode>  (363) 
expansion

>  <fragmenstein_error>  (363) 


$$$$
C21330-P44
     RDKit          3D

 53 55  0  0  0  0  0  0  0  0999 V2000
    5.0989   -1.9396   23.8131 C   0  0  0  0  0  0  0  0  0  0  0  0
    5.0854   -0.8000   22.2807 C   0  0  0  0  0  0  0  0  0  0  0  0
    4.8739    0.4036   23.8303 C   0  0  0  0  0  0  0  0  0  0  0  0
    3.9089    1.5519   24.3767 N   0  0  0  0  0  0  0  0  0  0  0  0
    4.2589    2.9549   24.2190 C   0  0  0  0  0  0  0  0  0  0  0  0
    3.0219    3.8414   24.4677 C   0  0  0  0  0  0  0  0  0  0  0  0
    2.1168    3.3484   25.5941 C   0  0  0  0  0  0  0  0  0  0  0  0
    2.8892    2.4595   26.5514 C   0  0  0  0  0  0  0  0  0  0  0  0
    3.6275    1.3178   25.8303 C   0  0  0  0  0  0  0  0  0  0  0  0
    6.4247   -0.9530   20.6755 N   0  0  0  0  0  0  0  0  0  0  0  0
    7.3210    0.3683   19.6790 C   0  0  0  0  0  0  0  0  0  0  0  0
    7.2468    1.4772   19.9727 O   0  0  0  0  0  0  0  0  0  0  0  0
    8.3607    0.0911   18.3366 N   0  0  0  0  0  0  0  0  0  0  0  0
    7.6906    0.1159   16.8458 C   0  0  0  0  0  0  0  0  0  0  0  0
    8.7518   -0.5478   15.7256 C   0  0  0  0  0  0  0  0  0  0  0  0
    8.8062   -1.8297   15.2427 C   0  0  0  0  0  0  0  0  0  0  0  0
   10.0685   -2.3667   14.8799 C   0  0  0  0  0  0  0  0  0  0  0  0
   11.2036   -1.5839   14.7387 C   0  0  0  0  0  0  0  0  0  0  0  0
   11.0804   -0.2306   14.9453 C   0  0  0  0  0  0  0  0  0  0  0  0
    9.8665    0.2603   15.4330 C   0  0  0  0  0  0  0  0  0  0  0  0
    9.5908    1.5875   15.9835 C   0  0  0  0  0  0  0  0  0  0  0  0
   10.4288    2.8521   15.7050 C   0  0  0  0  0  0  0  0  0  0  0  0
   11.7624    2.6598   15.2649 O   0  0  0  0  0  0  0  0  0  0  0  0
    9.3460    1.1071   17.4847 C   0  0  0  0  0  0  0  0  0  0  0  0
    5.7447   -2.8068   23.6778 H   0  0  0  0  0  0  0  0  0  0  0  0
    4.0542   -2.1910   24.0017 H   0  0  0  0  0  0  0  0  0  0  0  0
    5.4598   -1.5665   24.7891 H   0  0  0  0  0  0  0  0  0  0  0  0
    4.9379   -1.8558   22.2665 H   0  0  0  0  0  0  0  0  0  0  0  0
    5.7512    0.4216   24.4877 H   0  0  0  0  0  0  0  0  0  0  0  0
    4.2377   -0.2709   24.4068 H   0  0  0  0  0  0  0  0  0  0  0  0
    4.6004    3.2079   23.2230 H   0  0  0  0  0  0  0  0  0  0  0  0
    5.0706    3.2356   24.9031 H   0  0  0  0  0  0  0  0  0  0  0  0
    2.4269    3.9142   23.5483 H   0  0  0  0  0  0  0  0  0  0  0  0
    3.3667    4.8579   24.6937 H   0  0  0  0  0  0  0  0  0  0  0  0
    1.6815    4.2011   26.1274 H   0  0  0  0  0  0  0  0  0  0  0  0
    1.2748    2.7926   25.1685 H   0  0  0  0  0  0  0  0  0  0  0  0
    2.2155    2.0466   27.3108 H   0  0  0  0  0  0  0  0  0  0  0  0
    3.6244    3.0761   27.0848 H   0  0  0  0  0  0  0  0  0  0  0  0
    3.0325    0.4050   25.9465 H   0  0  0  0  0  0  0  0  0  0  0  0
    4.5685    1.1394   26.3680 H   0  0  0  0  0  0  0  0  0  0  0  0
    6.5346   -1.8413   20.2213 H   0  0  0  0  0  0  0  0  0  0  0  0
    6.7827   -0.4854   16.8066 H   0  0  0  0  0  0  0  0  0  0  0  0
    7.4816    1.0945   16.4435 H   0  0  0  0  0  0  0  0  0  0  0  0
    7.9460   -2.4813   15.2657 H   0  0  0  0  0  0  0  0  0  0  0  0
   10.1806   -3.4361   14.7310 H   0  0  0  0  0  0  0  0  0  0  0  0
   12.1491   -2.0259   14.4434 H   0  0  0  0  0  0  0  0  0  0  0  0
   11.9621    0.3870   14.8360 H   0  0  0  0  0  0  0  0  0  0  0  0
    8.6609    1.9440   15.5202 H   0  0  0  0  0  0  0  0  0  0  0  0
   10.4077    3.5357   16.5573 H   0  0  0  0  0  0  0  0  0  0  0  0
    9.9420    3.4193   14.8989 H   0  0  0  0  0  0  0  0  0  0  0  0
   11.7095    2.4531   14.3145 H   0  0  0  0  0  0  0  0  0  0  0  0
    8.9441    2.0451   17.9176 H   0  0  0  0  0  0  0  0  0  0  0  0
   10.2731    1.1208   17.9378 H   0  0  0  0  0  0  0  0  0  0  0  0
  1  2  1  0
  2  3  1  0
  3  4  1  0
  4  5  1  0
  5  6  1  0
  6  7  1  0
  7  8  1  0
  8  9  1  0
  2 10  1  0
 10 11  1  0
 11 12  2  0
 11 13  1  0
 13 14  1  0
 14 15  1  0
 15 16  2  0
 16 17  1  0
 17 18  2  0
 18 19  1  0
 19 20  2  0
 20 21  1  0
 21 22  1  0
 22 23  1  0
 21 24  1  0
  9  4  1  0
 24 13  1  0
 20 15  1  0
  1 25  1  0
  1 26  1  0
  1 27  1  0
  2 28  1  0
  3 29  1  0
  3 30  1  0
  5 31  1  0
  5 32  1  0
  6 33  1  0
  6 34  1  0
  7 35  1  0
  7 36  1  0
  8 37  1  0
  8 38  1  0
  9 39  1  0
  9 40  1  0
 10 41  1  0
 14 42  1  0
 14 43  1  0
 16 44  1  0
 17 45  1  0
 18 46  1  0
 19 47  1  0
 21 48  1  0
 22 49  1  0
 22 50  1  0
 23 51  1  0
 24 52  1  0
 24 53  1  0
M  END
>  <Energy>  (364) 
658.13554920170077

>  <compound_id>  (364) 
21330

>  <target_id>  (364) 
1

>  <reference_id>  (364) 
44

>  <inspiration_ids>  (364) 
[146, 44]

>  <energy_score>  (364) 
625.6842816930135

>  <distance_score>  (364) 
5.896362261074949

>  <path>  (364) 
/opt/xchem-fragalysis-2/maxwin/BulkDock/SCRATCH/511013/C21330-P44/C21330-P44.minimised.mol

>  <scratch_subdir>  (364) 
/opt/xchem-fragalysis-2/maxwin/BulkDock/SCRATCH/511013/C21330-P44

>  <fragmenstein_runtime>  (364) 
6.568218946456909

>  <fragmenstein_outcome>  (364) 
too moved

>  <fragmenstein_mode>  (364) 
expansion

>  <fragmenstein_error>  (364) 


$$$$
C21331-P146
     RDKit          3D

 46 49  0  0  0  0  0  0  0  0999 V2000
    8.2615   -0.9382   20.4173 O   0  0  0  0  0  0  0  0  0  0  0  0
    7.2614   -0.5307   20.0799 C   0  0  0  0  0  0  0  0  0  0  0  0
    5.7029   -1.3090   21.4172 C   0  0  0  0  0  0  0  0  0  0  0  0
    4.9636   -1.5612   23.2815 N   0  0  0  0  0  0  0  0  0  0  0  0
    5.2927   -2.5813   24.2269 N   0  0  0  0  0  0  0  0  0  0  0  0
    5.7592   -2.1060   25.3691 N   0  0  0  0  0  0  0  0  0  0  0  0
    5.7808   -0.7685   25.3417 N   0  0  0  0  0  0  0  0  0  0  0  0
    4.7350   -0.4800   24.5779 C   0  0  0  0  0  0  0  0  0  0  0  0
    3.5341   -0.1426   25.3605 N   0  0  0  0  0  0  0  0  0  0  0  0
    3.4611   -0.9147   26.6597 C   0  0  0  0  0  0  0  0  0  0  0  0
    2.2629   -0.5270   27.5324 C   0  0  0  0  0  0  0  0  0  0  0  0
    2.3400    0.9320   27.9375 C   0  0  0  0  0  0  0  0  0  0  0  0
    2.4383    1.8035   26.7042 C   0  0  0  0  0  0  0  0  0  0  0  0
    3.5146    1.3226   25.7159 C   0  0  0  0  0  0  0  0  0  0  0  0
    7.5310    0.6251   18.8427 N   0  0  0  0  0  0  0  0  0  0  0  0
    8.7471    1.2159   18.2741 C   0  0  0  0  0  0  0  0  0  0  0  0
    9.1188    2.0132   17.0095 C   0  0  0  0  0  0  0  0  0  0  0  0
    9.6137    0.9133   16.1149 C   0  0  0  0  0  0  0  0  0  0  0  0
   10.7495    0.9762   15.3101 C   0  0  0  0  0  0  0  0  0  0  0  0
   11.1866   -0.1862   14.6867 C   0  0  0  0  0  0  0  0  0  0  0  0
   10.4159   -1.3449   14.7701 C   0  0  0  0  0  0  0  0  0  0  0  0
    9.1916   -1.3426   15.4477 C   0  0  0  0  0  0  0  0  0  0  0  0
    8.8517   -0.2646   16.2453 C   0  0  0  0  0  0  0  0  0  0  0  0
    7.5490   -0.0885   17.1263 C   0  0  0  0  0  0  0  0  0  0  0  0
    5.5484   -0.0225   21.3860 H   0  0  0  0  0  0  0  0  0  0  0  0
    4.7619   -0.7378   21.7111 H   0  0  0  0  0  0  0  0  0  0  0  0
    3.4203   -1.9910   26.4657 H   0  0  0  0  0  0  0  0  0  0  0  0
    4.3648   -0.7353   27.2590 H   0  0  0  0  0  0  0  0  0  0  0  0
    1.3150   -0.7098   27.0261 H   0  0  0  0  0  0  0  0  0  0  0  0
    2.2610   -1.1505   28.4342 H   0  0  0  0  0  0  0  0  0  0  0  0
    3.2188    1.0927   28.5739 H   0  0  0  0  0  0  0  0  0  0  0  0
    1.4618    1.2106   28.5303 H   0  0  0  0  0  0  0  0  0  0  0  0
    2.6807    2.8293   27.0104 H   0  0  0  0  0  0  0  0  0  0  0  0
    1.4549    1.8813   26.2361 H   0  0  0  0  0  0  0  0  0  0  0  0
    3.3816    1.9101   24.8032 H   0  0  0  0  0  0  0  0  0  0  0  0
    4.4658    1.5767   26.1963 H   0  0  0  0  0  0  0  0  0  0  0  0
    9.4804    0.4643   18.4405 H   0  0  0  0  0  0  0  0  0  0  0  0
    8.9570    1.9465   19.0713 H   0  0  0  0  0  0  0  0  0  0  0  0
    9.9466    2.6966   17.2317 H   0  0  0  0  0  0  0  0  0  0  0  0
    8.2924    2.5889   16.5829 H   0  0  0  0  0  0  0  0  0  0  0  0
   11.3364    1.8880   15.2339 H   0  0  0  0  0  0  0  0  0  0  0  0
   12.1011   -0.1793   14.0993 H   0  0  0  0  0  0  0  0  0  0  0  0
   10.7193   -2.2269   14.2106 H   0  0  0  0  0  0  0  0  0  0  0  0
    8.5136   -2.1764   15.2993 H   0  0  0  0  0  0  0  0  0  0  0  0
    6.6987   -0.7279   16.9272 H   0  0  0  0  0  0  0  0  0  0  0  0
    7.3287    0.7341   16.4321 H   0  0  0  0  0  0  0  0  0  0  0  0
  1  2  2  0
  2  3  1  0
  3  4  1  0
  4  5  1  0
  5  6  2  0
  6  7  1  0
  7  8  2  0
  8  9  1  0
  9 10  1  0
 10 11  1  0
 11 12  1  0
 12 13  1  0
 13 14  1  0
  2 15  1  0
 15 16  1  0
 16 17  1  0
 17 18  1  0
 18 19  2  0
 19 20  1  0
 20 21  2  0
 21 22  1  0
 22 23  2  0
 23 24  1  0
  8  4  1  0
 14  9  1  0
 24 15  1  0
 23 18  1  0
  3 25  1  0
  3 26  1  0
 10 27  1  0
 10 28  1  0
 11 29  1  0
 11 30  1  0
 12 31  1  0
 12 32  1  0
 13 33  1  0
 13 34  1  0
 14 35  1  0
 14 36  1  0
 16 37  1  0
 16 38  1  0
 17 39  1  0
 17 40  1  0
 19 41  1  0
 20 42  1  0
 21 43  1  0
 22 44  1  0
 24 45  1  0
 24 46  1  0
M  END
>  <Energy>  (365) 
727.88096015499309

>  <compound_id>  (365) 
21331

>  <target_id>  (365) 
1

>  <reference_id>  (365) 
146

>  <inspiration_ids>  (365) 
[146, 44]

>  <energy_score>  (365) 
655.5292998947227

>  <distance_score>  (365) 
6.079692268077952

>  <path>  (365) 
/opt/xchem-fragalysis-2/maxwin/BulkDock/SCRATCH/511013/C21331-P146/C21331-P146.minimised.mol

>  <scratch_subdir>  (365) 
/opt/xchem-fragalysis-2/maxwin/BulkDock/SCRATCH/511013/C21331-P146

>  <fragmenstein_runtime>  (365) 
8.851305961608887

>  <fragmenstein_outcome>  (365) 
too moved

>  <fragmenstein_mode>  (365) 
expansion

>  <fragmenstein_error>  (365) 


$$$$
C21331-P44
     RDKit          3D

 46 49  0  0  0  0  0  0  0  0999 V2000
    7.3471   -0.5962   20.2486 O   0  0  0  0  0  0  0  0  0  0  0  0
    6.7337    0.3387   19.7840 C   0  0  0  0  0  0  0  0  0  0  0  0
    4.8743    0.6043   20.8561 C   0  0  0  0  0  0  0  0  0  0  0  0
    4.6802    1.1138   22.7166 N   0  0  0  0  0  0  0  0  0  0  0  0
    5.0035    0.1349   23.7715 N   0  0  0  0  0  0  0  0  0  0  0  0
    4.8578    0.7149   24.9436 N   0  0  0  0  0  0  0  0  0  0  0  0
    4.2595    1.9180   24.8416 N   0  0  0  0  0  0  0  0  0  0  0  0
    3.8826    2.1429   23.5828 C   0  0  0  0  0  0  0  0  0  0  0  0
    2.7926    2.9880   23.3443 N   0  0  0  0  0  0  0  0  0  0  0  0
    2.0360    3.2729   24.6123 C   0  0  0  0  0  0  0  0  0  0  0  0
    0.6620    3.8633   24.3094 C   0  0  0  0  0  0  0  0  0  0  0  0
    0.7631    5.0995   23.4257 C   0  0  0  0  0  0  0  0  0  0  0  0
    2.2131    5.4364   23.0985 C   0  0  0  0  0  0  0  0  0  0  0  0
    2.9771    4.2184   22.5519 C   0  0  0  0  0  0  0  0  0  0  0  0
    7.6592    1.2757   18.5696 N   0  0  0  0  0  0  0  0  0  0  0  0
    8.9742    1.2159   18.1252 C   0  0  0  0  0  0  0  0  0  0  0  0
    9.4396    2.0827   16.8756 C   0  0  0  0  0  0  0  0  0  0  0  0
    9.7396    0.9808   15.9321 C   0  0  0  0  0  0  0  0  0  0  0  0
   10.9345    0.7340   15.2657 C   0  0  0  0  0  0  0  0  0  0  0  0
   11.1611   -0.5522   14.8005 C   0  0  0  0  0  0  0  0  0  0  0  0
   10.1510   -1.5109   14.9106 C   0  0  0  0  0  0  0  0  0  0  0  0
    8.8837   -1.1798   15.4133 C   0  0  0  0  0  0  0  0  0  0  0  0
    8.7113    0.0467   16.0227 C   0  0  0  0  0  0  0  0  0  0  0  0
    7.4464    0.6147   16.8406 C   0  0  0  0  0  0  0  0  0  0  0  0
    4.7632   -0.4136   21.4217 H   0  0  0  0  0  0  0  0  0  0  0  0
    3.8950    1.0571   20.9496 H   0  0  0  0  0  0  0  0  0  0  0  0
    1.8910    2.3753   25.2159 H   0  0  0  0  0  0  0  0  0  0  0  0
    2.6129    3.9606   25.2472 H   0  0  0  0  0  0  0  0  0  0  0  0
    0.0251    3.1213   23.8160 H   0  0  0  0  0  0  0  0  0  0  0  0
    0.1613    4.1198   25.2505 H   0  0  0  0  0  0  0  0  0  0  0  0
    0.2849    5.9550   23.9161 H   0  0  0  0  0  0  0  0  0  0  0  0
    0.2085    4.9261   22.4952 H   0  0  0  0  0  0  0  0  0  0  0  0
    2.7167    5.8216   23.9940 H   0  0  0  0  0  0  0  0  0  0  0  0
    2.2455    6.2466   22.3602 H   0  0  0  0  0  0  0  0  0  0  0  0
    2.5745    4.0393   21.5495 H   0  0  0  0  0  0  0  0  0  0  0  0
    4.0356    4.4942   22.4809 H   0  0  0  0  0  0  0  0  0  0  0  0
    9.4228    0.3186   18.3085 H   0  0  0  0  0  0  0  0  0  0  0  0
    9.3365    1.9114   18.8929 H   0  0  0  0  0  0  0  0  0  0  0  0
   10.2884    2.7257   17.0005 H   0  0  0  0  0  0  0  0  0  0  0  0
    8.6604    2.7652   16.5139 H   0  0  0  0  0  0  0  0  0  0  0  0
   11.7141    1.4855   15.2063 H   0  0  0  0  0  0  0  0  0  0  0  0
   12.1069   -0.8131   14.3347 H   0  0  0  0  0  0  0  0  0  0  0  0
   10.3284   -2.5057   14.5104 H   0  0  0  0  0  0  0  0  0  0  0  0
    8.0792   -1.9016   15.3426 H   0  0  0  0  0  0  0  0  0  0  0  0
    6.7989   -0.2752   16.8835 H   0  0  0  0  0  0  0  0  0  0  0  0
    7.2590    1.4301   16.0939 H   0  0  0  0  0  0  0  0  0  0  0  0
  1  2  2  0
  2  3  1  0
  3  4  1  0
  4  5  1  0
  5  6  2  0
  6  7  1  0
  7  8  2  0
  8  9  1  0
  9 10  1  0
 10 11  1  0
 11 12  1  0
 12 13  1  0
 13 14  1  0
  2 15  1  0
 15 16  1  0
 16 17  1  0
 17 18  1  0
 18 19  2  0
 19 20  1  0
 20 21  2  0
 21 22  1  0
 22 23  2  0
 23 24  1  0
  8  4  1  0
 14  9  1  0
 24 15  1  0
 23 18  1  0
  3 25  1  0
  3 26  1  0
 10 27  1  0
 10 28  1  0
 11 29  1  0
 11 30  1  0
 12 31  1  0
 12 32  1  0
 13 33  1  0
 13 34  1  0
 14 35  1  0
 14 36  1  0
 16 37  1  0
 16 38  1  0
 17 39  1  0
 17 40  1  0
 19 41  1  0
 20 42  1  0
 21 43  1  0
 22 44  1  0
 24 45  1  0
 24 46  1  0
M  END
>  <Energy>  (366) 
524.62091268082793

>  <compound_id>  (366) 
21331

>  <target_id>  (366) 
1

>  <reference_id>  (366) 
44

>  <inspiration_ids>  (366) 
[146, 44]

>  <energy_score>  (366) 
452.26925242056177

>  <distance_score>  (366) 
5.993896246826595

>  <path>  (366) 
/opt/xchem-fragalysis-2/maxwin/BulkDock/SCRATCH/511013/C21331-P44/C21331-P44.minimised.mol

>  <scratch_subdir>  (366) 
/opt/xchem-fragalysis-2/maxwin/BulkDock/SCRATCH/511013/C21331-P44

>  <fragmenstein_runtime>  (366) 
10.344081163406372

>  <fragmenstein_outcome>  (366) 
too moved

>  <fragmenstein_mode>  (366) 
expansion

>  <fragmenstein_error>  (366) 


$$$$
C21332-P146
     RDKit          3D

 52 54  0  0  0  0  0  0  0  0999 V2000
    6.1490   -0.9253   25.0796 C   0  0  0  0  0  0  0  0  0  0  0  0
    5.2994   -1.7551   23.6926 C   0  0  0  0  0  0  0  0  0  0  0  0
    5.8971   -3.3245   24.5184 C   0  0  0  0  0  0  0  0  0  0  0  0
    5.7848   -1.4493   21.5863 C   0  0  0  0  0  0  0  0  0  0  0  0
    6.7848   -0.2163   20.1745 N   0  0  0  0  0  0  0  0  0  0  0  0
    8.2155    0.5996   20.2546 C   0  0  0  0  0  0  0  0  0  0  0  0
    9.0457    0.5996   21.1031 O   0  0  0  0  0  0  0  0  0  0  0  0
    8.1235    1.4598   18.9624 N   0  0  0  0  0  0  0  0  0  0  0  0
    8.9940    2.6075   18.4849 C   0  0  0  0  0  0  0  0  0  0  0  0
    8.7089    3.3414   17.1570 C   0  0  0  0  0  0  0  0  0  0  0  0
    9.2431    2.4597   16.0878 C   0  0  0  0  0  0  0  0  0  0  0  0
    9.8267    2.8656   14.8930 C   0  0  0  0  0  0  0  0  0  0  0  0
   10.3581    1.9083   14.0263 C   0  0  0  0  0  0  0  0  0  0  0  0
   10.2691    0.5528   14.3343 C   0  0  0  0  0  0  0  0  0  0  0  0
    9.6614    0.1529   15.5186 C   0  0  0  0  0  0  0  0  0  0  0  0
    9.1678    1.1206   16.4089 C   0  0  0  0  0  0  0  0  0  0  0  0
    8.7916    0.7598   17.8274 C   0  0  0  0  0  0  0  0  0  0  0  0
    4.0105   -1.4104   24.8597 N   0  0  0  0  0  0  0  0  0  0  0  0
    3.9334   -2.4044   26.0804 C   0  0  0  0  0  0  0  0  0  0  0  0
    3.1112   -2.1087   27.3584 C   0  0  0  0  0  0  0  0  0  0  0  0
    3.2699   -0.6900   27.8342 C   0  0  0  0  0  0  0  0  0  0  0  0
    2.8168    0.1793   26.6943 C   0  0  0  0  0  0  0  0  0  0  0  0
    3.7404    0.0027   25.4555 C   0  0  0  0  0  0  0  0  0  0  0  0
    7.1988   -1.1885   25.3080 H   0  0  0  0  0  0  0  0  0  0  0  0
    5.8216   -1.1457   26.0971 H   0  0  0  0  0  0  0  0  0  0  0  0
    6.0126    0.1235   24.9998 H   0  0  0  0  0  0  0  0  0  0  0  0
    6.5083   -3.9269   23.8372 H   0  0  0  0  0  0  0  0  0  0  0  0
    6.5389   -3.1503   25.3942 H   0  0  0  0  0  0  0  0  0  0  0  0
    5.1220   -3.9916   24.9011 H   0  0  0  0  0  0  0  0  0  0  0  0
    4.9490   -0.7123   21.6863 H   0  0  0  0  0  0  0  0  0  0  0  0
    5.6385   -2.4381   21.0835 H   0  0  0  0  0  0  0  0  0  0  0  0
    6.3502   -0.0582   19.2746 H   0  0  0  0  0  0  0  0  0  0  0  0
   10.0693    2.4497   18.6736 H   0  0  0  0  0  0  0  0  0  0  0  0
    8.7598    3.3582   19.2568 H   0  0  0  0  0  0  0  0  0  0  0  0
    7.6363    3.5149   17.0193 H   0  0  0  0  0  0  0  0  0  0  0  0
    9.2298    4.3051   17.1522 H   0  0  0  0  0  0  0  0  0  0  0  0
    9.9021    3.9212   14.6459 H   0  0  0  0  0  0  0  0  0  0  0  0
   10.8411    2.2209   13.1039 H   0  0  0  0  0  0  0  0  0  0  0  0
   10.6812   -0.1847   13.6513 H   0  0  0  0  0  0  0  0  0  0  0  0
    9.6287   -0.9051   15.7570 H   0  0  0  0  0  0  0  0  0  0  0  0
    8.1107   -0.0450   17.6582 H   0  0  0  0  0  0  0  0  0  0  0  0
    9.7040    0.3894   18.2030 H   0  0  0  0  0  0  0  0  0  0  0  0
    4.9085   -2.6339   26.5095 H   0  0  0  0  0  0  0  0  0  0  0  0
    3.5412   -3.3586   25.7110 H   0  0  0  0  0  0  0  0  0  0  0  0
    3.4426   -2.7913   28.1518 H   0  0  0  0  0  0  0  0  0  0  0  0
    2.0515   -2.3310   27.2198 H   0  0  0  0  0  0  0  0  0  0  0  0
    4.3088   -0.4791   28.1109 H   0  0  0  0  0  0  0  0  0  0  0  0
    2.6514   -0.5148   28.7211 H   0  0  0  0  0  0  0  0  0  0  0  0
    2.8447    1.2310   27.0068 H   0  0  0  0  0  0  0  0  0  0  0  0
    1.7726   -0.0553   26.5122 H   0  0  0  0  0  0  0  0  0  0  0  0
    3.4068    0.7204   24.7177 H   0  0  0  0  0  0  0  0  0  0  0  0
    4.6117    0.4729   25.8994 H   0  0  0  0  0  0  0  0  0  0  0  0
  1  2  1  0
  2  3  1  0
  2  4  1  0
  4  5  1  0
  5  6  1  0
  6  7  2  0
  6  8  1  0
  8  9  1  0
  9 10  1  0
 10 11  1  0
 11 12  2  0
 12 13  1  0
 13 14  2  0
 14 15  1  0
 15 16  2  0
 16 17  1  0
  2 18  1  0
 18 19  1  0
 19 20  1  0
 20 21  1  0
 21 22  1  0
 22 23  1  0
 17  8  1  0
 23 18  1  0
 16 11  1  0
  1 24  1  0
  1 25  1  0
  1 26  1  0
  3 27  1  0
  3 28  1  0
  3 29  1  0
  4 30  1  0
  4 31  1  0
  5 32  1  0
  9 33  1  0
  9 34  1  0
 10 35  1  0
 10 36  1  0
 12 37  1  0
 13 38  1  0
 14 39  1  0
 15 40  1  0
 17 41  1  0
 17 42  1  0
 19 43  1  0
 19 44  1  0
 20 45  1  0
 20 46  1  0
 21 47  1  0
 21 48  1  0
 22 49  1  0
 22 50  1  0
 23 51  1  0
 23 52  1  0
M  END
>  <Energy>  (367) 
557.05090291074714

>  <compound_id>  (367) 
21332

>  <target_id>  (367) 
1

>  <reference_id>  (367) 
146

>  <inspiration_ids>  (367) 
[146, 44]

>  <energy_score>  (367) 
508.18089793735885

>  <distance_score>  (367) 
7.119182128387336

>  <path>  (367) 
/opt/xchem-fragalysis-2/maxwin/BulkDock/SCRATCH/511013/C21332-P146/C21332-P146.minimised.mol

>  <scratch_subdir>  (367) 
/opt/xchem-fragalysis-2/maxwin/BulkDock/SCRATCH/511013/C21332-P146

>  <fragmenstein_runtime>  (367) 
9.198519468307495

>  <fragmenstein_outcome>  (367) 
too moved

>  <fragmenstein_mode>  (367) 
expansion

>  <fragmenstein_error>  (367) 


$$$$
C21332-P44
     RDKit          3D

 52 54  0  0  0  0  0  0  0  0999 V2000
    4.8832    3.3420   23.6761 C   0  0  0  0  0  0  0  0  0  0  0  0
    4.1962    1.9211   23.2720 C   0  0  0  0  0  0  0  0  0  0  0  0
    4.4294    1.0060   24.5830 C   0  0  0  0  0  0  0  0  0  0  0  0
    4.7004    0.7967   21.6507 C   0  0  0  0  0  0  0  0  0  0  0  0
    6.1262    0.4807   20.1219 N   0  0  0  0  0  0  0  0  0  0  0  0
    7.2565    1.6816   19.2543 C   0  0  0  0  0  0  0  0  0  0  0  0
    7.3653    2.7909   19.6030 O   0  0  0  0  0  0  0  0  0  0  0  0
    7.9213    1.1716   17.8871 N   0  0  0  0  0  0  0  0  0  0  0  0
    8.6492    1.9332   16.7810 C   0  0  0  0  0  0  0  0  0  0  0  0
    8.5124    1.4960   15.3528 C   0  0  0  0  0  0  0  0  0  0  0  0
    9.6116    0.5386   15.2930 C   0  0  0  0  0  0  0  0  0  0  0  0
   10.4071    0.4006   14.1443 C   0  0  0  0  0  0  0  0  0  0  0  0
   11.3843   -0.5769   14.0730 C   0  0  0  0  0  0  0  0  0  0  0  0
   11.4966   -1.4593   15.1180 C   0  0  0  0  0  0  0  0  0  0  0  0
   10.7308   -1.2600   16.2801 C   0  0  0  0  0  0  0  0  0  0  0  0
    9.7960   -0.1888   16.4664 C   0  0  0  0  0  0  0  0  0  0  0  0
    9.2199    0.6646   17.9728 C   0  0  0  0  0  0  0  0  0  0  0  0
    2.6594    2.4887   23.4722 N   0  0  0  0  0  0  0  0  0  0  0  0
    2.2481    2.9448   24.8411 C   0  0  0  0  0  0  0  0  0  0  0  0
    0.7427    3.2397   25.0361 C   0  0  0  0  0  0  0  0  0  0  0  0
    0.0584    3.7688   23.7878 C   0  0  0  0  0  0  0  0  0  0  0  0
    1.0735    4.4383   22.8847 C   0  0  0  0  0  0  0  0  0  0  0  0
    2.2386    3.5116   22.4717 C   0  0  0  0  0  0  0  0  0  0  0  0
    4.3951    3.8742   24.4862 H   0  0  0  0  0  0  0  0  0  0  0  0
    4.8733    4.0516   22.8516 H   0  0  0  0  0  0  0  0  0  0  0  0
    5.8696    3.2997   24.1509 H   0  0  0  0  0  0  0  0  0  0  0  0
    5.2025    0.2595   24.4161 H   0  0  0  0  0  0  0  0  0  0  0  0
    3.5427    0.4458   24.8919 H   0  0  0  0  0  0  0  0  0  0  0  0
    4.7433    1.6066   25.4445 H   0  0  0  0  0  0  0  0  0  0  0  0
    4.6922   -0.2873   22.0138 H   0  0  0  0  0  0  0  0  0  0  0  0
    3.7755    0.9698   21.1543 H   0  0  0  0  0  0  0  0  0  0  0  0
    6.2460   -0.4328   19.7204 H   0  0  0  0  0  0  0  0  0  0  0  0
    7.9420    2.7884   16.7667 H   0  0  0  0  0  0  0  0  0  0  0  0
    9.5220    2.5942   16.9838 H   0  0  0  0  0  0  0  0  0  0  0  0
    7.5620    1.0047   15.1446 H   0  0  0  0  0  0  0  0  0  0  0  0
    8.6522    2.3368   14.6654 H   0  0  0  0  0  0  0  0  0  0  0  0
   10.2305    1.0373   13.2807 H   0  0  0  0  0  0  0  0  0  0  0  0
   11.9825   -0.6951   13.1766 H   0  0  0  0  0  0  0  0  0  0  0  0
   12.2189   -2.2710   15.0721 H   0  0  0  0  0  0  0  0  0  0  0  0
   11.0951   -1.9315   17.0415 H   0  0  0  0  0  0  0  0  0  0  0  0
    9.0040    0.0940   18.8710 H   0  0  0  0  0  0  0  0  0  0  0  0
    9.9540    1.4343   18.1835 H   0  0  0  0  0  0  0  0  0  0  0  0
    2.7247    3.8885   25.1177 H   0  0  0  0  0  0  0  0  0  0  0  0
    2.5297    2.2277   25.6157 H   0  0  0  0  0  0  0  0  0  0  0  0
    0.6554    3.9972   25.8274 H   0  0  0  0  0  0  0  0  0  0  0  0
    0.2016    2.3742   25.4240 H   0  0  0  0  0  0  0  0  0  0  0  0
   -0.7292    4.4782   24.0671 H   0  0  0  0  0  0  0  0  0  0  0  0
   -0.4426    2.9575   23.2508 H   0  0  0  0  0  0  0  0  0  0  0  0
    1.4824    5.3159   23.4031 H   0  0  0  0  0  0  0  0  0  0  0  0
    0.5766    4.8148   21.9830 H   0  0  0  0  0  0  0  0  0  0  0  0
    1.9527    3.0020   21.5454 H   0  0  0  0  0  0  0  0  0  0  0  0
    3.0373    4.2036   22.2044 H   0  0  0  0  0  0  0  0  0  0  0  0
  1  2  1  0
  2  3  1  0
  2  4  1  0
  4  5  1  0
  5  6  1  0
  6  7  2  0
  6  8  1  0
  8  9  1  0
  9 10  1  0
 10 11  1  0
 11 12  2  0
 12 13  1  0
 13 14  2  0
 14 15  1  0
 15 16  2  0
 16 17  1  0
  2 18  1  0
 18 19  1  0
 19 20  1  0
 20 21  1  0
 21 22  1  0
 22 23  1  0
 17  8  1  0
 23 18  1  0
 16 11  1  0
  1 24  1  0
  1 25  1  0
  1 26  1  0
  3 27  1  0
  3 28  1  0
  3 29  1  0
  4 30  1  0
  4 31  1  0
  5 32  1  0
  9 33  1  0
  9 34  1  0
 10 35  1  0
 10 36  1  0
 12 37  1  0
 13 38  1  0
 14 39  1  0
 15 40  1  0
 17 41  1  0
 17 42  1  0
 19 43  1  0
 19 44  1  0
 20 45  1  0
 20 46  1  0
 21 47  1  0
 21 48  1  0
 22 49  1  0
 22 50  1  0
 23 51  1  0
 23 52  1  0
M  END
>  <Energy>  (368) 
476.70715102113729

>  <compound_id>  (368) 
21332

>  <target_id>  (368) 
1

>  <reference_id>  (368) 
44

>  <inspiration_ids>  (368) 
[146, 44]

>  <energy_score>  (368) 
427.8371460477499

>  <distance_score>  (368) 
5.771878733023112

>  <path>  (368) 
/opt/xchem-fragalysis-2/maxwin/BulkDock/SCRATCH/511013/C21332-P44/C21332-P44.minimised.mol

>  <scratch_subdir>  (368) 
/opt/xchem-fragalysis-2/maxwin/BulkDock/SCRATCH/511013/C21332-P44

>  <fragmenstein_runtime>  (368) 
7.2297515869140625

>  <fragmenstein_outcome>  (368) 
too moved

>  <fragmenstein_mode>  (368) 
expansion

>  <fragmenstein_error>  (368) 


$$$$
C21333-P146
     RDKit          3D

 52 54  0  0  0  0  0  0  0  0999 V2000
    0.9255   -2.2740   17.4950 C   0  0  0  0  0  0  0  0  0  0  0  0
    1.9413   -1.1194   17.9290 C   0  0  0  0  0  0  0  0  0  0  0  0
    3.6831   -1.8108   17.8937 C   0  0  0  0  0  0  0  0  0  0  0  0
    4.7901   -1.4673   17.0926 N   0  0  0  0  0  0  0  0  0  0  0  0
    6.3718   -0.7900   17.5323 C   0  0  0  0  0  0  0  0  0  0  0  0
    6.7987   -0.5859   18.6334 O   0  0  0  0  0  0  0  0  0  0  0  0
    7.2505   -0.2896   16.0927 N   0  0  0  0  0  0  0  0  0  0  0  0
    8.5176    0.5220   15.9459 C   0  0  0  0  0  0  0  0  0  0  0  0
    9.4954    0.8182   14.8133 C   0  0  0  0  0  0  0  0  0  0  0  0
   10.4426   -0.3057   14.9158 C   0  0  0  0  0  0  0  0  0  0  0  0
   11.8112   -0.1953   14.6367 C   0  0  0  0  0  0  0  0  0  0  0  0
   12.6096   -1.3258   14.6806 C   0  0  0  0  0  0  0  0  0  0  0  0
   12.0118   -2.5528   14.9170 C   0  0  0  0  0  0  0  0  0  0  0  0
   10.6329   -2.6375   15.1539 C   0  0  0  0  0  0  0  0  0  0  0  0
    9.8242   -1.4980   15.2741 C   0  0  0  0  0  0  0  0  0  0  0  0
    8.2620   -1.4819   15.5555 C   0  0  0  0  0  0  0  0  0  0  0  0
    1.1847    0.2004   17.2420 C   0  0  0  0  0  0  0  0  0  0  0  0
    1.1790    1.5922   17.8164 N   0  0  0  0  0  0  0  0  0  0  0  0
   -0.2261    2.0762   17.9575 C   0  0  0  0  0  0  0  0  0  0  0  0
   -0.3045    3.3222   18.8450 C   0  0  0  0  0  0  0  0  0  0  0  0
    0.3947    4.4780   18.1610 C   0  0  0  0  0  0  0  0  0  0  0  0
    1.7696    4.0401   17.6804 C   0  0  0  0  0  0  0  0  0  0  0  0
    1.7516    2.6701   16.9518 C   0  0  0  0  0  0  0  0  0  0  0  0
    0.0395   -2.2381   18.1419 H   0  0  0  0  0  0  0  0  0  0  0  0
    0.5695   -2.1470   16.4682 H   0  0  0  0  0  0  0  0  0  0  0  0
    1.3343   -3.2793   17.5675 H   0  0  0  0  0  0  0  0  0  0  0  0
    1.6923   -1.0183   18.9714 H   0  0  0  0  0  0  0  0  0  0  0  0
    3.4966   -2.8523   17.5733 H   0  0  0  0  0  0  0  0  0  0  0  0
    4.3179   -1.9378   18.6672 H   0  0  0  0  0  0  0  0  0  0  0  0
    4.7437   -1.6021   16.1399 H   0  0  0  0  0  0  0  0  0  0  0  0
    8.1083    1.5263   16.1469 H   0  0  0  0  0  0  0  0  0  0  0  0
    9.0652    0.3724   16.8966 H   0  0  0  0  0  0  0  0  0  0  0  0
    9.0837    0.8786   13.8086 H   0  0  0  0  0  0  0  0  0  0  0  0
   10.0151    1.7613   15.0219 H   0  0  0  0  0  0  0  0  0  0  0  0
   12.2500    0.7688   14.3896 H   0  0  0  0  0  0  0  0  0  0  0  0
   13.6735   -1.2554   14.4762 H   0  0  0  0  0  0  0  0  0  0  0  0
   12.6086   -3.4559   14.8809 H   0  0  0  0  0  0  0  0  0  0  0  0
   10.2215   -3.6380   15.2022 H   0  0  0  0  0  0  0  0  0  0  0  0
    7.9295   -1.4297   14.4994 H   0  0  0  0  0  0  0  0  0  0  0  0
    7.8698   -2.4717   15.7090 H   0  0  0  0  0  0  0  0  0  0  0  0
    0.1276   -0.1008   17.2288 H   0  0  0  0  0  0  0  0  0  0  0  0
    1.3906    0.2345   16.1640 H   0  0  0  0  0  0  0  0  0  0  0  0
   -0.8387    1.2923   18.3506 H   0  0  0  0  0  0  0  0  0  0  0  0
   -0.6810    2.2855   16.9773 H   0  0  0  0  0  0  0  0  0  0  0  0
    0.1728    3.1421   19.8148 H   0  0  0  0  0  0  0  0  0  0  0  0
   -1.3479    3.5921   19.0351 H   0  0  0  0  0  0  0  0  0  0  0  0
   -0.2003    4.8054   17.2993 H   0  0  0  0  0  0  0  0  0  0  0  0
    0.4782    5.3361   18.8367 H   0  0  0  0  0  0  0  0  0  0  0  0
    2.4445    4.0083   18.5423 H   0  0  0  0  0  0  0  0  0  0  0  0
    2.1747    4.8001   17.0016 H   0  0  0  0  0  0  0  0  0  0  0  0
    1.1867    2.7608   16.0130 H   0  0  0  0  0  0  0  0  0  0  0  0
    2.7730    2.4794   16.6362 H   0  0  0  0  0  0  0  0  0  0  0  0
  1  2  1  0
  2  3  1  0
  3  4  1  0
  4  5  1  0
  5  6  2  0
  5  7  1  0
  7  8  1  0
  8  9  1  0
  9 10  1  0
 10 11  2  0
 11 12  1  0
 12 13  2  0
 13 14  1  0
 14 15  2  0
 15 16  1  0
  2 17  1  0
 17 18  1  0
 18 19  1  0
 19 20  1  0
 20 21  1  0
 21 22  1  0
 22 23  1  0
 16  7  1  0
 23 18  1  0
 15 10  1  0
  1 24  1  0
  1 25  1  0
  1 26  1  0
  2 27  1  0
  3 28  1  0
  3 29  1  0
  4 30  1  0
  8 31  1  0
  8 32  1  0
  9 33  1  0
  9 34  1  0
 11 35  1  0
 12 36  1  0
 13 37  1  0
 14 38  1  0
 16 39  1  0
 16 40  1  0
 17 41  1  0
 17 42  1  0
 19 43  1  0
 19 44  1  0
 20 45  1  0
 20 46  1  0
 21 47  1  0
 21 48  1  0
 22 49  1  0
 22 50  1  0
 23 51  1  0
 23 52  1  0
M  END
>  <Energy>  (369) 
252.90584646544596

>  <compound_id>  (369) 
21333

>  <target_id>  (369) 
1

>  <reference_id>  (369) 
146

>  <inspiration_ids>  (369) 
[146, 44]

>  <energy_score>  (369) 
240.6163855567707

>  <distance_score>  (369) 
8.277636526820784

>  <path>  (369) 
/opt/xchem-fragalysis-2/maxwin/BulkDock/SCRATCH/511013/C21333-P146/C21333-P146.minimised.mol

>  <scratch_subdir>  (369) 
/opt/xchem-fragalysis-2/maxwin/BulkDock/SCRATCH/511013/C21333-P146

>  <fragmenstein_runtime>  (369) 
12.114593029022217

>  <fragmenstein_outcome>  (369) 
too moved

>  <fragmenstein_mode>  (369) 
expansion

>  <fragmenstein_error>  (369) 


$$$$
C21333-P44
     RDKit          3D

 52 54  0  0  0  0  0  0  0  0999 V2000
    4.9541    2.3629   25.5747 C   0  0  0  0  0  0  0  0  0  0  0  0
    3.6699    2.0524   24.8016 C   0  0  0  0  0  0  0  0  0  0  0  0
    3.7681    2.4308   23.2772 C   0  0  0  0  0  0  0  0  0  0  0  0
    4.9290    1.9131   22.3656 N   0  0  0  0  0  0  0  0  0  0  0  0
    6.0160    2.8469   20.9742 C   0  0  0  0  0  0  0  0  0  0  0  0
    5.7266    4.0102   20.6653 O   0  0  0  0  0  0  0  0  0  0  0  0
    7.5561    2.1557   20.2319 N   0  0  0  0  0  0  0  0  0  0  0  0
    8.6558    2.8051   19.3614 C   0  0  0  0  0  0  0  0  0  0  0  0
    8.7890    3.4182   17.9656 C   0  0  0  0  0  0  0  0  0  0  0  0
    9.1352    2.2207   17.1750 C   0  0  0  0  0  0  0  0  0  0  0  0
    9.9858    2.2011   16.0584 C   0  0  0  0  0  0  0  0  0  0  0  0
   10.0671    1.0574   15.2802 C   0  0  0  0  0  0  0  0  0  0  0  0
    9.1611    0.0421   15.5260 C   0  0  0  0  0  0  0  0  0  0  0  0
    8.2762    0.1585   16.6089 C   0  0  0  0  0  0  0  0  0  0  0  0
    8.3967    1.1306   17.6040 C   0  0  0  0  0  0  0  0  0  0  0  0
    7.3567    1.4095   18.8459 C   0  0  0  0  0  0  0  0  0  0  0  0
    2.4806    2.8805   25.4092 C   0  0  0  0  0  0  0  0  0  0  0  0
    2.1785    2.7452   26.8478 N   0  0  0  0  0  0  0  0  0  0  0  0
    1.6990    1.4221   27.2669 C   0  0  0  0  0  0  0  0  0  0  0  0
    0.1755    1.3295   27.3549 C   0  0  0  0  0  0  0  0  0  0  0  0
   -0.3716    2.3014   28.3951 C   0  0  0  0  0  0  0  0  0  0  0  0
    0.5129    3.5359   28.5544 C   0  0  0  0  0  0  0  0  0  0  0  0
    1.2748    3.8397   27.2672 C   0  0  0  0  0  0  0  0  0  0  0  0
    5.7283    1.6250   25.3550 H   0  0  0  0  0  0  0  0  0  0  0  0
    4.7959    2.3154   26.6569 H   0  0  0  0  0  0  0  0  0  0  0  0
    5.3377    3.3591   25.3324 H   0  0  0  0  0  0  0  0  0  0  0  0
    3.4753    0.9825   24.9048 H   0  0  0  0  0  0  0  0  0  0  0  0
    3.9184    3.5205   23.2419 H   0  0  0  0  0  0  0  0  0  0  0  0
    2.8285    2.2840   22.7500 H   0  0  0  0  0  0  0  0  0  0  0  0
    5.2181    1.0000   22.4340 H   0  0  0  0  0  0  0  0  0  0  0  0
    8.7650    3.7485   19.9100 H   0  0  0  0  0  0  0  0  0  0  0  0
    9.5860    2.3489   19.6822 H   0  0  0  0  0  0  0  0  0  0  0  0
    7.8757    3.9111   17.6160 H   0  0  0  0  0  0  0  0  0  0  0  0
    9.6052    4.1487   17.9402 H   0  0  0  0  0  0  0  0  0  0  0  0
   10.5588    3.0859   15.7948 H   0  0  0  0  0  0  0  0  0  0  0  0
   10.7159    1.0180   14.4106 H   0  0  0  0  0  0  0  0  0  0  0  0
    9.0458   -0.7649   14.8059 H   0  0  0  0  0  0  0  0  0  0  0  0
    7.3581   -0.4158   16.5382 H   0  0  0  0  0  0  0  0  0  0  0  0
    6.9150    0.4446   19.0696 H   0  0  0  0  0  0  0  0  0  0  0  0
    6.7953    2.2243   18.4087 H   0  0  0  0  0  0  0  0  0  0  0  0
    1.5721    2.7038   24.8218 H   0  0  0  0  0  0  0  0  0  0  0  0
    2.7349    3.9364   25.2334 H   0  0  0  0  0  0  0  0  0  0  0  0
    2.1124    1.2245   28.2652 H   0  0  0  0  0  0  0  0  0  0  0  0
    2.1048    0.6199   26.6460 H   0  0  0  0  0  0  0  0  0  0  0  0
   -0.1313    0.3077   27.6048 H   0  0  0  0  0  0  0  0  0  0  0  0
   -0.2712    1.5647   26.3832 H   0  0  0  0  0  0  0  0  0  0  0  0
   -1.3889    2.5960   28.1116 H   0  0  0  0  0  0  0  0  0  0  0  0
   -0.4485    1.7953   29.3642 H   0  0  0  0  0  0  0  0  0  0  0  0
    1.2272    3.3740   29.3720 H   0  0  0  0  0  0  0  0  0  0  0  0
   -0.1004    4.3960   28.8450 H   0  0  0  0  0  0  0  0  0  0  0  0
    0.5368    4.0572   26.4826 H   0  0  0  0  0  0  0  0  0  0  0  0
    1.8702    4.7494   27.4082 H   0  0  0  0  0  0  0  0  0  0  0  0
  1  2  1  0
  2  3  1  0
  3  4  1  0
  4  5  1  0
  5  6  2  0
  5  7  1  0
  7  8  1  0
  8  9  1  0
  9 10  1  0
 10 11  2  0
 11 12  1  0
 12 13  2  0
 13 14  1  0
 14 15  2  0
 15 16  1  0
  2 17  1  0
 17 18  1  0
 18 19  1  0
 19 20  1  0
 20 21  1  0
 21 22  1  0
 22 23  1  0
 16  7  1  0
 23 18  1  0
 15 10  1  0
  1 24  1  0
  1 25  1  0
  1 26  1  0
  2 27  1  0
  3 28  1  0
  3 29  1  0
  4 30  1  0
  8 31  1  0
  8 32  1  0
  9 33  1  0
  9 34  1  0
 11 35  1  0
 12 36  1  0
 13 37  1  0
 14 38  1  0
 16 39  1  0
 16 40  1  0
 17 41  1  0
 17 42  1  0
 19 43  1  0
 19 44  1  0
 20 45  1  0
 20 46  1  0
 21 47  1  0
 21 48  1  0
 22 49  1  0
 22 50  1  0
 23 51  1  0
 23 52  1  0
M  END
>  <Energy>  (370) 
326.93478828960758

>  <compound_id>  (370) 
21333

>  <target_id>  (370) 
1

>  <reference_id>  (370) 
44

>  <inspiration_ids>  (370) 
[146, 44]

>  <energy_score>  (370) 
314.64532738093516

>  <distance_score>  (370) 
6.132620835532751

>  <path>  (370) 
/opt/xchem-fragalysis-2/maxwin/BulkDock/SCRATCH/511013/C21333-P44/C21333-P44.minimised.mol

>  <scratch_subdir>  (370) 
/opt/xchem-fragalysis-2/maxwin/BulkDock/SCRATCH/511013/C21333-P44

>  <fragmenstein_runtime>  (370) 
8.8734130859375

>  <fragmenstein_outcome>  (370) 
too moved

>  <fragmenstein_mode>  (370) 
expansion

>  <fragmenstein_error>  (370) 


$$$$
C21334-P146
     RDKit          3D

 52 54  0  0  0  0  0  0  0  0999 V2000
    4.4803   -1.6492   24.4818 C   0  0  0  0  0  0  0  0  0  0  0  0
    4.6977   -0.1228   24.6152 C   0  0  0  0  0  0  0  0  0  0  0  0
    5.8194   -0.1705   25.7410 C   0  0  0  0  0  0  0  0  0  0  0  0
    4.8387    0.5562   22.7811 C   0  0  0  0  0  0  0  0  0  0  0  0
    5.7209    0.6639   21.2585 N   0  0  0  0  0  0  0  0  0  0  0  0
    7.4925    1.3361   20.8338 C   0  0  0  0  0  0  0  0  0  0  0  0
    8.3544    1.7029   21.5547 O   0  0  0  0  0  0  0  0  0  0  0  0
    7.6571    1.5241   19.2319 N   0  0  0  0  0  0  0  0  0  0  0  0
    8.6845    2.1996   18.4344 C   0  0  0  0  0  0  0  0  0  0  0  0
    8.5687    2.6671   17.0166 C   0  0  0  0  0  0  0  0  0  0  0  0
    9.2588    1.5308   16.4054 C   0  0  0  0  0  0  0  0  0  0  0  0
   10.2682    1.6771   15.4377 C   0  0  0  0  0  0  0  0  0  0  0  0
   10.9103    0.5569   14.9391 C   0  0  0  0  0  0  0  0  0  0  0  0
   10.3992   -0.6845   15.2718 C   0  0  0  0  0  0  0  0  0  0  0  0
    9.2610   -0.7652   16.1070 C   0  0  0  0  0  0  0  0  0  0  0  0
    8.0286   -1.6075   15.1720 Cl  0  0  0  0  0  0  0  0  0  0  0  0
    8.8498    0.3047   16.9308 C   0  0  0  0  0  0  0  0  0  0  0  0
    8.3007    0.3296   18.6034 C   0  0  0  0  0  0  0  0  0  0  0  0
    3.4270    0.4656   25.4811 N   0  0  0  0  0  0  0  0  0  0  0  0
    3.2018   -0.0520   26.8504 C   0  0  0  0  0  0  0  0  0  0  0  0
    1.8205    0.2798   27.4546 C   0  0  0  0  0  0  0  0  0  0  0  0
    1.3270    1.6939   27.1820 C   0  0  0  0  0  0  0  0  0  0  0  0
    2.4374    2.5699   26.6480 C   0  0  0  0  0  0  0  0  0  0  0  0
    3.2935    1.9407   25.5215 C   0  0  0  0  0  0  0  0  0  0  0  0
    4.1017   -2.1265   25.3874 H   0  0  0  0  0  0  0  0  0  0  0  0
    3.8808   -1.9128   23.6239 H   0  0  0  0  0  0  0  0  0  0  0  0
    5.3987   -2.1917   24.3390 H   0  0  0  0  0  0  0  0  0  0  0  0
    5.4753   -0.7043   26.6355 H   0  0  0  0  0  0  0  0  0  0  0  0
    6.6572   -0.8203   25.4927 H   0  0  0  0  0  0  0  0  0  0  0  0
    6.1808    0.7815   26.1306 H   0  0  0  0  0  0  0  0  0  0  0  0
    5.6696    1.0347   22.6039 H   0  0  0  0  0  0  0  0  0  0  0  0
    4.1290    1.4423   22.7582 H   0  0  0  0  0  0  0  0  0  0  0  0
    5.2562    0.3594   20.4665 H   0  0  0  0  0  0  0  0  0  0  0  0
    8.5638    3.1808   18.9359 H   0  0  0  0  0  0  0  0  0  0  0  0
    9.7179    2.0459   18.7833 H   0  0  0  0  0  0  0  0  0  0  0  0
    9.1188    3.6017   16.8596 H   0  0  0  0  0  0  0  0  0  0  0  0
    7.5446    2.7957   16.6602 H   0  0  0  0  0  0  0  0  0  0  0  0
   10.5797    2.6664   15.1089 H   0  0  0  0  0  0  0  0  0  0  0  0
   11.7093    0.6549   14.2101 H   0  0  0  0  0  0  0  0  0  0  0  0
   10.7151   -1.5443   14.6813 H   0  0  0  0  0  0  0  0  0  0  0  0
    7.4629   -0.3412   18.7090 H   0  0  0  0  0  0  0  0  0  0  0  0
    9.0414   -0.0114   19.3063 H   0  0  0  0  0  0  0  0  0  0  0  0
    3.9523    0.3667   27.5341 H   0  0  0  0  0  0  0  0  0  0  0  0
    3.2948   -1.1385   26.9039 H   0  0  0  0  0  0  0  0  0  0  0  0
    1.0677   -0.4376   27.1171 H   0  0  0  0  0  0  0  0  0  0  0  0
    1.8878    0.1325   28.5406 H   0  0  0  0  0  0  0  0  0  0  0  0
    0.4877    1.6813   26.4806 H   0  0  0  0  0  0  0  0  0  0  0  0
    0.9210    2.1280   28.1038 H   0  0  0  0  0  0  0  0  0  0  0  0
    3.1025    2.8123   27.4891 H   0  0  0  0  0  0  0  0  0  0  0  0
    2.0272    3.5265   26.3033 H   0  0  0  0  0  0  0  0  0  0  0  0
    4.2522    2.4148   25.7099 H   0  0  0  0  0  0  0  0  0  0  0  0
    2.9130    2.2916   24.5570 H   0  0  0  0  0  0  0  0  0  0  0  0
  1  2  1  0
  2  3  1  0
  2  4  1  0
  4  5  1  0
  5  6  1  0
  6  7  2  0
  6  8  1  0
  8  9  1  0
  9 10  1  0
 10 11  1  0
 11 12  2  0
 12 13  1  0
 13 14  2  0
 14 15  1  0
 15 16  1  0
 15 17  2  0
 17 18  1  0
  2 19  1  0
 19 20  1  0
 20 21  1  0
 21 22  1  0
 22 23  1  0
 23 24  1  0
 18  8  1  0
 24 19  1  0
 17 11  1  0
  1 25  1  0
  1 26  1  0
  1 27  1  0
  3 28  1  0
  3 29  1  0
  3 30  1  0
  4 31  1  0
  4 32  1  0
  5 33  1  0
  9 34  1  0
  9 35  1  0
 10 36  1  0
 10 37  1  0
 12 38  1  0
 13 39  1  0
 14 40  1  0
 18 41  1  0
 18 42  1  0
 20 43  1  0
 20 44  1  0
 21 45  1  0
 21 46  1  0
 22 47  1  0
 22 48  1  0
 23 49  1  0
 23 50  1  0
 24 51  1  0
 24 52  1  0
M  END
>  <Energy>  (371) 
446.37536076763689

>  <compound_id>  (371) 
21334

>  <target_id>  (371) 
1

>  <reference_id>  (371) 
146

>  <inspiration_ids>  (371) 
[146, 44]

>  <energy_score>  (371) 
401.88906487917393

>  <distance_score>  (371) 
6.007112139133804

>  <path>  (371) 
/opt/xchem-fragalysis-2/maxwin/BulkDock/SCRATCH/511013/C21334-P146/C21334-P146.minimised.mol

>  <scratch_subdir>  (371) 
/opt/xchem-fragalysis-2/maxwin/BulkDock/SCRATCH/511013/C21334-P146

>  <fragmenstein_runtime>  (371) 
7.873791933059692

>  <fragmenstein_outcome>  (371) 
too moved

>  <fragmenstein_mode>  (371) 
expansion

>  <fragmenstein_error>  (371) 


$$$$
C21334-P44
     RDKit          3D

 52 54  0  0  0  0  0  0  0  0999 V2000
    4.7152   -1.6506   24.8698 C   0  0  0  0  0  0  0  0  0  0  0  0
    5.0123   -0.2038   24.2775 C   0  0  0  0  0  0  0  0  0  0  0  0
    6.1565    0.1890   25.3815 C   0  0  0  0  0  0  0  0  0  0  0  0
    5.2120   -0.7934   22.3722 C   0  0  0  0  0  0  0  0  0  0  0  0
    6.3255   -0.7797   20.6035 N   0  0  0  0  0  0  0  0  0  0  0  0
    7.1993    0.6284   19.6984 C   0  0  0  0  0  0  0  0  0  0  0  0
    7.2960    1.6866   20.1754 O   0  0  0  0  0  0  0  0  0  0  0  0
    7.7076    0.5356   18.0320 N   0  0  0  0  0  0  0  0  0  0  0  0
    8.1555    1.6435   17.0228 C   0  0  0  0  0  0  0  0  0  0  0  0
    9.3145    2.6596   16.9212 C   0  0  0  0  0  0  0  0  0  0  0  0
   10.1782    1.9311   15.9677 C   0  0  0  0  0  0  0  0  0  0  0  0
   11.0594    2.4756   15.0408 C   0  0  0  0  0  0  0  0  0  0  0  0
   11.7811    1.6202   14.2177 C   0  0  0  0  0  0  0  0  0  0  0  0
   11.6132    0.2415   14.3348 C   0  0  0  0  0  0  0  0  0  0  0  0
   10.7300   -0.2969   15.2807 C   0  0  0  0  0  0  0  0  0  0  0  0
   10.7735   -1.9989   15.4193 Cl  0  0  0  0  0  0  0  0  0  0  0  0
    9.9781    0.5583   16.1038 C   0  0  0  0  0  0  0  0  0  0  0  0
    9.0754    0.2197   17.4493 C   0  0  0  0  0  0  0  0  0  0  0  0
    3.8002    0.7244   24.8601 N   0  0  0  0  0  0  0  0  0  0  0  0
    3.5290    0.7140   26.3281 C   0  0  0  0  0  0  0  0  0  0  0  0
    2.3768    1.6067   26.8334 C   0  0  0  0  0  0  0  0  0  0  0  0
    2.4801    3.0263   26.3088 C   0  0  0  0  0  0  0  0  0  0  0  0
    2.7193    3.0259   24.8107 C   0  0  0  0  0  0  0  0  0  0  0  0
    3.9070    2.1327   24.4191 C   0  0  0  0  0  0  0  0  0  0  0  0
    4.3760   -1.6914   25.9044 H   0  0  0  0  0  0  0  0  0  0  0  0
    5.6105   -2.2790   24.8554 H   0  0  0  0  0  0  0  0  0  0  0  0
    3.9986   -2.1538   24.2441 H   0  0  0  0  0  0  0  0  0  0  0  0
    7.1440   -0.2799   25.3101 H   0  0  0  0  0  0  0  0  0  0  0  0
    5.8721   -0.1487   26.3868 H   0  0  0  0  0  0  0  0  0  0  0  0
    6.3086    1.2683   25.4673 H   0  0  0  0  0  0  0  0  0  0  0  0
    4.5385   -0.1681   21.8294 H   0  0  0  0  0  0  0  0  0  0  0  0
    4.8909   -1.8202   22.5481 H   0  0  0  0  0  0  0  0  0  0  0  0
    6.2725   -1.5934   19.9882 H   0  0  0  0  0  0  0  0  0  0  0  0
    7.7222    1.4103   16.0221 H   0  0  0  0  0  0  0  0  0  0  0  0
    7.4855    2.4332   17.4111 H   0  0  0  0  0  0  0  0  0  0  0  0
    8.9683    3.5944   16.4634 H   0  0  0  0  0  0  0  0  0  0  0  0
    9.7111    2.8748   17.9094 H   0  0  0  0  0  0  0  0  0  0  0  0
   11.1778    3.5527   14.9598 H   0  0  0  0  0  0  0  0  0  0  0  0
   12.4707    2.0228   13.4809 H   0  0  0  0  0  0  0  0  0  0  0  0
   12.1904   -0.4172   13.6892 H   0  0  0  0  0  0  0  0  0  0  0  0
    8.8995   -0.7553   17.0187 H   0  0  0  0  0  0  0  0  0  0  0  0
    9.7206    0.5186   18.2212 H   0  0  0  0  0  0  0  0  0  0  0  0
    4.4024    1.0617   26.8879 H   0  0  0  0  0  0  0  0  0  0  0  0
    3.2839   -0.2917   26.6727 H   0  0  0  0  0  0  0  0  0  0  0  0
    1.4036    1.1782   26.5835 H   0  0  0  0  0  0  0  0  0  0  0  0
    2.4049    1.6309   27.9303 H   0  0  0  0  0  0  0  0  0  0  0  0
    1.5712    3.5879   26.5504 H   0  0  0  0  0  0  0  0  0  0  0  0
    3.3128    3.5374   26.8078 H   0  0  0  0  0  0  0  0  0  0  0  0
    2.9179    4.0514   24.4767 H   0  0  0  0  0  0  0  0  0  0  0  0
    1.8135    2.7076   24.2883 H   0  0  0  0  0  0  0  0  0  0  0  0
    4.8085    2.6016   24.8271 H   0  0  0  0  0  0  0  0  0  0  0  0
    3.9766    2.1742   23.3356 H   0  0  0  0  0  0  0  0  0  0  0  0
  1  2  1  0
  2  3  1  0
  2  4  1  0
  4  5  1  0
  5  6  1  0
  6  7  2  0
  6  8  1  0
  8  9  1  0
  9 10  1  0
 10 11  1  0
 11 12  2  0
 12 13  1  0
 13 14  2  0
 14 15  1  0
 15 16  1  0
 15 17  2  0
 17 18  1  0
  2 19  1  0
 19 20  1  0
 20 21  1  0
 21 22  1  0
 22 23  1  0
 23 24  1  0
 18  8  1  0
 24 19  1  0
 17 11  1  0
  1 25  1  0
  1 26  1  0
  1 27  1  0
  3 28  1  0
  3 29  1  0
  3 30  1  0
  4 31  1  0
  4 32  1  0
  5 33  1  0
  9 34  1  0
  9 35  1  0
 10 36  1  0
 10 37  1  0
 12 38  1  0
 13 39  1  0
 14 40  1  0
 18 41  1  0
 18 42  1  0
 20 43  1  0
 20 44  1  0
 21 45  1  0
 21 46  1  0
 22 47  1  0
 22 48  1  0
 23 49  1  0
 23 50  1  0
 24 51  1  0
 24 52  1  0
M  END
>  <Energy>  (372) 
560.32685347588642

>  <compound_id>  (372) 
21334

>  <target_id>  (372) 
1

>  <reference_id>  (372) 
44

>  <inspiration_ids>  (372) 
[146, 44]

>  <energy_score>  (372) 
515.8405575874199

>  <distance_score>  (372) 
6.061230447329309

>  <path>  (372) 
/opt/xchem-fragalysis-2/maxwin/BulkDock/SCRATCH/511013/C21334-P44/C21334-P44.minimised.mol

>  <scratch_subdir>  (372) 
/opt/xchem-fragalysis-2/maxwin/BulkDock/SCRATCH/511013/C21334-P44

>  <fragmenstein_runtime>  (372) 
7.466728687286377

>  <fragmenstein_outcome>  (372) 
too moved

>  <fragmenstein_mode>  (372) 
expansion

>  <fragmenstein_error>  (372) 


$$$$
C21335-P146
     RDKit          3D

 56 58  0  0  0  0  0  0  0  0999 V2000
    4.5658   -1.4530   24.1323 C   0  0  0  0  0  0  0  0  0  0  0  0
    4.8709    0.0977   23.8624 C   0  0  0  0  0  0  0  0  0  0  0  0
    5.4208    0.7559   21.9342 C   0  0  0  0  0  0  0  0  0  0  0  0
    7.1439    1.2048   20.9232 N   0  0  0  0  0  0  0  0  0  0  0  0
    7.9397    2.6612   20.7248 C   0  0  0  0  0  0  0  0  0  0  0  0
    7.6714    3.6988   21.2239 O   0  0  0  0  0  0  0  0  0  0  0  0
    9.0073    2.3175   19.7672 N   0  0  0  0  0  0  0  0  0  0  0  0
   10.1907    3.1904   19.2034 C   0  0  0  0  0  0  0  0  0  0  0  0
   10.6188    3.6533   17.7495 C   0  0  0  0  0  0  0  0  0  0  0  0
   10.3314    2.5507   16.8026 C   0  0  0  0  0  0  0  0  0  0  0  0
   11.0146    2.2290   15.6367 C   0  0  0  0  0  0  0  0  0  0  0  0
   10.7450    1.0128   15.0110 C   0  0  0  0  0  0  0  0  0  0  0  0
    9.7636    0.1694   15.5371 C   0  0  0  0  0  0  0  0  0  0  0  0
    9.5423   -1.1142   15.1240 O   0  0  0  0  0  0  0  0  0  0  0  0
   10.7447   -1.8012   14.7856 C   0  0  0  0  0  0  0  0  0  0  0  0
   10.4452   -3.1194   14.6725 F   0  0  0  0  0  0  0  0  0  0  0  0
   11.6089   -1.7232   15.8335 F   0  0  0  0  0  0  0  0  0  0  0  0
    8.9483    0.6216   16.5769 C   0  0  0  0  0  0  0  0  0  0  0  0
    9.2485    1.8085   17.2296 C   0  0  0  0  0  0  0  0  0  0  0  0
    8.5101    2.4667   18.3804 C   0  0  0  0  0  0  0  0  0  0  0  0
    3.8142    0.8181   25.0620 C   0  0  0  0  0  0  0  0  0  0  0  0
    3.4649    2.2333   25.3881 N   0  0  0  0  0  0  0  0  0  0  0  0
    2.6328    2.9056   24.3857 C   0  0  0  0  0  0  0  0  0  0  0  0
    2.3922    4.3734   24.7440 C   0  0  0  0  0  0  0  0  0  0  0  0
    1.7083    4.4902   26.1011 C   0  0  0  0  0  0  0  0  0  0  0  0
    2.5159    3.7413   27.1516 C   0  0  0  0  0  0  0  0  0  0  0  0
    2.8162    2.3037   26.7183 C   0  0  0  0  0  0  0  0  0  0  0  0
    5.4067   -2.1098   24.0830 H   0  0  0  0  0  0  0  0  0  0  0  0
    3.8288   -1.8858   23.4803 H   0  0  0  0  0  0  0  0  0  0  0  0
    4.2432   -1.5923   25.1713 H   0  0  0  0  0  0  0  0  0  0  0  0
    5.7652    0.0530   24.5077 H   0  0  0  0  0  0  0  0  0  0  0  0
    5.3334   -0.1788   21.4458 H   0  0  0  0  0  0  0  0  0  0  0  0
    4.4439    0.9327   21.5166 H   0  0  0  0  0  0  0  0  0  0  0  0
    7.5551    0.5067   20.2963 H   0  0  0  0  0  0  0  0  0  0  0  0
   11.0751    2.7347   19.6652 H   0  0  0  0  0  0  0  0  0  0  0  0
   10.0859    4.1294   19.7709 H   0  0  0  0  0  0  0  0  0  0  0  0
   10.0579    4.5496   17.4561 H   0  0  0  0  0  0  0  0  0  0  0  0
   11.6808    3.9206   17.7564 H   0  0  0  0  0  0  0  0  0  0  0  0
   11.8207    2.8615   15.2725 H   0  0  0  0  0  0  0  0  0  0  0  0
   11.3401    0.7412   14.1454 H   0  0  0  0  0  0  0  0  0  0  0  0
   11.2188   -1.4571   13.8620 H   0  0  0  0  0  0  0  0  0  0  0  0
    8.0893    0.0450   16.8830 H   0  0  0  0  0  0  0  0  0  0  0  0
    7.5883    1.9354   18.4549 H   0  0  0  0  0  0  0  0  0  0  0  0
    8.1453    3.4865   18.1585 H   0  0  0  0  0  0  0  0  0  0  0  0
    2.9485    0.1733   25.1472 H   0  0  0  0  0  0  0  0  0  0  0  0
    4.3712    0.5170   25.9685 H   0  0  0  0  0  0  0  0  0  0  0  0
    1.6476    2.4540   24.3181 H   0  0  0  0  0  0  0  0  0  0  0  0
    3.0825    2.8547   23.3908 H   0  0  0  0  0  0  0  0  0  0  0  0
    1.7665    4.8433   23.9765 H   0  0  0  0  0  0  0  0  0  0  0  0
    3.3463    4.9149   24.7572 H   0  0  0  0  0  0  0  0  0  0  0  0
    0.6965    4.0708   26.0439 H   0  0  0  0  0  0  0  0  0  0  0  0
    1.6070    5.5438   26.3832 H   0  0  0  0  0  0  0  0  0  0  0  0
    3.4609    4.2707   27.3284 H   0  0  0  0  0  0  0  0  0  0  0  0
    1.9717    3.7349   28.1028 H   0  0  0  0  0  0  0  0  0  0  0  0
    3.4757    1.8623   27.4756 H   0  0  0  0  0  0  0  0  0  0  0  0
    1.8847    1.7243   26.7266 H   0  0  0  0  0  0  0  0  0  0  0  0
  1  2  1  0
  2  3  1  0
  3  4  1  0
  4  5  1  0
  5  6  2  0
  5  7  1  0
  7  8  1  0
  8  9  1  0
  9 10  1  0
 10 11  2  0
 11 12  1  0
 12 13  2  0
 13 14  1  0
 14 15  1  0
 15 16  1  0
 15 17  1  0
 13 18  1  0
 18 19  2  0
 19 20  1  0
  2 21  1  0
 21 22  1  0
 22 23  1  0
 23 24  1  0
 24 25  1  0
 25 26  1  0
 26 27  1  0
 20  7  1  0
 27 22  1  0
 19 10  1  0
  1 28  1  0
  1 29  1  0
  1 30  1  0
  2 31  1  0
  3 32  1  0
  3 33  1  0
  4 34  1  0
  8 35  1  0
  8 36  1  0
  9 37  1  0
  9 38  1  0
 11 39  1  0
 12 40  1  0
 15 41  1  0
 18 42  1  0
 20 43  1  0
 20 44  1  0
 21 45  1  0
 21 46  1  0
 23 47  1  0
 23 48  1  0
 24 49  1  0
 24 50  1  0
 25 51  1  0
 25 52  1  0
 26 53  1  0
 26 54  1  0
 27 55  1  0
 27 56  1  0
M  END
>  <Energy>  (373) 
340.28172371137316

>  <compound_id>  (373) 
21335

>  <target_id>  (373) 
1

>  <reference_id>  (373) 
146

>  <inspiration_ids>  (373) 
[146, 44]

>  <energy_score>  (373) 
322.32893859952026

>  <distance_score>  (373) 
6.086156470303348

>  <path>  (373) 
/opt/xchem-fragalysis-2/maxwin/BulkDock/SCRATCH/511013/C21335-P146/C21335-P146.minimised.mol

>  <scratch_subdir>  (373) 
/opt/xchem-fragalysis-2/maxwin/BulkDock/SCRATCH/511013/C21335-P146

>  <fragmenstein_runtime>  (373) 
11.643219709396362

>  <fragmenstein_outcome>  (373) 
too moved

>  <fragmenstein_mode>  (373) 
expansion

>  <fragmenstein_error>  (373) 


$$$$
C21335-P44
     RDKit          3D

 56 58  0  0  0  0  0  0  0  0999 V2000
    4.6324   -1.1958   24.8745 C   0  0  0  0  0  0  0  0  0  0  0  0
    4.9640   -0.0548   23.8802 C   0  0  0  0  0  0  0  0  0  0  0  0
    5.0969   -0.7807   22.0425 C   0  0  0  0  0  0  0  0  0  0  0  0
    6.5107   -0.8301   20.5366 N   0  0  0  0  0  0  0  0  0  0  0  0
    7.4026    0.5362   19.6574 C   0  0  0  0  0  0  0  0  0  0  0  0
    7.2925    1.6429   19.9736 O   0  0  0  0  0  0  0  0  0  0  0  0
    8.4253    0.1952   18.4508 N   0  0  0  0  0  0  0  0  0  0  0  0
    9.4019    1.0736   17.6746 C   0  0  0  0  0  0  0  0  0  0  0  0
    9.5297    1.8910   16.3292 C   0  0  0  0  0  0  0  0  0  0  0  0
    9.6909    0.7239   15.4196 C   0  0  0  0  0  0  0  0  0  0  0  0
   10.8893    0.4695   14.7488 C   0  0  0  0  0  0  0  0  0  0  0  0
   11.2382   -0.8509   14.5320 C   0  0  0  0  0  0  0  0  0  0  0  0
   10.3265   -1.8569   14.8582 C   0  0  0  0  0  0  0  0  0  0  0  0
   10.6438   -3.1849   14.7424 O   0  0  0  0  0  0  0  0  0  0  0  0
   11.8951   -3.5549   15.3261 C   0  0  0  0  0  0  0  0  0  0  0  0
   12.1056   -2.8626   16.4737 F   0  0  0  0  0  0  0  0  0  0  0  0
   12.8944   -3.2514   14.4610 F   0  0  0  0  0  0  0  0  0  0  0  0
    9.0168   -1.5468   15.2998 C   0  0  0  0  0  0  0  0  0  0  0  0
    8.7499   -0.2708   15.7495 C   0  0  0  0  0  0  0  0  0  0  0  0
    7.7482    0.2085   16.9641 C   0  0  0  0  0  0  0  0  0  0  0  0
    4.2237    1.3966   24.3403 C   0  0  0  0  0  0  0  0  0  0  0  0
    3.1489    1.5524   25.3542 N   0  0  0  0  0  0  0  0  0  0  0  0
    3.5649    1.3958   26.7481 C   0  0  0  0  0  0  0  0  0  0  0  0
    2.3116    1.2393   27.6270 C   0  0  0  0  0  0  0  0  0  0  0  0
    1.1672    2.1801   27.2363 C   0  0  0  0  0  0  0  0  0  0  0  0
    1.6790    3.3493   26.4107 C   0  0  0  0  0  0  0  0  0  0  0  0
    2.5096    2.8882   25.1997 C   0  0  0  0  0  0  0  0  0  0  0  0
    4.4090   -2.1309   24.3763 H   0  0  0  0  0  0  0  0  0  0  0  0
    5.4865   -1.3995   25.5328 H   0  0  0  0  0  0  0  0  0  0  0  0
    3.8034   -0.9475   25.5281 H   0  0  0  0  0  0  0  0  0  0  0  0
    5.8997    0.2476   24.3253 H   0  0  0  0  0  0  0  0  0  0  0  0
    4.4685   -0.0473   21.5638 H   0  0  0  0  0  0  0  0  0  0  0  0
    4.9125   -1.7845   22.4486 H   0  0  0  0  0  0  0  0  0  0  0  0
    6.6704   -1.6868   20.0603 H   0  0  0  0  0  0  0  0  0  0  0  0
    9.5518    1.8838   18.3939 H   0  0  0  0  0  0  0  0  0  0  0  0
   10.1603    0.3918   17.5997 H   0  0  0  0  0  0  0  0  0  0  0  0
    8.6991    2.5575   16.0759 H   0  0  0  0  0  0  0  0  0  0  0  0
   10.4331    2.5044   16.3174 H   0  0  0  0  0  0  0  0  0  0  0  0
   11.6110    1.2598   14.5650 H   0  0  0  0  0  0  0  0  0  0  0  0
   12.2091   -1.0824   14.1073 H   0  0  0  0  0  0  0  0  0  0  0  0
   11.9139   -4.6270   15.5368 H   0  0  0  0  0  0  0  0  0  0  0  0
    8.2784   -2.3317   15.3801 H   0  0  0  0  0  0  0  0  0  0  0  0
    6.8505   -0.4076   16.9065 H   0  0  0  0  0  0  0  0  0  0  0  0
    7.5398    1.2181   16.6398 H   0  0  0  0  0  0  0  0  0  0  0  0
    3.9379    1.9258   23.4237 H   0  0  0  0  0  0  0  0  0  0  0  0
    5.0256    2.0208   24.7637 H   0  0  0  0  0  0  0  0  0  0  0  0
    4.1551    2.2612   27.0792 H   0  0  0  0  0  0  0  0  0  0  0  0
    4.2078    0.5267   26.9087 H   0  0  0  0  0  0  0  0  0  0  0  0
    2.5949    1.4228   28.6705 H   0  0  0  0  0  0  0  0  0  0  0  0
    1.9492    0.2046   27.5810 H   0  0  0  0  0  0  0  0  0  0  0  0
    0.6546    2.5403   28.1354 H   0  0  0  0  0  0  0  0  0  0  0  0
    0.4185    1.6259   26.6588 H   0  0  0  0  0  0  0  0  0  0  0  0
    0.8413    3.9696   26.0726 H   0  0  0  0  0  0  0  0  0  0  0  0
    2.3034    3.9849   27.0520 H   0  0  0  0  0  0  0  0  0  0  0  0
    1.8598    2.8610   24.3176 H   0  0  0  0  0  0  0  0  0  0  0  0
    3.2651    3.6618   25.0052 H   0  0  0  0  0  0  0  0  0  0  0  0
  1  2  1  0
  2  3  1  0
  3  4  1  0
  4  5  1  0
  5  6  2  0
  5  7  1  0
  7  8  1  0
  8  9  1  0
  9 10  1  0
 10 11  2  0
 11 12  1  0
 12 13  2  0
 13 14  1  0
 14 15  1  0
 15 16  1  0
 15 17  1  0
 13 18  1  0
 18 19  2  0
 19 20  1  0
  2 21  1  0
 21 22  1  0
 22 23  1  0
 23 24  1  0
 24 25  1  0
 25 26  1  0
 26 27  1  0
 20  7  1  0
 27 22  1  0
 19 10  1  0
  1 28  1  0
  1 29  1  0
  1 30  1  0
  2 31  1  0
  3 32  1  0
  3 33  1  0
  4 34  1  0
  8 35  1  0
  8 36  1  0
  9 37  1  0
  9 38  1  0
 11 39  1  0
 12 40  1  0
 15 41  1  0
 18 42  1  0
 20 43  1  0
 20 44  1  0
 21 45  1  0
 21 46  1  0
 23 47  1  0
 23 48  1  0
 24 49  1  0
 24 50  1  0
 25 51  1  0
 25 52  1  0
 26 53  1  0
 26 54  1  0
 27 55  1  0
 27 56  1  0
M  END
>  <Energy>  (374) 
430.06571701381296

>  <compound_id>  (374) 
21335

>  <target_id>  (374) 
1

>  <reference_id>  (374) 
44

>  <inspiration_ids>  (374) 
[146, 44]

>  <energy_score>  (374) 
412.11293190195516

>  <distance_score>  (374) 
5.6945058980322605

>  <path>  (374) 
/opt/xchem-fragalysis-2/maxwin/BulkDock/SCRATCH/511013/C21335-P44/C21335-P44.minimised.mol

>  <scratch_subdir>  (374) 
/opt/xchem-fragalysis-2/maxwin/BulkDock/SCRATCH/511013/C21335-P44

>  <fragmenstein_runtime>  (374) 
10.600470542907715

>  <fragmenstein_outcome>  (374) 
too moved

>  <fragmenstein_mode>  (374) 
expansion

>  <fragmenstein_error>  (374) 


$$$$
C21336-P146
     RDKit          3D

 55 57  0  0  0  0  0  0  0  0999 V2000
    2.4151    2.5110   21.5570 C   0  0  0  0  0  0  0  0  0  0  0  0
    3.6327    2.0870   22.6234 C   0  0  0  0  0  0  0  0  0  0  0  0
    5.2654    0.9496   21.8731 C   0  0  0  0  0  0  0  0  0  0  0  0
    7.0625    1.3151   20.9315 N   0  0  0  0  0  0  0  0  0  0  0  0
    7.9323    2.7394   20.7672 C   0  0  0  0  0  0  0  0  0  0  0  0
    7.6832    3.7766   21.2632 O   0  0  0  0  0  0  0  0  0  0  0  0
    8.9610    2.3984   19.8096 N   0  0  0  0  0  0  0  0  0  0  0  0
    8.4318    2.5495   18.4176 C   0  0  0  0  0  0  0  0  0  0  0  0
    8.9731    1.5946   17.3555 C   0  0  0  0  0  0  0  0  0  0  0  0
   10.1812    2.2898   16.8684 C   0  0  0  0  0  0  0  0  0  0  0  0
   10.6127    2.2053   15.5415 C   0  0  0  0  0  0  0  0  0  0  0  0
   11.5663    3.1055   15.0888 C   0  0  0  0  0  0  0  0  0  0  0  0
   12.0711    4.0717   15.9610 C   0  0  0  0  0  0  0  0  0  0  0  0
   11.6734    4.1001   17.3056 C   0  0  0  0  0  0  0  0  0  0  0  0
   10.7487    3.1703   17.7944 C   0  0  0  0  0  0  0  0  0  0  0  0
   10.1484    3.2742   19.2133 C   0  0  0  0  0  0  0  0  0  0  0  0
   11.2064    3.3988   20.3306 C   0  0  0  0  0  0  0  0  0  0  0  0
    3.4562    3.6498   23.4190 C   0  0  0  0  0  0  0  0  0  0  0  0
    2.2120    3.6418   24.2775 N   0  0  0  0  0  0  0  0  0  0  0  0
    1.4952    4.9241   24.2090 C   0  0  0  0  0  0  0  0  0  0  0  0
    0.3842    5.0792   25.2611 C   0  0  0  0  0  0  0  0  0  0  0  0
   -0.0155    3.7494   25.8787 C   0  0  0  0  0  0  0  0  0  0  0  0
    1.2074    3.0657   26.4863 C   0  0  0  0  0  0  0  0  0  0  0  0
    2.4956    3.2816   25.6728 C   0  0  0  0  0  0  0  0  0  0  0  0
    1.5399    2.9530   22.0398 H   0  0  0  0  0  0  0  0  0  0  0  0
    2.1482    1.6831   20.9490 H   0  0  0  0  0  0  0  0  0  0  0  0
    2.6316    3.3432   20.8674 H   0  0  0  0  0  0  0  0  0  0  0  0
    3.3221    1.6328   23.5729 H   0  0  0  0  0  0  0  0  0  0  0  0
    4.8902    0.0876   21.4620 H   0  0  0  0  0  0  0  0  0  0  0  0
    5.1309    0.6577   22.8873 H   0  0  0  0  0  0  0  0  0  0  0  0
    7.4656    0.6013   20.3179 H   0  0  0  0  0  0  0  0  0  0  0  0
    7.4082    2.2536   18.5491 H   0  0  0  0  0  0  0  0  0  0  0  0
    8.2472    3.5904   18.0842 H   0  0  0  0  0  0  0  0  0  0  0  0
    9.1888    0.6065   17.7551 H   0  0  0  0  0  0  0  0  0  0  0  0
    8.2576    1.5013   16.5352 H   0  0  0  0  0  0  0  0  0  0  0  0
   10.1633    1.4998   14.8472 H   0  0  0  0  0  0  0  0  0  0  0  0
   11.9026    3.0742   14.0567 H   0  0  0  0  0  0  0  0  0  0  0  0
   12.8020    4.7901   15.5991 H   0  0  0  0  0  0  0  0  0  0  0  0
   12.0807    4.8760   17.9479 H   0  0  0  0  0  0  0  0  0  0  0  0
    9.7258    4.2992   19.2337 H   0  0  0  0  0  0  0  0  0  0  0  0
   11.6657    2.4462   20.5777 H   0  0  0  0  0  0  0  0  0  0  0  0
   12.0057    4.1008   20.0769 H   0  0  0  0  0  0  0  0  0  0  0  0
   10.7402    3.7626   21.2543 H   0  0  0  0  0  0  0  0  0  0  0  0
    3.3667    4.4032   22.6232 H   0  0  0  0  0  0  0  0  0  0  0  0
    4.2541    4.0572   24.0506 H   0  0  0  0  0  0  0  0  0  0  0  0
    1.0435    5.0161   23.2139 H   0  0  0  0  0  0  0  0  0  0  0  0
    2.1903    5.7671   24.3170 H   0  0  0  0  0  0  0  0  0  0  0  0
   -0.4904    5.5610   24.8092 H   0  0  0  0  0  0  0  0  0  0  0  0
    0.7376    5.7461   26.0580 H   0  0  0  0  0  0  0  0  0  0  0  0
   -0.7845    3.8948   26.6454 H   0  0  0  0  0  0  0  0  0  0  0  0
   -0.4547    3.1055   25.1068 H   0  0  0  0  0  0  0  0  0  0  0  0
    0.9974    1.9965   26.5962 H   0  0  0  0  0  0  0  0  0  0  0  0
    1.3712    3.4503   27.5008 H   0  0  0  0  0  0  0  0  0  0  0  0
    3.0885    2.3612   25.7267 H   0  0  0  0  0  0  0  0  0  0  0  0
    3.0983    4.0663   26.1497 H   0  0  0  0  0  0  0  0  0  0  0  0
  1  2  1  0
  2  3  1  0
  3  4  1  0
  4  5  1  0
  5  6  2  0
  5  7  1  0
  7  8  1  0
  8  9  1  0
  9 10  1  0
 10 11  2  0
 11 12  1  0
 12 13  2  0
 13 14  1  0
 14 15  2  0
 15 16  1  0
 16 17  1  0
  2 18  1  0
 18 19  1  0
 19 20  1  0
 20 21  1  0
 21 22  1  0
 22 23  1  0
 23 24  1  0
 16  7  1  0
 24 19  1  0
 15 10  1  0
  1 25  1  0
  1 26  1  0
  1 27  1  0
  2 28  1  0
  3 29  1  0
  3 30  1  0
  4 31  1  0
  8 32  1  0
  8 33  1  0
  9 34  1  0
  9 35  1  0
 11 36  1  0
 12 37  1  0
 13 38  1  0
 14 39  1  0
 16 40  1  0
 17 41  1  0
 17 42  1  0
 17 43  1  0
 18 44  1  0
 18 45  1  0
 20 46  1  0
 20 47  1  0
 21 48  1  0
 21 49  1  0
 22 50  1  0
 22 51  1  0
 23 52  1  0
 23 53  1  0
 24 54  1  0
 24 55  1  0
M  END
>  <Energy>  (375) 
371.4799545188028

>  <compound_id>  (375) 
21336

>  <target_id>  (375) 
1

>  <reference_id>  (375) 
146

>  <inspiration_ids>  (375) 
[146, 44]

>  <energy_score>  (375) 
328.82391591393707

>  <distance_score>  (375) 
6.800622920876368

>  <path>  (375) 
/opt/xchem-fragalysis-2/maxwin/BulkDock/SCRATCH/511013/C21336-P146/C21336-P146.minimised.mol

>  <scratch_subdir>  (375) 
/opt/xchem-fragalysis-2/maxwin/BulkDock/SCRATCH/511013/C21336-P146

>  <fragmenstein_runtime>  (375) 
10.319491147994995

>  <fragmenstein_outcome>  (375) 
too moved

>  <fragmenstein_mode>  (375) 
expansion

>  <fragmenstein_error>  (375) 


$$$$
C21336-P44
     RDKit          3D

 55 57  0  0  0  0  0  0  0  0999 V2000
    4.4191   -1.8150   23.8260 C   0  0  0  0  0  0  0  0  0  0  0  0
    5.0202   -0.6112   23.1867 C   0  0  0  0  0  0  0  0  0  0  0  0
    5.4904   -0.9580   21.2355 C   0  0  0  0  0  0  0  0  0  0  0  0
    6.5830    0.3006   20.1177 N   0  0  0  0  0  0  0  0  0  0  0  0
    6.9119    0.2933   18.7057 C   0  0  0  0  0  0  0  0  0  0  0  0
    6.6865   -0.5008   17.8789 O   0  0  0  0  0  0  0  0  0  0  0  0
    7.5833    1.7523   18.5818 N   0  0  0  0  0  0  0  0  0  0  0  0
    8.9641    1.6677   18.7506 C   0  0  0  0  0  0  0  0  0  0  0  0
    9.4931    2.9907   19.4157 C   0  0  0  0  0  0  0  0  0  0  0  0
    9.6235    4.0683   18.4100 C   0  0  0  0  0  0  0  0  0  0  0  0
   10.4798    5.1625   18.5228 C   0  0  0  0  0  0  0  0  0  0  0  0
   10.6656    5.9886   17.4221 C   0  0  0  0  0  0  0  0  0  0  0  0
    9.9546    5.7495   16.2471 C   0  0  0  0  0  0  0  0  0  0  0  0
    9.0460    4.6954   16.1783 C   0  0  0  0  0  0  0  0  0  0  0  0
    8.8808    3.8467   17.2745 C   0  0  0  0  0  0  0  0  0  0  0  0
    8.0324    2.5927   17.2307 C   0  0  0  0  0  0  0  0  0  0  0  0
    8.5574    1.7018   16.0582 C   0  0  0  0  0  0  0  0  0  0  0  0
    5.2687    0.1313   24.7985 C   0  0  0  0  0  0  0  0  0  0  0  0
    4.0129    0.6625   25.4506 N   0  0  0  0  0  0  0  0  0  0  0  0
    3.9619    0.4420   26.8945 C   0  0  0  0  0  0  0  0  0  0  0  0
    2.5688    0.7802   27.4481 C   0  0  0  0  0  0  0  0  0  0  0  0
    2.0379    2.1399   26.9947 C   0  0  0  0  0  0  0  0  0  0  0  0
    3.0755    2.9115   26.1967 C   0  0  0  0  0  0  0  0  0  0  0  0
    3.7379    2.0677   25.0935 C   0  0  0  0  0  0  0  0  0  0  0  0
    5.2513   -2.5053   23.9882 H   0  0  0  0  0  0  0  0  0  0  0  0
    3.5585   -2.1772   23.2802 H   0  0  0  0  0  0  0  0  0  0  0  0
    4.1013   -1.7139   24.8610 H   0  0  0  0  0  0  0  0  0  0  0  0
    4.7827    0.4467   23.0055 H   0  0  0  0  0  0  0  0  0  0  0  0
    4.6228   -0.2816   21.3217 H   0  0  0  0  0  0  0  0  0  0  0  0
    5.5925   -2.0276   20.8812 H   0  0  0  0  0  0  0  0  0  0  0  0
    6.8656    1.1994   20.5206 H   0  0  0  0  0  0  0  0  0  0  0  0
    9.5639    1.1607   17.9937 H   0  0  0  0  0  0  0  0  0  0  0  0
    8.9192    0.9626   19.5860 H   0  0  0  0  0  0  0  0  0  0  0  0
   10.3971    2.8585   20.0144 H   0  0  0  0  0  0  0  0  0  0  0  0
    8.7421    3.3706   20.0830 H   0  0  0  0  0  0  0  0  0  0  0  0
   11.0594    5.3180   19.4273 H   0  0  0  0  0  0  0  0  0  0  0  0
   11.3629    6.8194   17.4766 H   0  0  0  0  0  0  0  0  0  0  0  0
   10.0944    6.3988   15.3870 H   0  0  0  0  0  0  0  0  0  0  0  0
    8.4877    4.5311   15.2598 H   0  0  0  0  0  0  0  0  0  0  0  0
    7.0708    3.0090   16.9044 H   0  0  0  0  0  0  0  0  0  0  0  0
    8.3544    2.1848   15.0976 H   0  0  0  0  0  0  0  0  0  0  0  0
    8.1191    0.7020   16.0688 H   0  0  0  0  0  0  0  0  0  0  0  0
    9.6483    1.5798   16.0716 H   0  0  0  0  0  0  0  0  0  0  0  0
    6.0267    0.8942   24.8976 H   0  0  0  0  0  0  0  0  0  0  0  0
    5.6928   -0.6538   25.4490 H   0  0  0  0  0  0  0  0  0  0  0  0
    4.7325    1.0316   27.4073 H   0  0  0  0  0  0  0  0  0  0  0  0
    4.1611   -0.6111   27.1267 H   0  0  0  0  0  0  0  0  0  0  0  0
    2.6089    0.7507   28.5437 H   0  0  0  0  0  0  0  0  0  0  0  0
    1.8549    0.0019   27.1521 H   0  0  0  0  0  0  0  0  0  0  0  0
    1.1329    2.0034   26.3934 H   0  0  0  0  0  0  0  0  0  0  0  0
    1.7294    2.7282   27.8670 H   0  0  0  0  0  0  0  0  0  0  0  0
    3.8532    3.2690   26.8845 H   0  0  0  0  0  0  0  0  0  0  0  0
    2.6197    3.8049   25.7546 H   0  0  0  0  0  0  0  0  0  0  0  0
    4.6565    2.5962   24.8141 H   0  0  0  0  0  0  0  0  0  0  0  0
    3.0952    2.0837   24.2078 H   0  0  0  0  0  0  0  0  0  0  0  0
  1  2  1  0
  2  3  1  0
  3  4  1  0
  4  5  1  0
  5  6  2  0
  5  7  1  0
  7  8  1  0
  8  9  1  0
  9 10  1  0
 10 11  2  0
 11 12  1  0
 12 13  2  0
 13 14  1  0
 14 15  2  0
 15 16  1  0
 16 17  1  0
  2 18  1  0
 18 19  1  0
 19 20  1  0
 20 21  1  0
 21 22  1  0
 22 23  1  0
 23 24  1  0
 16  7  1  0
 24 19  1  0
 15 10  1  0
  1 25  1  0
  1 26  1  0
  1 27  1  0
  2 28  1  0
  3 29  1  0
  3 30  1  0
  4 31  1  0
  8 32  1  0
  8 33  1  0
  9 34  1  0
  9 35  1  0
 11 36  1  0
 12 37  1  0
 13 38  1  0
 14 39  1  0
 16 40  1  0
 17 41  1  0
 17 42  1  0
 17 43  1  0
 18 44  1  0
 18 45  1  0
 20 46  1  0
 20 47  1  0
 21 48  1  0
 21 49  1  0
 22 50  1  0
 22 51  1  0
 23 52  1  0
 23 53  1  0
 24 54  1  0
 24 55  1  0
M  END
>  <Energy>  (376) 
343.94071806959573

>  <compound_id>  (376) 
21336

>  <target_id>  (376) 
1

>  <reference_id>  (376) 
44

>  <inspiration_ids>  (376) 
[146, 44]

>  <energy_score>  (376) 
301.2846794647306

>  <distance_score>  (376) 
7.555859985224688

>  <path>  (376) 
/opt/xchem-fragalysis-2/maxwin/BulkDock/SCRATCH/511013/C21336-P44/C21336-P44.minimised.mol

>  <scratch_subdir>  (376) 
/opt/xchem-fragalysis-2/maxwin/BulkDock/SCRATCH/511013/C21336-P44

>  <fragmenstein_runtime>  (376) 
11.390624284744263

>  <fragmenstein_outcome>  (376) 
too moved

>  <fragmenstein_mode>  (376) 
expansion

>  <fragmenstein_error>  (376) 


$$$$
C21337-P146
     RDKit          3D

 53 55  0  0  0  0  0  0  0  0999 V2000
    5.7764   -0.2469   25.2091 C   0  0  0  0  0  0  0  0  0  0  0  0
    4.8362    0.0875   23.7034 C   0  0  0  0  0  0  0  0  0  0  0  0
    4.3898   -1.5056   23.9621 C   0  0  0  0  0  0  0  0  0  0  0  0
    5.4475    0.1907   21.5931 C   0  0  0  0  0  0  0  0  0  0  0  0
    6.9212    0.3685   20.1137 N   0  0  0  0  0  0  0  0  0  0  0  0
    6.9423   -0.1810   18.4230 C   0  0  0  0  0  0  0  0  0  0  0  0
    6.0882   -0.8916   17.9280 O   0  0  0  0  0  0  0  0  0  0  0  0
    8.0389    0.4756   17.0949 N   0  0  0  0  0  0  0  0  0  0  0  0
    9.1531    0.1009   16.5028 C   0  0  0  0  0  0  0  0  0  0  0  0
   10.0109    1.1093   15.2557 C   0  0  0  0  0  0  0  0  0  0  0  0
   11.1263    0.1787   15.0013 C   0  0  0  0  0  0  0  0  0  0  0  0
   12.2698    0.2788   14.2385 C   0  0  0  0  0  0  0  0  0  0  0  0
   13.2250   -0.7411   14.3421 C   0  0  0  0  0  0  0  0  0  0  0  0
   13.0075   -1.8408   15.1801 C   0  0  0  0  0  0  0  0  0  0  0  0
   14.0248   -2.7333   15.3296 O   0  0  0  0  0  0  0  0  0  0  0  0
   11.8255   -1.9833   15.8928 C   0  0  0  0  0  0  0  0  0  0  0  0
   10.9201   -0.9294   15.8019 C   0  0  0  0  0  0  0  0  0  0  0  0
    9.4858   -0.7481   16.7977 C   0  0  0  0  0  0  0  0  0  0  0  0
    3.6067    1.0402   24.6840 N   0  0  0  0  0  0  0  0  0  0  0  0
    3.4718    0.8917   26.1470 C   0  0  0  0  0  0  0  0  0  0  0  0
    2.4033    1.7612   26.8478 C   0  0  0  0  0  0  0  0  0  0  0  0
    2.4856    3.2405   26.4903 C   0  0  0  0  0  0  0  0  0  0  0  0
    3.2318    3.4938   25.1855 C   0  0  0  0  0  0  0  0  0  0  0  0
    3.0533    2.3287   24.2001 C   0  0  0  0  0  0  0  0  0  0  0  0
    5.1583   -0.6513   26.0181 H   0  0  0  0  0  0  0  0  0  0  0  0
    6.2591    0.5895   25.7204 H   0  0  0  0  0  0  0  0  0  0  0  0
    6.4930   -1.0550   25.1602 H   0  0  0  0  0  0  0  0  0  0  0  0
    3.6345   -1.9210   23.3277 H   0  0  0  0  0  0  0  0  0  0  0  0
    4.0507   -1.6894   24.9827 H   0  0  0  0  0  0  0  0  0  0  0  0
    5.2400   -2.1555   23.8508 H   0  0  0  0  0  0  0  0  0  0  0  0
    5.2597   -0.9127   21.5645 H   0  0  0  0  0  0  0  0  0  0  0  0
    4.5861    0.7467   21.3391 H   0  0  0  0  0  0  0  0  0  0  0  0
    7.6914    1.0149   20.2602 H   0  0  0  0  0  0  0  0  0  0  0  0
    8.3996    0.1785   15.5944 H   0  0  0  0  0  0  0  0  0  0  0  0
    9.5794    1.0107   17.1675 H   0  0  0  0  0  0  0  0  0  0  0  0
   10.3259    2.0638   15.6925 H   0  0  0  0  0  0  0  0  0  0  0  0
    9.3841    1.2715   14.3712 H   0  0  0  0  0  0  0  0  0  0  0  0
   12.4604    1.1495   13.6194 H   0  0  0  0  0  0  0  0  0  0  0  0
   14.1586   -0.6595   13.7915 H   0  0  0  0  0  0  0  0  0  0  0  0
   13.7682   -3.3911   15.9976 H   0  0  0  0  0  0  0  0  0  0  0  0
   11.6608   -2.8352   16.5372 H   0  0  0  0  0  0  0  0  0  0  0  0
    9.3350   -1.7389   17.1235 H   0  0  0  0  0  0  0  0  0  0  0  0
    8.8955   -1.4811   15.8621 H   0  0  0  0  0  0  0  0  0  0  0  0
    3.2296   -0.1452   26.3987 H   0  0  0  0  0  0  0  0  0  0  0  0
    4.4036    1.1818   26.6425 H   0  0  0  0  0  0  0  0  0  0  0  0
    1.3953    1.3945   26.6362 H   0  0  0  0  0  0  0  0  0  0  0  0
    2.5145    1.6512   27.9343 H   0  0  0  0  0  0  0  0  0  0  0  0
    1.4684    3.6453   26.4213 H   0  0  0  0  0  0  0  0  0  0  0  0
    2.9783    3.7965   27.2970 H   0  0  0  0  0  0  0  0  0  0  0  0
    2.8627    4.4215   24.7323 H   0  0  0  0  0  0  0  0  0  0  0  0
    4.2900    3.6653   25.4091 H   0  0  0  0  0  0  0  0  0  0  0  0
    1.9730    2.2596   24.1064 H   0  0  0  0  0  0  0  0  0  0  0  0
    3.3592    2.5927   23.1883 H   0  0  0  0  0  0  0  0  0  0  0  0
  1  2  1  0
  2  3  1  0
  2  4  1  0
  4  5  1  0
  5  6  1  0
  6  7  2  0
  6  8  1  0
  8  9  1  0
  9 10  1  0
 10 11  1  0
 11 12  2  0
 12 13  1  0
 13 14  2  0
 14 15  1  0
 14 16  1  0
 16 17  2  0
 17 18  1  0
  2 19  1  0
 19 20  1  0
 20 21  1  0
 21 22  1  0
 22 23  1  0
 23 24  1  0
 18  8  1  0
 24 19  1  0
 17 11  1  0
  1 25  1  0
  1 26  1  0
  1 27  1  0
  3 28  1  0
  3 29  1  0
  3 30  1  0
  4 31  1  0
  4 32  1  0
  5 33  1  0
  9 34  1  0
  9 35  1  0
 10 36  1  0
 10 37  1  0
 12 38  1  0
 13 39  1  0
 15 40  1  0
 16 41  1  0
 18 42  1  0
 18 43  1  0
 20 44  1  0
 20 45  1  0
 21 46  1  0
 21 47  1  0
 22 48  1  0
 22 49  1  0
 23 50  1  0
 23 51  1  0
 24 52  1  0
 24 53  1  0
M  END
>  <Energy>  (377) 
1202.8054804975591

>  <compound_id>  (377) 
21337

>  <target_id>  (377) 
1

>  <reference_id>  (377) 
146

>  <inspiration_ids>  (377) 
[146, 44]

>  <energy_score>  (377) 
1174.6888394605116

>  <distance_score>  (377) 
5.299875314479657

>  <path>  (377) 
/opt/xchem-fragalysis-2/maxwin/BulkDock/SCRATCH/511013/C21337-P146/C21337-P146.minimised.mol

>  <scratch_subdir>  (377) 
/opt/xchem-fragalysis-2/maxwin/BulkDock/SCRATCH/511013/C21337-P146

>  <fragmenstein_runtime>  (377) 
8.621855020523071

>  <fragmenstein_outcome>  (377) 
too moved

>  <fragmenstein_mode>  (377) 
expansion

>  <fragmenstein_error>  (377) 


$$$$
C21337-P44
     RDKit          3D

 53 55  0  0  0  0  0  0  0  0999 V2000
    4.9881   -2.1251   25.2808 C   0  0  0  0  0  0  0  0  0  0  0  0
    5.0602   -0.6616   24.7141 C   0  0  0  0  0  0  0  0  0  0  0  0
    6.2365   -0.0477   25.5865 C   0  0  0  0  0  0  0  0  0  0  0  0
    5.1451   -0.9675   22.7969 C   0  0  0  0  0  0  0  0  0  0  0  0
    5.9028   -0.9357   20.9129 N   0  0  0  0  0  0  0  0  0  0  0  0
    6.7817    0.4618   19.9325 C   0  0  0  0  0  0  0  0  0  0  0  0
    7.1079    1.5271   20.4553 O   0  0  0  0  0  0  0  0  0  0  0  0
    6.9639    0.5735   18.4968 N   0  0  0  0  0  0  0  0  0  0  0  0
    7.9173    0.3578   17.6451 C   0  0  0  0  0  0  0  0  0  0  0  0
    8.3102    2.2143   17.4993 C   0  0  0  0  0  0  0  0  0  0  0  0
    9.4745    2.0956   16.6158 C   0  0  0  0  0  0  0  0  0  0  0  0
   10.0323    2.8508   15.6101 C   0  0  0  0  0  0  0  0  0  0  0  0
   10.8023    2.1861   14.6422 C   0  0  0  0  0  0  0  0  0  0  0  0
   10.9201    0.7921   14.6666 C   0  0  0  0  0  0  0  0  0  0  0  0
   11.4566    0.1622   13.5826 O   0  0  0  0  0  0  0  0  0  0  0  0
   10.4092    0.0522   15.7208 C   0  0  0  0  0  0  0  0  0  0  0  0
    9.7764    0.7751   16.7540 C   0  0  0  0  0  0  0  0  0  0  0  0
    8.6317    0.0408   18.0595 C   0  0  0  0  0  0  0  0  0  0  0  0
    3.7947    0.0860   25.2893 N   0  0  0  0  0  0  0  0  0  0  0  0
    3.4205   -0.1868   26.7012 C   0  0  0  0  0  0  0  0  0  0  0  0
    2.1858    0.5675   27.2319 C   0  0  0  0  0  0  0  0  0  0  0  0
    2.1932    2.0570   26.9166 C   0  0  0  0  0  0  0  0  0  0  0  0
    3.4753    2.4628   26.2138 C   0  0  0  0  0  0  0  0  0  0  0  0
    3.7787    1.5474   25.0179 C   0  0  0  0  0  0  0  0  0  0  0  0
    4.1089   -2.6755   24.9735 H   0  0  0  0  0  0  0  0  0  0  0  0
    5.0584   -2.1810   26.3724 H   0  0  0  0  0  0  0  0  0  0  0  0
    5.8243   -2.7046   24.9136 H   0  0  0  0  0  0  0  0  0  0  0  0
    7.2125   -0.5313   25.4650 H   0  0  0  0  0  0  0  0  0  0  0  0
    6.0635   -0.1865   26.6592 H   0  0  0  0  0  0  0  0  0  0  0  0
    6.3568    1.0280   25.4653 H   0  0  0  0  0  0  0  0  0  0  0  0
    4.8753    0.0776   22.7411 H   0  0  0  0  0  0  0  0  0  0  0  0
    4.3966   -1.7358   22.8272 H   0  0  0  0  0  0  0  0  0  0  0  0
    5.8036   -1.7579   20.3086 H   0  0  0  0  0  0  0  0  0  0  0  0
    7.7005    0.6000   16.4613 H   0  0  0  0  0  0  0  0  0  0  0  0
    7.0802   -0.2711   17.0377 H   0  0  0  0  0  0  0  0  0  0  0  0
    8.5682    2.6052   18.4919 H   0  0  0  0  0  0  0  0  0  0  0  0
    7.4882    2.7769   17.0509 H   0  0  0  0  0  0  0  0  0  0  0  0
    9.7928    3.9037   15.5022 H   0  0  0  0  0  0  0  0  0  0  0  0
   11.2076    2.7451   13.8030 H   0  0  0  0  0  0  0  0  0  0  0  0
   10.8185   -0.5389   13.3254 H   0  0  0  0  0  0  0  0  0  0  0  0
   10.4846   -1.0286   15.7165 H   0  0  0  0  0  0  0  0  0  0  0  0
    9.1147    0.1584   19.0748 H   0  0  0  0  0  0  0  0  0  0  0  0
    8.8939   -0.9474   17.1804 H   0  0  0  0  0  0  0  0  0  0  0  0
    3.2057   -1.2488   26.8483 H   0  0  0  0  0  0  0  0  0  0  0  0
    4.2417    0.0594   27.3809 H   0  0  0  0  0  0  0  0  0  0  0  0
    1.2625    0.1138   26.8620 H   0  0  0  0  0  0  0  0  0  0  0  0
    2.1479    0.4358   28.3212 H   0  0  0  0  0  0  0  0  0  0  0  0
    1.3317    2.3040   26.2851 H   0  0  0  0  0  0  0  0  0  0  0  0
    2.0717    2.6391   27.8374 H   0  0  0  0  0  0  0  0  0  0  0  0
    3.3916    3.5001   25.8688 H   0  0  0  0  0  0  0  0  0  0  0  0
    4.3141    2.4367   26.9208 H   0  0  0  0  0  0  0  0  0  0  0  0
    3.0252    1.7656   24.2569 H   0  0  0  0  0  0  0  0  0  0  0  0
    4.7106    1.8970   24.5886 H   0  0  0  0  0  0  0  0  0  0  0  0
  1  2  1  0
  2  3  1  0
  2  4  1  0
  4  5  1  0
  5  6  1  0
  6  7  2  0
  6  8  1  0
  8  9  1  0
  9 10  1  0
 10 11  1  0
 11 12  2  0
 12 13  1  0
 13 14  2  0
 14 15  1  0
 14 16  1  0
 16 17  2  0
 17 18  1  0
  2 19  1  0
 19 20  1  0
 20 21  1  0
 21 22  1  0
 22 23  1  0
 23 24  1  0
 18  8  1  0
 24 19  1  0
 17 11  1  0
  1 25  1  0
  1 26  1  0
  1 27  1  0
  3 28  1  0
  3 29  1  0
  3 30  1  0
  4 31  1  0
  4 32  1  0
  5 33  1  0
  9 34  1  0
  9 35  1  0
 10 36  1  0
 10 37  1  0
 12 38  1  0
 13 39  1  0
 15 40  1  0
 16 41  1  0
 18 42  1  0
 18 43  1  0
 20 44  1  0
 20 45  1  0
 21 46  1  0
 21 47  1  0
 22 48  1  0
 22 49  1  0
 23 50  1  0
 23 51  1  0
 24 52  1  0
 24 53  1  0
M  END
>  <Energy>  (378) 
1015.2871759910896

>  <compound_id>  (378) 
21337

>  <target_id>  (378) 
1

>  <reference_id>  (378) 
44

>  <inspiration_ids>  (378) 
[146, 44]

>  <energy_score>  (378) 
987.1705349540613

>  <distance_score>  (378) 
6.396580241739204

>  <path>  (378) 
/opt/xchem-fragalysis-2/maxwin/BulkDock/SCRATCH/511013/C21337-P44/C21337-P44.minimised.mol

>  <scratch_subdir>  (378) 
/opt/xchem-fragalysis-2/maxwin/BulkDock/SCRATCH/511013/C21337-P44

>  <fragmenstein_runtime>  (378) 
9.159105062484741

>  <fragmenstein_outcome>  (378) 
too moved

>  <fragmenstein_mode>  (378) 
expansion

>  <fragmenstein_error>  (378) 


$$$$
C21338-P146
     RDKit          3D

 45 47  0  0  0  0  0  0  0  0999 V2000
    7.7420    4.3932   20.6788 C   0  0  0  0  0  0  0  0  0  0  0  0
    8.7931    3.9694   19.8480 C   0  0  0  0  0  0  0  0  0  0  0  0
    8.5531    3.0574   18.8232 C   0  0  0  0  0  0  0  0  0  0  0  0
    7.2531    2.5392   18.6755 C   0  0  0  0  0  0  0  0  0  0  0  0
    6.2026    2.9837   19.5190 C   0  0  0  0  0  0  0  0  0  0  0  0
    6.4171    3.9265   20.5262 C   0  0  0  0  0  0  0  0  0  0  0  0
    5.3156    4.5155   21.4316 C   0  0  0  0  0  0  0  0  0  0  0  0
    3.9386    3.8042   21.7218 C   0  0  0  0  0  0  0  0  0  0  0  0
    3.2473    4.4082   22.9970 C   0  0  0  0  0  0  0  0  0  0  0  0
    1.9754    3.7731   23.4044 N   0  0  0  0  0  0  0  0  0  0  0  0
    0.8057    4.3898   22.7565 C   0  0  0  0  0  0  0  0  0  0  0  0
    0.0826    5.4206   23.6269 C   0  0  0  0  0  0  0  0  0  0  0  0
   -0.4392    4.8048   24.9231 C   0  0  0  0  0  0  0  0  0  0  0  0
    0.4072    3.6183   25.3710 C   0  0  0  0  0  0  0  0  0  0  0  0
    1.8508    3.7443   24.8796 C   0  0  0  0  0  0  0  0  0  0  0  0
    6.9871    1.4925   17.6246 C   0  0  0  0  0  0  0  0  0  0  0  0
    7.8748    1.6346   16.4661 N   0  0  0  0  0  0  0  0  0  0  0  0
    9.2730    1.5798   16.8916 C   0  0  0  0  0  0  0  0  0  0  0  0
    9.6277    2.7598   17.8010 C   0  0  0  0  0  0  0  0  0  0  0  0
    7.9617    5.1329   21.4482 H   0  0  0  0  0  0  0  0  0  0  0  0
    9.7818    4.4014   19.9843 H   0  0  0  0  0  0  0  0  0  0  0  0
    5.1980    2.6134   19.3690 H   0  0  0  0  0  0  0  0  0  0  0  0
    5.7917    4.6923   22.4054 H   0  0  0  0  0  0  0  0  0  0  0  0
    5.0834    5.5094   21.0254 H   0  0  0  0  0  0  0  0  0  0  0  0
    3.2857    3.9359   20.8506 H   0  0  0  0  0  0  0  0  0  0  0  0
    4.0810    2.7259   21.8371 H   0  0  0  0  0  0  0  0  0  0  0  0
    3.1010    5.4864   22.8448 H   0  0  0  0  0  0  0  0  0  0  0  0
    3.9649    4.3450   23.8224 H   0  0  0  0  0  0  0  0  0  0  0  0
    1.0778    4.8403   21.7940 H   0  0  0  0  0  0  0  0  0  0  0  0
    0.0948    3.5914   22.5088 H   0  0  0  0  0  0  0  0  0  0  0  0
    0.7698    6.2434   23.8623 H   0  0  0  0  0  0  0  0  0  0  0  0
   -0.7513    5.8643   23.0710 H   0  0  0  0  0  0  0  0  0  0  0  0
   -0.4546    5.5751   25.7032 H   0  0  0  0  0  0  0  0  0  0  0  0
   -1.4773    4.4756   24.7943 H   0  0  0  0  0  0  0  0  0  0  0  0
    0.3830    3.5356   26.4634 H   0  0  0  0  0  0  0  0  0  0  0  0
   -0.0384    2.7003   24.9804 H   0  0  0  0  0  0  0  0  0  0  0  0
    2.2740    4.6572   25.3212 H   0  0  0  0  0  0  0  0  0  0  0  0
    2.4380    2.9007   25.2605 H   0  0  0  0  0  0  0  0  0  0  0  0
    7.0932    0.4987   18.0713 H   0  0  0  0  0  0  0  0  0  0  0  0
    5.9536    1.5787   17.2705 H   0  0  0  0  0  0  0  0  0  0  0  0
    7.7130    2.5615   16.0651 H   0  0  0  0  0  0  0  0  0  0  0  0
    9.9261    1.5826   16.0122 H   0  0  0  0  0  0  0  0  0  0  0  0
    9.4416    0.6327   17.4082 H   0  0  0  0  0  0  0  0  0  0  0  0
    9.7485    3.6581   17.1812 H   0  0  0  0  0  0  0  0  0  0  0  0
   10.5828    2.5787   18.3008 H   0  0  0  0  0  0  0  0  0  0  0  0
  1  2  2  0
  2  3  1  0
  3  4  2  0
  4  5  1  0
  5  6  2  0
  6  7  1  0
  7  8  1  0
  8  9  1  0
  9 10  1  0
 10 11  1  0
 11 12  1  0
 12 13  1  0
 13 14  1  0
 14 15  1  0
  4 16  1  0
 16 17  1  0
 17 18  1  0
 18 19  1  0
  6  1  1  0
 15 10  1  0
 19  3  1  0
  1 20  1  0
  2 21  1  0
  5 22  1  0
  7 23  1  0
  7 24  1  0
  8 25  1  0
  8 26  1  0
  9 27  1  0
  9 28  1  0
 11 29  1  0
 11 30  1  0
 12 31  1  0
 12 32  1  0
 13 33  1  0
 13 34  1  0
 14 35  1  0
 14 36  1  0
 15 37  1  0
 15 38  1  0
 16 39  1  0
 16 40  1  0
 17 41  1  0
 18 42  1  0
 18 43  1  0
 19 44  1  0
 19 45  1  0
M  END
>  <Energy>  (379) 
52.086002366311547

>  <compound_id>  (379) 
21338

>  <target_id>  (379) 
1

>  <reference_id>  (379) 
146

>  <inspiration_ids>  (379) 
[146, 44]

>  <energy_score>  (379) 
-14.052980959911338

>  <distance_score>  (379) 
7.6915606135195205

>  <path>  (379) 
/opt/xchem-fragalysis-2/maxwin/BulkDock/SCRATCH/511013/C21338-P146/C21338-P146.minimised.mol

>  <scratch_subdir>  (379) 
/opt/xchem-fragalysis-2/maxwin/BulkDock/SCRATCH/511013/C21338-P146

>  <fragmenstein_runtime>  (379) 
6.716341495513916

>  <fragmenstein_outcome>  (379) 
too moved

>  <fragmenstein_mode>  (379) 
expansion

>  <fragmenstein_error>  (379) 


$$$$
C21338-P44
     RDKit          3D

 45 47  0  0  0  0  0  0  0  0999 V2000
   11.2412   -4.3089   22.0267 C   0  0  0  0  0  0  0  0  0  0  0  0
   12.6625   -4.2177   22.0887 C   0  0  0  0  0  0  0  0  0  0  0  0
   13.3573   -4.4911   20.9581 C   0  0  0  0  0  0  0  0  0  0  0  0
   12.5811   -5.0304   19.9501 C   0  0  0  0  0  0  0  0  0  0  0  0
   11.1104   -5.5282   20.1304 C   0  0  0  0  0  0  0  0  0  0  0  0
   10.1415   -5.0162   20.9948 C   0  0  0  0  0  0  0  0  0  0  0  0
    8.1740   -4.2172   20.8214 C   0  0  0  0  0  0  0  0  0  0  0  0
    6.7931   -3.3626   22.1006 C   0  0  0  0  0  0  0  0  0  0  0  0
    5.8099   -2.7875   23.7704 C   0  0  0  0  0  0  0  0  0  0  0  0
    4.9211   -3.2243   24.9856 N   0  0  0  0  0  0  0  0  0  0  0  0
    4.7706   -2.0528   25.9187 C   0  0  0  0  0  0  0  0  0  0  0  0
    4.2484   -2.3796   27.3218 C   0  0  0  0  0  0  0  0  0  0  0  0
    3.5413   -3.7165   27.4098 C   0  0  0  0  0  0  0  0  0  0  0  0
    4.2852   -4.8387   26.6784 C   0  0  0  0  0  0  0  0  0  0  0  0
    5.4046   -4.3718   25.7323 C   0  0  0  0  0  0  0  0  0  0  0  0
   13.0570   -4.6568   18.5252 C   0  0  0  0  0  0  0  0  0  0  0  0
   13.9026   -3.4439   18.4393 N   0  0  0  0  0  0  0  0  0  0  0  0
   15.0910   -3.6998   19.2557 C   0  0  0  0  0  0  0  0  0  0  0  0
   14.7300   -3.9134   20.7327 C   0  0  0  0  0  0  0  0  0  0  0  0
   10.9065   -3.7062   22.8879 H   0  0  0  0  0  0  0  0  0  0  0  0
   13.1234   -3.6876   22.9190 H   0  0  0  0  0  0  0  0  0  0  0  0
   10.6250   -5.5818   19.1424 H   0  0  0  0  0  0  0  0  0  0  0  0
    7.5453   -4.8893   21.3867 H   0  0  0  0  0  0  0  0  0  0  0  0
    7.6192   -4.4534   19.9335 H   0  0  0  0  0  0  0  0  0  0  0  0
    6.0692   -2.9741   21.3012 H   0  0  0  0  0  0  0  0  0  0  0  0
    6.7065   -4.3227   22.7287 H   0  0  0  0  0  0  0  0  0  0  0  0
    6.4481   -2.2646   24.4615 H   0  0  0  0  0  0  0  0  0  0  0  0
    5.1059   -2.0343   23.3527 H   0  0  0  0  0  0  0  0  0  0  0  0
    5.7334   -1.5500   26.0879 H   0  0  0  0  0  0  0  0  0  0  0  0
    4.1411   -1.2922   25.4480 H   0  0  0  0  0  0  0  0  0  0  0  0
    3.5888   -1.5785   27.6746 H   0  0  0  0  0  0  0  0  0  0  0  0
    5.1020   -2.4052   28.0123 H   0  0  0  0  0  0  0  0  0  0  0  0
    3.3974   -3.9942   28.4609 H   0  0  0  0  0  0  0  0  0  0  0  0
    2.5373   -3.6222   26.9989 H   0  0  0  0  0  0  0  0  0  0  0  0
    4.7226   -5.5223   27.4165 H   0  0  0  0  0  0  0  0  0  0  0  0
    3.5526   -5.4322   26.1165 H   0  0  0  0  0  0  0  0  0  0  0  0
    6.3071   -4.1295   26.3074 H   0  0  0  0  0  0  0  0  0  0  0  0
    5.6623   -5.2012   25.0643 H   0  0  0  0  0  0  0  0  0  0  0  0
   13.6461   -5.4801   18.1716 H   0  0  0  0  0  0  0  0  0  0  0  0
   12.2117   -4.4957   17.8508 H   0  0  0  0  0  0  0  0  0  0  0  0
   14.1910   -3.3546   17.4667 H   0  0  0  0  0  0  0  0  0  0  0  0
   15.7856   -2.8564   19.1700 H   0  0  0  0  0  0  0  0  0  0  0  0
   15.6301   -4.5770   18.8742 H   0  0  0  0  0  0  0  0  0  0  0  0
   14.7745   -2.9341   21.2283 H   0  0  0  0  0  0  0  0  0  0  0  0
   15.4778   -4.5566   21.2107 H   0  0  0  0  0  0  0  0  0  0  0  0
  1  2  2  0
  2  3  1  0
  3  4  2  0
  4  5  1  0
  5  6  2  0
  6  7  1  0
  7  8  1  0
  8  9  1  0
  9 10  1  0
 10 11  1  0
 11 12  1  0
 12 13  1  0
 13 14  1  0
 14 15  1  0
  4 16  1  0
 16 17  1  0
 17 18  1  0
 18 19  1  0
  6  1  1  0
 15 10  1  0
 19  3  1  0
  1 20  1  0
  2 21  1  0
  5 22  1  0
  7 23  1  0
  7 24  1  0
  8 25  1  0
  8 26  1  0
  9 27  1  0
  9 28  1  0
 11 29  1  0
 11 30  1  0
 12 31  1  0
 12 32  1  0
 13 33  1  0
 13 34  1  0
 14 35  1  0
 14 36  1  0
 15 37  1  0
 15 38  1  0
 16 39  1  0
 16 40  1  0
 17 41  1  0
 18 42  1  0
 18 43  1  0
 19 44  1  0
 19 45  1  0
M  END
>  <Energy>  (380) 
535.08572341887714

>  <compound_id>  (380) 
21338

>  <target_id>  (380) 
1

>  <reference_id>  (380) 
44

>  <inspiration_ids>  (380) 
[146, 44]

>  <energy_score>  (380) 
468.94674009265253

>  <distance_score>  (380) 
7.631555508694773

>  <path>  (380) 
/opt/xchem-fragalysis-2/maxwin/BulkDock/SCRATCH/511013/C21338-P44/C21338-P44.minimised.mol

>  <scratch_subdir>  (380) 
/opt/xchem-fragalysis-2/maxwin/BulkDock/SCRATCH/511013/C21338-P44

>  <fragmenstein_runtime>  (380) 
9.114670038223267

>  <fragmenstein_outcome>  (380) 
too moved

>  <fragmenstein_mode>  (380) 
expansion

>  <fragmenstein_error>  (380) 


$$$$
C21339-P146
     RDKit          3D

 49 51  0  0  0  0  0  0  0  0999 V2000
    3.8176    1.0091   24.5879 C   0  0  0  0  0  0  0  0  0  0  0  0
    3.8697    1.7642   22.9363 C   0  0  0  0  0  0  0  0  0  0  0  0
    3.2283    3.3486   23.3017 C   0  0  0  0  0  0  0  0  0  0  0  0
    1.8717    3.3434   23.9522 N   0  0  0  0  0  0  0  0  0  0  0  0
    1.8997    3.6783   25.3834 C   0  0  0  0  0  0  0  0  0  0  0  0
    0.5410    3.3827   26.0405 C   0  0  0  0  0  0  0  0  0  0  0  0
   -0.6487    3.7176   25.1429 C   0  0  0  0  0  0  0  0  0  0  0  0
   -0.2534    4.7407   24.0931 C   0  0  0  0  0  0  0  0  0  0  0  0
    0.9563    4.2786   23.2601 C   0  0  0  0  0  0  0  0  0  0  0  0
    5.4677    1.4919   21.8190 N   0  0  0  0  0  0  0  0  0  0  0  0
    6.6013    2.8849   20.9972 C   0  0  0  0  0  0  0  0  0  0  0  0
    6.5587    4.1039   21.1109 O   0  0  0  0  0  0  0  0  0  0  0  0
    7.9083    2.4071   20.0557 C   0  0  0  0  0  0  0  0  0  0  0  0
    9.2803    2.9041   20.5499 C   0  0  0  0  0  0  0  0  0  0  0  0
   10.1553    3.1777   19.3362 C   0  0  0  0  0  0  0  0  0  0  0  0
   11.1831    4.1205   19.3879 C   0  0  0  0  0  0  0  0  0  0  0  0
   11.8521    4.4827   18.2204 C   0  0  0  0  0  0  0  0  0  0  0  0
   11.5063    3.8989   17.0024 C   0  0  0  0  0  0  0  0  0  0  0  0
   10.5388    2.8995   16.9533 C   0  0  0  0  0  0  0  0  0  0  0  0
    9.8735    2.5168   18.1225 C   0  0  0  0  0  0  0  0  0  0  0  0
    8.7847    1.4715   18.0395 C   0  0  0  0  0  0  0  0  0  0  0  0
    8.1218    1.1093   19.3464 N   0  0  0  0  0  0  0  0  0  0  0  0
    4.5210    0.1623   24.6586 H   0  0  0  0  0  0  0  0  0  0  0  0
    2.8798    0.6003   24.8760 H   0  0  0  0  0  0  0  0  0  0  0  0
    4.0074    1.7409   25.3802 H   0  0  0  0  0  0  0  0  0  0  0  0
    3.0820    1.6799   22.1572 H   0  0  0  0  0  0  0  0  0  0  0  0
    3.9010    3.9681   23.9072 H   0  0  0  0  0  0  0  0  0  0  0  0
    3.1594    3.8751   22.3426 H   0  0  0  0  0  0  0  0  0  0  0  0
    2.1603    4.7366   25.5219 H   0  0  0  0  0  0  0  0  0  0  0  0
    2.6549    3.1134   25.9309 H   0  0  0  0  0  0  0  0  0  0  0  0
    0.4806    2.3285   26.3348 H   0  0  0  0  0  0  0  0  0  0  0  0
    0.4732    3.9646   26.9680 H   0  0  0  0  0  0  0  0  0  0  0  0
   -1.4852    4.0857   25.7474 H   0  0  0  0  0  0  0  0  0  0  0  0
   -1.0029    2.8102   24.6417 H   0  0  0  0  0  0  0  0  0  0  0  0
   -1.1006    4.9478   23.4294 H   0  0  0  0  0  0  0  0  0  0  0  0
   -0.0072    5.6858   24.5943 H   0  0  0  0  0  0  0  0  0  0  0  0
    0.5926    3.7848   22.3510 H   0  0  0  0  0  0  0  0  0  0  0  0
    1.4866    5.1846   22.9375 H   0  0  0  0  0  0  0  0  0  0  0  0
    5.6942    0.5733   21.4672 H   0  0  0  0  0  0  0  0  0  0  0  0
    7.6527    3.1008   19.2312 H   0  0  0  0  0  0  0  0  0  0  0  0
    9.1613    3.8255   21.1311 H   0  0  0  0  0  0  0  0  0  0  0  0
    9.7600    2.1626   21.1988 H   0  0  0  0  0  0  0  0  0  0  0  0
   11.4247    4.6209   20.3224 H   0  0  0  0  0  0  0  0  0  0  0  0
   12.6259    5.2450   18.2516 H   0  0  0  0  0  0  0  0  0  0  0  0
   12.0278    4.1918   16.0942 H   0  0  0  0  0  0  0  0  0  0  0  0
   10.3069    2.4319   15.9999 H   0  0  0  0  0  0  0  0  0  0  0  0
    9.1727    0.5600   17.5808 H   0  0  0  0  0  0  0  0  0  0  0  0
    8.0583    1.8954   17.3409 H   0  0  0  0  0  0  0  0  0  0  0  0
    7.2211    0.7191   19.0426 H   0  0  0  0  0  0  0  0  0  0  0  0
  1  2  1  0
  2  3  1  0
  3  4  1  0
  4  5  1  0
  5  6  1  0
  6  7  1  0
  7  8  1  0
  8  9  1  0
  2 10  1  0
 10 11  1  0
 11 12  2  0
 11 13  1  0
 13 14  1  0
 14 15  1  0
 15 16  2  0
 16 17  1  0
 17 18  2  0
 18 19  1  0
 19 20  2  0
 20 21  1  0
 21 22  1  0
  9  4  1  0
 22 13  1  0
 20 15  1  0
  1 23  1  0
  1 24  1  0
  1 25  1  0
  2 26  1  0
  3 27  1  0
  3 28  1  0
  5 29  1  0
  5 30  1  0
  6 31  1  0
  6 32  1  0
  7 33  1  0
  7 34  1  0
  8 35  1  0
  8 36  1  0
  9 37  1  0
  9 38  1  0
 10 39  1  0
 13 40  1  0
 14 41  1  0
 14 42  1  0
 16 43  1  0
 17 44  1  0
 18 45  1  0
 19 46  1  0
 21 47  1  0
 21 48  1  0
 22 49  1  0
M  END
>  <Energy>  (381) 
341.48359028620098

>  <compound_id>  (381) 
21339

>  <target_id>  (381) 
1

>  <reference_id>  (381) 
146

>  <inspiration_ids>  (381) 
[146, 44]

>  <energy_score>  (381) 
217.5274133697004

>  <distance_score>  (381) 
7.062928455511143

>  <path>  (381) 
/opt/xchem-fragalysis-2/maxwin/BulkDock/SCRATCH/511013/C21339-P146/C21339-P146.minimised.mol

>  <scratch_subdir>  (381) 
/opt/xchem-fragalysis-2/maxwin/BulkDock/SCRATCH/511013/C21339-P146

>  <fragmenstein_runtime>  (381) 
9.594429016113281

>  <fragmenstein_outcome>  (381) 
too moved

>  <fragmenstein_mode>  (381) 
expansion

>  <fragmenstein_error>  (381) 


$$$$
C21339-P44
     RDKit          3D

 49 51  0  0  0  0  0  0  0  0999 V2000
    4.8173    0.5944   24.2105 C   0  0  0  0  0  0  0  0  0  0  0  0
    4.6406    1.6350   22.9573 C   0  0  0  0  0  0  0  0  0  0  0  0
    3.1285    2.4004   23.2264 C   0  0  0  0  0  0  0  0  0  0  0  0
    3.0264    3.6500   24.0510 N   0  0  0  0  0  0  0  0  0  0  0  0
    3.3787    3.4791   25.4697 C   0  0  0  0  0  0  0  0  0  0  0  0
    2.1948    3.1581   26.3871 C   0  0  0  0  0  0  0  0  0  0  0  0
    1.1123    4.2351   26.3301 C   0  0  0  0  0  0  0  0  0  0  0  0
    1.2158    5.0869   25.0689 C   0  0  0  0  0  0  0  0  0  0  0  0
    1.6810    4.2453   23.8809 C   0  0  0  0  0  0  0  0  0  0  0  0
    5.2133    1.2799   21.1006 N   0  0  0  0  0  0  0  0  0  0  0  0
    7.0435    1.3717   20.1432 C   0  0  0  0  0  0  0  0  0  0  0  0
    8.0869    1.5710   20.5436 O   0  0  0  0  0  0  0  0  0  0  0  0
    7.1266    1.3007   18.6619 C   0  0  0  0  0  0  0  0  0  0  0  0
    8.4945    2.3725   18.2878 C   0  0  0  0  0  0  0  0  0  0  0  0
    9.0921    2.3395   16.8967 C   0  0  0  0  0  0  0  0  0  0  0  0
    9.8733    3.3781   16.3834 C   0  0  0  0  0  0  0  0  0  0  0  0
   10.6053    3.2087   15.2024 C   0  0  0  0  0  0  0  0  0  0  0  0
   10.5432    2.0073   14.5062 C   0  0  0  0  0  0  0  0  0  0  0  0
    9.7224    0.9939   14.9797 C   0  0  0  0  0  0  0  0  0  0  0  0
    9.0012    1.1690   16.1735 C   0  0  0  0  0  0  0  0  0  0  0  0
    8.0901    0.1160   16.6641 C   0  0  0  0  0  0  0  0  0  0  0  0
    7.7293    0.1246   18.1238 N   0  0  0  0  0  0  0  0  0  0  0  0
    5.6611    0.8251   24.8691 H   0  0  0  0  0  0  0  0  0  0  0  0
    4.8896   -0.4444   23.8882 H   0  0  0  0  0  0  0  0  0  0  0  0
    3.9536    0.6350   24.8849 H   0  0  0  0  0  0  0  0  0  0  0  0
    4.9756    2.7176   23.1680 H   0  0  0  0  0  0  0  0  0  0  0  0
    2.5314    1.7270   23.8125 H   0  0  0  0  0  0  0  0  0  0  0  0
    2.6549    2.5860   22.2615 H   0  0  0  0  0  0  0  0  0  0  0  0
    3.8252    4.4235   25.8096 H   0  0  0  0  0  0  0  0  0  0  0  0
    4.1742    2.7431   25.6059 H   0  0  0  0  0  0  0  0  0  0  0  0
    1.7626    2.1919   26.1112 H   0  0  0  0  0  0  0  0  0  0  0  0
    2.5449    3.0491   27.4203 H   0  0  0  0  0  0  0  0  0  0  0  0
    1.1813    4.8872   27.2089 H   0  0  0  0  0  0  0  0  0  0  0  0
    0.1279    3.7542   26.3800 H   0  0  0  0  0  0  0  0  0  0  0  0
    0.2436    5.5441   24.8520 H   0  0  0  0  0  0  0  0  0  0  0  0
    1.9191    5.9131   25.2331 H   0  0  0  0  0  0  0  0  0  0  0  0
    0.9249    3.4655   23.7213 H   0  0  0  0  0  0  0  0  0  0  0  0
    1.6922    4.8671   22.9784 H   0  0  0  0  0  0  0  0  0  0  0  0
    4.4623    1.0014   20.5061 H   0  0  0  0  0  0  0  0  0  0  0  0
    6.6701    2.2474   18.3375 H   0  0  0  0  0  0  0  0  0  0  0  0
    8.1643    3.4052   18.4959 H   0  0  0  0  0  0  0  0  0  0  0  0
    9.3258    2.2146   18.9696 H   0  0  0  0  0  0  0  0  0  0  0  0
    9.9781    4.3017   16.9488 H   0  0  0  0  0  0  0  0  0  0  0  0
   11.2339    4.0181   14.8429 H   0  0  0  0  0  0  0  0  0  0  0  0
   11.1113    1.8692   13.5917 H   0  0  0  0  0  0  0  0  0  0  0  0
    9.6460    0.0658   14.4170 H   0  0  0  0  0  0  0  0  0  0  0  0
    8.6514   -0.7993   16.4379 H   0  0  0  0  0  0  0  0  0  0  0  0
    7.2071    0.0449   16.0320 H   0  0  0  0  0  0  0  0  0  0  0  0
    6.8618   -0.4304   18.2166 H   0  0  0  0  0  0  0  0  0  0  0  0
  1  2  1  0
  2  3  1  0
  3  4  1  0
  4  5  1  0
  5  6  1  0
  6  7  1  0
  7  8  1  0
  8  9  1  0
  2 10  1  0
 10 11  1  0
 11 12  2  0
 11 13  1  0
 13 14  1  0
 14 15  1  0
 15 16  2  0
 16 17  1  0
 17 18  2  0
 18 19  1  0
 19 20  2  0
 20 21  1  0
 21 22  1  0
  9  4  1  0
 22 13  1  0
 20 15  1  0
  1 23  1  0
  1 24  1  0
  1 25  1  0
  2 26  1  0
  3 27  1  0
  3 28  1  0
  5 29  1  0
  5 30  1  0
  6 31  1  0
  6 32  1  0
  7 33  1  0
  7 34  1  0
  8 35  1  0
  8 36  1  0
  9 37  1  0
  9 38  1  0
 10 39  1  0
 13 40  1  0
 14 41  1  0
 14 42  1  0
 16 43  1  0
 17 44  1  0
 18 45  1  0
 19 46  1  0
 21 47  1  0
 21 48  1  0
 22 49  1  0
M  END
>  <Energy>  (382) 
460.7235356845257

>  <compound_id>  (382) 
21339

>  <target_id>  (382) 
1

>  <reference_id>  (382) 
44

>  <inspiration_ids>  (382) 
[146, 44]

>  <energy_score>  (382) 
336.7673587680198

>  <distance_score>  (382) 
6.704285157825928

>  <path>  (382) 
/opt/xchem-fragalysis-2/maxwin/BulkDock/SCRATCH/511013/C21339-P44/C21339-P44.minimised.mol

>  <scratch_subdir>  (382) 
/opt/xchem-fragalysis-2/maxwin/BulkDock/SCRATCH/511013/C21339-P44

>  <fragmenstein_runtime>  (382) 
11.844452381134033

>  <fragmenstein_outcome>  (382) 
too moved

>  <fragmenstein_mode>  (382) 
expansion

>  <fragmenstein_error>  (382) 


$$$$
C21342-P146
     RDKit          3D

 46 48  0  0  0  0  0  0  0  0999 V2000
    8.8593   -0.2463   20.4839 O   0  0  0  0  0  0  0  0  0  0  0  0
    7.8212   -0.2108   19.9523 C   0  0  0  0  0  0  0  0  0  0  0  0
    6.5463   -1.5647   20.8474 C   0  0  0  0  0  0  0  0  0  0  0  0
    5.2636   -1.7766   22.4251 N   0  0  0  0  0  0  0  0  0  0  0  0
    5.0468   -1.5446   24.5549 S   0  0  0  0  0  0  0  0  0  0  0  0
    6.1459   -0.9113   25.2437 O   0  0  0  0  0  0  0  0  0  0  0  0
    4.7537   -2.9151   24.9553 O   0  0  0  0  0  0  0  0  0  0  0  0
    3.6634   -0.7140   25.3145 N   0  0  0  0  0  0  0  0  0  0  0  0
    3.5053   -1.2599   26.7660 C   0  0  0  0  0  0  0  0  0  0  0  0
    2.2772   -0.7130   27.5194 C   0  0  0  0  0  0  0  0  0  0  0  0
    2.0716    0.7644   27.3824 C   0  0  0  0  0  0  0  0  0  0  0  0
    1.1109    1.4320   28.1574 C   0  0  0  0  0  0  0  0  0  0  0  0
    0.9131    2.8042   28.0119 C   0  0  0  0  0  0  0  0  0  0  0  0
    1.6699    3.5187   27.0883 C   0  0  0  0  0  0  0  0  0  0  0  0
    2.6108    2.8566   26.2999 C   0  0  0  0  0  0  0  0  0  0  0  0
    2.8018    1.4695   26.4247 C   0  0  0  0  0  0  0  0  0  0  0  0
    3.8055    0.7625   25.5176 C   0  0  0  0  0  0  0  0  0  0  0  0
    7.6483    0.8863   18.8703 N   0  0  0  0  0  0  0  0  0  0  0  0
    8.5372    2.0393   18.4116 C   0  0  0  0  0  0  0  0  0  0  0  0
    8.9027    2.7000   17.0643 C   0  0  0  0  0  0  0  0  0  0  0  0
    9.8500    1.7842   16.3062 C   0  0  0  0  0  0  0  0  0  0  0  0
    9.3991    0.3466   16.5177 C   0  0  0  0  0  0  0  0  0  0  0  0
    8.0946    0.3213   17.3166 C   0  0  0  0  0  0  0  0  0  0  0  0
    7.4290   -2.0178   21.0554 H   0  0  0  0  0  0  0  0  0  0  0  0
    6.0037   -2.4900   20.4422 H   0  0  0  0  0  0  0  0  0  0  0  0
    5.3817   -2.7619   22.3900 H   0  0  0  0  0  0  0  0  0  0  0  0
    4.4132   -1.0072   27.3310 H   0  0  0  0  0  0  0  0  0  0  0  0
    3.4152   -2.3503   26.7614 H   0  0  0  0  0  0  0  0  0  0  0  0
    2.4018   -0.9580   28.5821 H   0  0  0  0  0  0  0  0  0  0  0  0
    1.3664   -1.2200   27.1957 H   0  0  0  0  0  0  0  0  0  0  0  0
    0.5113    0.8795   28.8769 H   0  0  0  0  0  0  0  0  0  0  0  0
    0.1671    3.3165   28.6145 H   0  0  0  0  0  0  0  0  0  0  0  0
    1.5178    4.5889   26.9737 H   0  0  0  0  0  0  0  0  0  0  0  0
    3.1812    3.4241   25.5678 H   0  0  0  0  0  0  0  0  0  0  0  0
    3.6782    1.2514   24.5623 H   0  0  0  0  0  0  0  0  0  0  0  0
    4.7633    0.9503   26.0061 H   0  0  0  0  0  0  0  0  0  0  0  0
    8.0555    2.8616   18.9631 H   0  0  0  0  0  0  0  0  0  0  0  0
    9.4663    1.9249   18.9708 H   0  0  0  0  0  0  0  0  0  0  0  0
    8.0116    2.9605   16.4796 H   0  0  0  0  0  0  0  0  0  0  0  0
    9.4153    3.6514   17.2548 H   0  0  0  0  0  0  0  0  0  0  0  0
   10.8644    1.9493   16.6655 H   0  0  0  0  0  0  0  0  0  0  0  0
    9.8567    2.0445   15.2416 H   0  0  0  0  0  0  0  0  0  0  0  0
    9.1493   -0.0350   15.5138 H   0  0  0  0  0  0  0  0  0  0  0  0
   10.1509   -0.3648   16.8029 H   0  0  0  0  0  0  0  0  0  0  0  0
    7.4175   -0.4526   16.9645 H   0  0  0  0  0  0  0  0  0  0  0  0
    7.6251    1.0298   16.6186 H   0  0  0  0  0  0  0  0  0  0  0  0
  1  2  2  0
  2  3  1  0
  3  4  1  0
  4  5  1  0
  5  6  2  0
  5  7  2  0
  5  8  1  0
  8  9  1  0
  9 10  1  0
 10 11  1  0
 11 12  2  0
 12 13  1  0
 13 14  2  0
 14 15  1  0
 15 16  2  0
 16 17  1  0
  2 18  1  0
 18 19  1  0
 19 20  1  0
 20 21  1  0
 21 22  1  0
 22 23  1  0
 17  8  1  0
 23 18  1  0
 16 11  1  0
  3 24  1  0
  3 25  1  0
  4 26  1  0
  9 27  1  0
  9 28  1  0
 10 29  1  0
 10 30  1  0
 12 31  1  0
 13 32  1  0
 14 33  1  0
 15 34  1  0
 17 35  1  0
 17 36  1  0
 19 37  1  0
 19 38  1  0
 20 39  1  0
 20 40  1  0
 21 41  1  0
 21 42  1  0
 22 43  1  0
 22 44  1  0
 23 45  1  0
 23 46  1  0
M  END
>  <Energy>  (383) 
350.65770431041449

>  <compound_id>  (383) 
21342

>  <target_id>  (383) 
1

>  <reference_id>  (383) 
146

>  <inspiration_ids>  (383) 
[146, 44]

>  <energy_score>  (383) 
432.2482303965815

>  <distance_score>  (383) 
6.419461768635561

>  <path>  (383) 
/opt/xchem-fragalysis-2/maxwin/BulkDock/SCRATCH/511013/C21342-P146/C21342-P146.minimised.mol

>  <scratch_subdir>  (383) 
/opt/xchem-fragalysis-2/maxwin/BulkDock/SCRATCH/511013/C21342-P146

>  <fragmenstein_runtime>  (383) 
8.026572465896606

>  <fragmenstein_outcome>  (383) 
too moved

>  <fragmenstein_mode>  (383) 
expansion

>  <fragmenstein_error>  (383) 


$$$$
C21342-P44
     RDKit          3D

 46 48  0  0  0  0  0  0  0  0999 V2000
    8.8579    1.1516   20.2878 O   0  0  0  0  0  0  0  0  0  0  0  0
    7.9577    1.3153   19.5208 C   0  0  0  0  0  0  0  0  0  0  0  0
    6.4286    0.4304   20.0916 C   0  0  0  0  0  0  0  0  0  0  0  0
    4.7193    0.9633   21.2818 N   0  0  0  0  0  0  0  0  0  0  0  0
    4.2141    1.9485   23.2627 S   0  0  0  0  0  0  0  0  0  0  0  0
    4.8381    3.2654   23.3021 O   0  0  0  0  0  0  0  0  0  0  0  0
    4.4624    1.0131   24.3562 O   0  0  0  0  0  0  0  0  0  0  0  0
    2.5667    2.4702   23.3774 N   0  0  0  0  0  0  0  0  0  0  0  0
    2.1297    3.5888   22.4618 C   0  0  0  0  0  0  0  0  0  0  0  0
    0.6427    3.9708   22.6609 C   0  0  0  0  0  0  0  0  0  0  0  0
    0.0990    3.8246   24.0568 C   0  0  0  0  0  0  0  0  0  0  0  0
   -1.2415    4.1365   24.3203 C   0  0  0  0  0  0  0  0  0  0  0  0
   -1.7634    3.9734   25.6016 C   0  0  0  0  0  0  0  0  0  0  0  0
   -0.9514    3.5135   26.6341 C   0  0  0  0  0  0  0  0  0  0  0  0
    0.3823    3.1973   26.3801 C   0  0  0  0  0  0  0  0  0  0  0  0
    0.9094    3.3311   25.0869 C   0  0  0  0  0  0  0  0  0  0  0  0
    2.3495    2.9694   24.8044 C   0  0  0  0  0  0  0  0  0  0  0  0
    7.8845    2.1202   18.3776 N   0  0  0  0  0  0  0  0  0  0  0  0
    8.8374    3.0947   17.8234 C   0  0  0  0  0  0  0  0  0  0  0  0
    8.3685    3.9853   16.6808 C   0  0  0  0  0  0  0  0  0  0  0  0
    8.2700    3.1702   15.4176 C   0  0  0  0  0  0  0  0  0  0  0  0
    8.8458    1.8157   15.7253 C   0  0  0  0  0  0  0  0  0  0  0  0
    8.3419    1.2918   17.1004 C   0  0  0  0  0  0  0  0  0  0  0  0
    6.7783   -0.6164   20.2734 H   0  0  0  0  0  0  0  0  0  0  0  0
    6.1740    0.4449   19.0152 H   0  0  0  0  0  0  0  0  0  0  0  0
    4.3761    0.0743   21.6918 H   0  0  0  0  0  0  0  0  0  0  0  0
    2.2133    3.2819   21.4192 H   0  0  0  0  0  0  0  0  0  0  0  0
    2.7499    4.4773   22.6262 H   0  0  0  0  0  0  0  0  0  0  0  0
    0.0277    3.3494   21.9973 H   0  0  0  0  0  0  0  0  0  0  0  0
    0.5058    5.0065   22.3253 H   0  0  0  0  0  0  0  0  0  0  0  0
   -1.8899    4.5057   23.5281 H   0  0  0  0  0  0  0  0  0  0  0  0
   -2.8046    4.2164   25.7965 H   0  0  0  0  0  0  0  0  0  0  0  0
   -1.3615    3.4069   27.6356 H   0  0  0  0  0  0  0  0  0  0  0  0
    1.0054    2.8361   27.1952 H   0  0  0  0  0  0  0  0  0  0  0  0
    2.9654    3.8569   24.9960 H   0  0  0  0  0  0  0  0  0  0  0  0
    2.6456    2.1853   25.5098 H   0  0  0  0  0  0  0  0  0  0  0  0
    9.8489    2.7198   17.7299 H   0  0  0  0  0  0  0  0  0  0  0  0
    8.9588    3.7880   18.6714 H   0  0  0  0  0  0  0  0  0  0  0  0
    7.4025    4.4467   16.9170 H   0  0  0  0  0  0  0  0  0  0  0  0
    9.0863    4.8019   16.5392 H   0  0  0  0  0  0  0  0  0  0  0  0
    8.8033    3.6488   14.5894 H   0  0  0  0  0  0  0  0  0  0  0  0
    7.2206    3.1127   15.1265 H   0  0  0  0  0  0  0  0  0  0  0  0
    8.6796    1.0799   14.9351 H   0  0  0  0  0  0  0  0  0  0  0  0
    9.9427    1.9023   15.7549 H   0  0  0  0  0  0  0  0  0  0  0  0
    9.2039    0.7136   17.4756 H   0  0  0  0  0  0  0  0  0  0  0  0
    7.6651    0.4484   16.9406 H   0  0  0  0  0  0  0  0  0  0  0  0
  1  2  2  0
  2  3  1  0
  3  4  1  0
  4  5  1  0
  5  6  2  0
  5  7  2  0
  5  8  1  0
  8  9  1  0
  9 10  1  0
 10 11  1  0
 11 12  2  0
 12 13  1  0
 13 14  2  0
 14 15  1  0
 15 16  2  0
 16 17  1  0
  2 18  1  0
 18 19  1  0
 19 20  1  0
 20 21  1  0
 21 22  1  0
 22 23  1  0
 17  8  1  0
 23 18  1  0
 16 11  1  0
  3 24  1  0
  3 25  1  0
  4 26  1  0
  9 27  1  0
  9 28  1  0
 10 29  1  0
 10 30  1  0
 12 31  1  0
 13 32  1  0
 14 33  1  0
 15 34  1  0
 17 35  1  0
 17 36  1  0
 19 37  1  0
 19 38  1  0
 20 39  1  0
 20 40  1  0
 21 41  1  0
 21 42  1  0
 22 43  1  0
 22 44  1  0
 23 45  1  0
 23 46  1  0
M  END
>  <Energy>  (384) 
227.03547174201304

>  <compound_id>  (384) 
21342

>  <target_id>  (384) 
1

>  <reference_id>  (384) 
44

>  <inspiration_ids>  (384) 
[146, 44]

>  <energy_score>  (384) 
308.62599782818285

>  <distance_score>  (384) 
6.849487435053066

>  <path>  (384) 
/opt/xchem-fragalysis-2/maxwin/BulkDock/SCRATCH/511013/C21342-P44/C21342-P44.minimised.mol

>  <scratch_subdir>  (384) 
/opt/xchem-fragalysis-2/maxwin/BulkDock/SCRATCH/511013/C21342-P44

>  <fragmenstein_runtime>  (384) 
11.201309442520142

>  <fragmenstein_outcome>  (384) 
too moved

>  <fragmenstein_mode>  (384) 
expansion

>  <fragmenstein_error>  (384) 


$$$$
C21343-P146
     RDKit          3D

 46 49  0  0  0  0  0  0  0  0999 V2000
    5.4892   -3.1156   25.5655 O   0  0  0  0  0  0  0  0  0  0  0  0
    4.8368   -2.1770   25.2119 C   0  0  0  0  0  0  0  0  0  0  0  0
    4.7049   -1.7192   23.6809 C   0  0  0  0  0  0  0  0  0  0  0  0
    5.4809   -2.4069   22.4349 N   0  0  0  0  0  0  0  0  0  0  0  0
    6.3917   -3.6683   23.3055 N   0  0  0  0  0  0  0  0  0  0  0  0
    7.2574   -4.2489   22.5039 N   0  0  0  0  0  0  0  0  0  0  0  0
    7.4266   -3.4984   21.1218 N   0  0  0  0  0  0  0  0  0  0  0  0
    6.5127   -2.0594   20.8896 C   0  0  0  0  0  0  0  0  0  0  0  0
    7.6892   -0.8784   20.0736 N   0  0  0  0  0  0  0  0  0  0  0  0
    8.5950    0.5631   20.5667 C   0  0  0  0  0  0  0  0  0  0  0  0
    8.8636    1.8052   19.6154 C   0  0  0  0  0  0  0  0  0  0  0  0
    9.1156    1.4513   18.2034 C   0  0  0  0  0  0  0  0  0  0  0  0
    9.9360    2.1876   17.3398 C   0  0  0  0  0  0  0  0  0  0  0  0
   10.1502    1.7413   16.0367 C   0  0  0  0  0  0  0  0  0  0  0  0
    9.5105    0.5922   15.5887 C   0  0  0  0  0  0  0  0  0  0  0  0
    8.6197   -0.0766   16.4313 C   0  0  0  0  0  0  0  0  0  0  0  0
    8.4318    0.3296   17.7745 C   0  0  0  0  0  0  0  0  0  0  0  0
    7.3149   -0.2480   18.7930 C   0  0  0  0  0  0  0  0  0  0  0  0
    3.9558   -1.3022   25.9732 N   0  0  0  0  0  0  0  0  0  0  0  0
    4.7328   -0.1100   26.5044 C   0  0  0  0  0  0  0  0  0  0  0  0
    3.8887    1.1689   26.6827 C   0  0  0  0  0  0  0  0  0  0  0  0
    2.9398    1.0123   27.8507 C   0  0  0  0  0  0  0  0  0  0  0  0
    2.3893   -0.3941   27.8152 C   0  0  0  0  0  0  0  0  0  0  0  0
    3.5034   -1.3730   27.4129 C   0  0  0  0  0  0  0  0  0  0  0  0
    4.7426   -0.6516   23.7375 H   0  0  0  0  0  0  0  0  0  0  0  0
    3.7102   -2.0592   23.4307 H   0  0  0  0  0  0  0  0  0  0  0  0
    9.4904    0.3077   21.1092 H   0  0  0  0  0  0  0  0  0  0  0  0
    7.9963    1.1527   21.2185 H   0  0  0  0  0  0  0  0  0  0  0  0
    8.0070    2.4926   19.6381 H   0  0  0  0  0  0  0  0  0  0  0  0
    9.6916    2.3908   20.0377 H   0  0  0  0  0  0  0  0  0  0  0  0
   10.4407    3.0867   17.6848 H   0  0  0  0  0  0  0  0  0  0  0  0
   10.8226    2.2853   15.3773 H   0  0  0  0  0  0  0  0  0  0  0  0
    9.6573    0.2472   14.5662 H   0  0  0  0  0  0  0  0  0  0  0  0
    8.0392   -0.8821   15.9871 H   0  0  0  0  0  0  0  0  0  0  0  0
    6.9164    0.6376   19.1951 H   0  0  0  0  0  0  0  0  0  0  0  0
    6.5137   -0.7550   18.2465 H   0  0  0  0  0  0  0  0  0  0  0  0
    5.4426   -0.3098   27.3265 H   0  0  0  0  0  0  0  0  0  0  0  0
    5.4415    0.1189   25.7028 H   0  0  0  0  0  0  0  0  0  0  0  0
    3.3212    1.3614   25.7650 H   0  0  0  0  0  0  0  0  0  0  0  0
    4.5403    2.0329   26.8520 H   0  0  0  0  0  0  0  0  0  0  0  0
    2.1404    1.7596   27.8236 H   0  0  0  0  0  0  0  0  0  0  0  0
    3.4925    1.1605   28.7866 H   0  0  0  0  0  0  0  0  0  0  0  0
    1.5642   -0.4492   27.0999 H   0  0  0  0  0  0  0  0  0  0  0  0
    1.9820   -0.6647   28.7956 H   0  0  0  0  0  0  0  0  0  0  0  0
    3.0159   -2.3610   27.4316 H   0  0  0  0  0  0  0  0  0  0  0  0
    4.2881   -1.5355   28.1714 H   0  0  0  0  0  0  0  0  0  0  0  0
  1  2  2  0
  2  3  1  0
  3  4  1  0
  4  5  1  0
  5  6  2  0
  6  7  1  0
  7  8  2  0
  8  9  1  0
  9 10  1  0
 10 11  1  0
 11 12  1  0
 12 13  2  0
 13 14  1  0
 14 15  2  0
 15 16  1  0
 16 17  2  0
 17 18  1  0
  2 19  1  0
 19 20  1  0
 20 21  1  0
 21 22  1  0
 22 23  1  0
 23 24  1  0
  8  4  1  0
 18  9  1  0
 24 19  1  0
 17 12  1  0
  3 25  1  0
  3 26  1  0
 10 27  1  0
 10 28  1  0
 11 29  1  0
 11 30  1  0
 13 31  1  0
 14 32  1  0
 15 33  1  0
 16 34  1  0
 18 35  1  0
 18 36  1  0
 20 37  1  0
 20 38  1  0
 21 39  1  0
 21 40  1  0
 22 41  1  0
 22 42  1  0
 23 43  1  0
 23 44  1  0
 24 45  1  0
 24 46  1  0
M  END
>  <Energy>  (385) 
554.82357106405664

>  <compound_id>  (385) 
21343

>  <target_id>  (385) 
1

>  <reference_id>  (385) 
146

>  <inspiration_ids>  (385) 
[146, 44]

>  <energy_score>  (385) 
485.33656877890974

>  <distance_score>  (385) 
6.877733104985118

>  <path>  (385) 
/opt/xchem-fragalysis-2/maxwin/BulkDock/SCRATCH/511013/C21343-P146/C21343-P146.minimised.mol

>  <scratch_subdir>  (385) 
/opt/xchem-fragalysis-2/maxwin/BulkDock/SCRATCH/511013/C21343-P146

>  <fragmenstein_runtime>  (385) 
7.76207709312439

>  <fragmenstein_outcome>  (385) 
too moved

>  <fragmenstein_mode>  (385) 
expansion

>  <fragmenstein_error>  (385) 


$$$$
C21343-P44
     RDKit          3D

 46 49  0  0  0  0  0  0  0  0999 V2000
    5.6527   -4.0308   24.5740 O   0  0  0  0  0  0  0  0  0  0  0  0
    6.0899   -5.1345   24.3990 C   0  0  0  0  0  0  0  0  0  0  0  0
    6.7222   -5.6390   22.9416 C   0  0  0  0  0  0  0  0  0  0  0  0
    7.5654   -4.7478   21.5175 N   0  0  0  0  0  0  0  0  0  0  0  0
    7.2953   -3.4375   21.3100 N   0  0  0  0  0  0  0  0  0  0  0  0
    8.4391   -3.2458   20.8036 N   0  0  0  0  0  0  0  0  0  0  0  0
    8.5921   -4.1582   19.9672 N   0  0  0  0  0  0  0  0  0  0  0  0
    9.3339   -4.9185   20.6699 C   0  0  0  0  0  0  0  0  0  0  0  0
   10.8924   -4.9298   21.2993 N   0  0  0  0  0  0  0  0  0  0  0  0
   11.9570   -5.4586   20.4233 C   0  0  0  0  0  0  0  0  0  0  0  0
   13.0961   -4.6094   19.8681 C   0  0  0  0  0  0  0  0  0  0  0  0
   13.6930   -3.7309   20.8851 C   0  0  0  0  0  0  0  0  0  0  0  0
   14.9310   -3.1192   20.6270 C   0  0  0  0  0  0  0  0  0  0  0  0
   15.4886   -2.2622   21.5617 C   0  0  0  0  0  0  0  0  0  0  0  0
   14.8105   -2.0255   22.7504 C   0  0  0  0  0  0  0  0  0  0  0  0
   13.5755   -2.6356   22.9942 C   0  0  0  0  0  0  0  0  0  0  0  0
   12.9749   -3.4798   22.0494 C   0  0  0  0  0  0  0  0  0  0  0  0
   11.5979   -4.0833   22.3590 C   0  0  0  0  0  0  0  0  0  0  0  0
    6.2794   -6.2234   25.3336 N   0  0  0  0  0  0  0  0  0  0  0  0
    5.0348   -7.1088   25.3696 C   0  0  0  0  0  0  0  0  0  0  0  0
    3.6888   -6.6338   26.0050 C   0  0  0  0  0  0  0  0  0  0  0  0
    3.7742   -5.2951   26.6999 C   0  0  0  0  0  0  0  0  0  0  0  0
    5.1111   -5.2339   27.4047 C   0  0  0  0  0  0  0  0  0  0  0  0
    6.0967   -6.2779   26.8244 C   0  0  0  0  0  0  0  0  0  0  0  0
    6.1578   -6.3987   22.4064 H   0  0  0  0  0  0  0  0  0  0  0  0
    7.2211   -6.5457   23.2792 H   0  0  0  0  0  0  0  0  0  0  0  0
   12.3390   -6.3656   20.8947 H   0  0  0  0  0  0  0  0  0  0  0  0
   11.4450   -5.6071   19.5181 H   0  0  0  0  0  0  0  0  0  0  0  0
   12.7719   -3.9896   19.0234 H   0  0  0  0  0  0  0  0  0  0  0  0
   13.8588   -5.2867   19.4631 H   0  0  0  0  0  0  0  0  0  0  0  0
   15.4535   -3.3135   19.6931 H   0  0  0  0  0  0  0  0  0  0  0  0
   16.4434   -1.7827   21.3690 H   0  0  0  0  0  0  0  0  0  0  0  0
   15.2319   -1.3526   23.4926 H   0  0  0  0  0  0  0  0  0  0  0  0
   13.0543   -2.4052   23.9224 H   0  0  0  0  0  0  0  0  0  0  0  0
   10.9929   -3.2982   22.7913 H   0  0  0  0  0  0  0  0  0  0  0  0
   11.8186   -4.7696   23.1890 H   0  0  0  0  0  0  0  0  0  0  0  0
    4.8007   -7.2750   24.3082 H   0  0  0  0  0  0  0  0  0  0  0  0
    5.2972   -8.1335   25.6868 H   0  0  0  0  0  0  0  0  0  0  0  0
    3.3972   -7.3927   26.7444 H   0  0  0  0  0  0  0  0  0  0  0  0
    2.8827   -6.6426   25.2672 H   0  0  0  0  0  0  0  0  0  0  0  0
    2.9495   -5.1604   27.4077 H   0  0  0  0  0  0  0  0  0  0  0  0
    3.6855   -4.4847   25.9709 H   0  0  0  0  0  0  0  0  0  0  0  0
    4.9859   -5.4322   28.4758 H   0  0  0  0  0  0  0  0  0  0  0  0
    5.5269   -4.2227   27.3229 H   0  0  0  0  0  0  0  0  0  0  0  0
    7.0808   -5.9351   27.1806 H   0  0  0  0  0  0  0  0  0  0  0  0
    6.0371   -7.2754   27.2934 H   0  0  0  0  0  0  0  0  0  0  0  0
  1  2  2  0
  2  3  1  0
  3  4  1  0
  4  5  1  0
  5  6  2  0
  6  7  1  0
  7  8  2  0
  8  9  1  0
  9 10  1  0
 10 11  1  0
 11 12  1  0
 12 13  2  0
 13 14  1  0
 14 15  2  0
 15 16  1  0
 16 17  2  0
 17 18  1  0
  2 19  1  0
 19 20  1  0
 20 21  1  0
 21 22  1  0
 22 23  1  0
 23 24  1  0
  8  4  1  0
 18  9  1  0
 24 19  1  0
 17 12  1  0
  3 25  1  0
  3 26  1  0
 10 27  1  0
 10 28  1  0
 11 29  1  0
 11 30  1  0
 13 31  1  0
 14 32  1  0
 15 33  1  0
 16 34  1  0
 18 35  1  0
 18 36  1  0
 20 37  1  0
 20 38  1  0
 21 39  1  0
 21 40  1  0
 22 41  1  0
 22 42  1  0
 23 43  1  0
 23 44  1  0
 24 45  1  0
 24 46  1  0
M  END
>  <Energy>  (386) 
479.05115972821443

>  <compound_id>  (386) 
21343

>  <target_id>  (386) 
1

>  <reference_id>  (386) 
44

>  <inspiration_ids>  (386) 
[146, 44]

>  <energy_score>  (386) 
409.5641574430671

>  <distance_score>  (386) 
8.693916042538243

>  <path>  (386) 
/opt/xchem-fragalysis-2/maxwin/BulkDock/SCRATCH/511013/C21343-P44/C21343-P44.minimised.mol

>  <scratch_subdir>  (386) 
/opt/xchem-fragalysis-2/maxwin/BulkDock/SCRATCH/511013/C21343-P44

>  <fragmenstein_runtime>  (386) 
9.12346363067627

>  <fragmenstein_outcome>  (386) 
too moved

>  <fragmenstein_mode>  (386) 
expansion

>  <fragmenstein_error>  (386) 


$$$$
C21346-P146
     RDKit          3D

 44 47  0  0  0  0  0  0  0  0999 V2000
   10.8427   -2.2107   15.0294 Br  0  0  0  0  0  0  0  0  0  0  0  0
   10.6844   -0.3290   15.1595 C   0  0  0  0  0  0  0  0  0  0  0  0
   11.6241    0.3641   14.3862 C   0  0  0  0  0  0  0  0  0  0  0  0
   11.7150    1.7447   14.4688 C   0  0  0  0  0  0  0  0  0  0  0  0
   10.8964    2.4322   15.3556 C   0  0  0  0  0  0  0  0  0  0  0  0
    9.9701    1.7402   16.1442 C   0  0  0  0  0  0  0  0  0  0  0  0
    9.8018    0.3634   16.0236 C   0  0  0  0  0  0  0  0  0  0  0  0
    8.6389   -0.2280   16.8226 C   0  0  0  0  0  0  0  0  0  0  0  0
    8.7112    0.0906   18.4370 N   0  0  0  0  0  0  0  0  0  0  0  0
    7.5543   -0.3819   19.6363 C   0  0  0  0  0  0  0  0  0  0  0  0
    7.2359    0.6942   20.2785 C   0  0  0  0  0  0  0  0  0  0  0  0
    5.7061    0.4443   21.2624 C   0  0  0  0  0  0  0  0  0  0  0  0
    4.8200   -0.5057   21.7845 N   0  0  0  0  0  0  0  0  0  0  0  0
    5.4990   -1.6721   21.8449 C   0  0  0  0  0  0  0  0  0  0  0  0
    5.0945   -2.0142   23.5825 N   0  0  0  0  0  0  0  0  0  0  0  0
    4.9047   -0.7576   24.5208 C   0  0  0  0  0  0  0  0  0  0  0  0
    4.2093   -0.8650   25.8792 C   0  0  0  0  0  0  0  0  0  0  0  0
    4.7187   -2.0003   26.7341 C   0  0  0  0  0  0  0  0  0  0  0  0
    5.9508   -2.6243   26.0955 C   0  0  0  0  0  0  0  0  0  0  0  0
    5.6030   -3.1282   24.6861 C   0  0  0  0  0  0  0  0  0  0  0  0
    6.9028   -1.6036   20.7168 N   0  0  0  0  0  0  0  0  0  0  0  0
    8.7644    1.6788   18.4151 C   0  0  0  0  0  0  0  0  0  0  0  0
    9.0876    2.4399   17.1086 C   0  0  0  0  0  0  0  0  0  0  0  0
   12.3032   -0.1651   13.7217 H   0  0  0  0  0  0  0  0  0  0  0  0
   12.4532    2.2805   13.8788 H   0  0  0  0  0  0  0  0  0  0  0  0
   11.0035    3.5108   15.4450 H   0  0  0  0  0  0  0  0  0  0  0  0
    7.6941    0.1183   16.4157 H   0  0  0  0  0  0  0  0  0  0  0  0
    8.7483   -1.2665   16.5408 H   0  0  0  0  0  0  0  0  0  0  0  0
    7.7628    1.6194   20.4545 H   0  0  0  0  0  0  0  0  0  0  0  0
    5.4638    1.1105   22.0154 H   0  0  0  0  0  0  0  0  0  0  0  0
    4.5224    0.1305   24.0865 H   0  0  0  0  0  0  0  0  0  0  0  0
    5.9049   -0.4821   24.8336 H   0  0  0  0  0  0  0  0  0  0  0  0
    3.1263   -0.8511   25.8237 H   0  0  0  0  0  0  0  0  0  0  0  0
    4.4330    0.0686   26.4177 H   0  0  0  0  0  0  0  0  0  0  0  0
    4.9556   -1.6459   27.7438 H   0  0  0  0  0  0  0  0  0  0  0  0
    3.9331   -2.7569   26.8494 H   0  0  0  0  0  0  0  0  0  0  0  0
    6.7984   -1.9308   26.0951 H   0  0  0  0  0  0  0  0  0  0  0  0
    6.2618   -3.4814   26.7057 H   0  0  0  0  0  0  0  0  0  0  0  0
    6.3777   -3.7919   24.2904 H   0  0  0  0  0  0  0  0  0  0  0  0
    4.7225   -3.7474   24.9239 H   0  0  0  0  0  0  0  0  0  0  0  0
    7.8004    2.1300   18.6465 H   0  0  0  0  0  0  0  0  0  0  0  0
    9.4630    2.0141   19.1866 H   0  0  0  0  0  0  0  0  0  0  0  0
    9.5137    3.4137   17.3828 H   0  0  0  0  0  0  0  0  0  0  0  0
    8.1489    2.6652   16.5829 H   0  0  0  0  0  0  0  0  0  0  0  0
  1  2  1  0
  2  3  2  0
  3  4  1  0
  4  5  2  0
  5  6  1  0
  6  7  2  0
  7  8  1  0
  8  9  1  0
  9 10  1  0
 10 11  2  0
 11 12  1  0
 12 13  2  0
 13 14  1  0
 14 15  1  0
 15 16  1  0
 16 17  1  0
 17 18  1  0
 18 19  1  0
 19 20  1  0
 14 21  2  0
  9 22  1  0
 22 23  1  0
  7  2  1  0
 21 10  1  0
 23  6  1  0
 20 15  1  0
  3 24  1  0
  4 25  1  0
  5 26  1  0
  8 27  1  0
  8 28  1  0
 11 29  1  0
 12 30  1  0
 16 31  1  0
 16 32  1  0
 17 33  1  0
 17 34  1  0
 18 35  1  0
 18 36  1  0
 19 37  1  0
 19 38  1  0
 20 39  1  0
 20 40  1  0
 22 41  1  0
 22 42  1  0
 23 43  1  0
 23 44  1  0
M  END
>  <Energy>  (387) 
435.24372142091636

>  <compound_id>  (387) 
21346

>  <target_id>  (387) 
1

>  <reference_id>  (387) 
146

>  <inspiration_ids>  (387) 
[146, 44]

>  <energy_score>  (387) 
471.0361357576927

>  <distance_score>  (387) 
7.676759535113363

>  <path>  (387) 
/opt/xchem-fragalysis-2/maxwin/BulkDock/SCRATCH/511013/C21346-P146/C21346-P146.minimised.mol

>  <scratch_subdir>  (387) 
/opt/xchem-fragalysis-2/maxwin/BulkDock/SCRATCH/511013/C21346-P146

>  <fragmenstein_runtime>  (387) 
7.709843397140503

>  <fragmenstein_outcome>  (387) 
too moved

>  <fragmenstein_mode>  (387) 
expansion

>  <fragmenstein_error>  (387) 


$$$$
C21346-P44
     RDKit          3D

 44 47  0  0  0  0  0  0  0  0999 V2000
    7.2744   -0.9314   15.0320 Br  0  0  0  0  0  0  0  0  0  0  0  0
    8.4358    0.0276   16.2079 C   0  0  0  0  0  0  0  0  0  0  0  0
    9.5298    0.5174   15.4682 C   0  0  0  0  0  0  0  0  0  0  0  0
   10.0856    1.7279   15.8078 C   0  0  0  0  0  0  0  0  0  0  0  0
    9.5248    2.4190   16.8663 C   0  0  0  0  0  0  0  0  0  0  0  0
    8.5683    1.8204   17.7043 C   0  0  0  0  0  0  0  0  0  0  0  0
    8.0616    0.5569   17.4860 C   0  0  0  0  0  0  0  0  0  0  0  0
    6.9254   -0.0943   18.5692 C   0  0  0  0  0  0  0  0  0  0  0  0
    6.3519    0.4275   20.1252 N   0  0  0  0  0  0  0  0  0  0  0  0
    4.6906    0.5988   21.2503 C   0  0  0  0  0  0  0  0  0  0  0  0
    4.8537   -0.7253   22.4430 C   0  0  0  0  0  0  0  0  0  0  0  0
    4.5433   -0.9333   23.9793 C   0  0  0  0  0  0  0  0  0  0  0  0
    4.2632    0.1894   24.7553 N   0  0  0  0  0  0  0  0  0  0  0  0
    4.1143    1.4129   24.0189 C   0  0  0  0  0  0  0  0  0  0  0  0
    3.4281    2.4250   24.6905 N   0  0  0  0  0  0  0  0  0  0  0  0
    3.1427    3.6823   24.0268 C   0  0  0  0  0  0  0  0  0  0  0  0
    1.7742    4.2113   24.4754 C   0  0  0  0  0  0  0  0  0  0  0  0
    1.6530    4.2721   25.9933 C   0  0  0  0  0  0  0  0  0  0  0  0
    1.9618    2.9120   26.6061 C   0  0  0  0  0  0  0  0  0  0  0  0
    3.3237    2.3796   26.1458 C   0  0  0  0  0  0  0  0  0  0  0  0
    4.4156    1.6289   22.4527 N   0  0  0  0  0  0  0  0  0  0  0  0
    7.5484    1.7198   19.9047 C   0  0  0  0  0  0  0  0  0  0  0  0
    7.8561    2.6088   18.7156 C   0  0  0  0  0  0  0  0  0  0  0  0
    9.8255    0.0548   14.5267 H   0  0  0  0  0  0  0  0  0  0  0  0
   10.8491    2.1859   15.1875 H   0  0  0  0  0  0  0  0  0  0  0  0
    9.8346    3.4469   17.0517 H   0  0  0  0  0  0  0  0  0  0  0  0
    7.6814   -0.6721   19.0875 H   0  0  0  0  0  0  0  0  0  0  0  0
    6.2300   -0.6350   17.9221 H   0  0  0  0  0  0  0  0  0  0  0  0
    5.3821    0.0244   23.1003 H   0  0  0  0  0  0  0  0  0  0  0  0
    4.5525   -1.9044   24.4467 H   0  0  0  0  0  0  0  0  0  0  0  0
    3.1030    3.5904   22.9387 H   0  0  0  0  0  0  0  0  0  0  0  0
    3.9268    4.4106   24.2661 H   0  0  0  0  0  0  0  0  0  0  0  0
    0.9865    3.5576   24.0795 H   0  0  0  0  0  0  0  0  0  0  0  0
    1.6078    5.2070   24.0492 H   0  0  0  0  0  0  0  0  0  0  0  0
    2.3495    5.0214   26.3884 H   0  0  0  0  0  0  0  0  0  0  0  0
    0.6428    4.5884   26.2756 H   0  0  0  0  0  0  0  0  0  0  0  0
    1.9470    2.9861   27.6994 H   0  0  0  0  0  0  0  0  0  0  0  0
    1.1735    2.2043   26.3259 H   0  0  0  0  0  0  0  0  0  0  0  0
    3.4341    1.3733   26.5633 H   0  0  0  0  0  0  0  0  0  0  0  0
    4.1253    2.9912   26.5784 H   0  0  0  0  0  0  0  0  0  0  0  0
    8.5211    1.2674   20.1191 H   0  0  0  0  0  0  0  0  0  0  0  0
    7.1150    2.4266   20.5100 H   0  0  0  0  0  0  0  0  0  0  0  0
    8.5200    3.4105   19.0685 H   0  0  0  0  0  0  0  0  0  0  0  0
    7.0083    3.1135   18.2575 H   0  0  0  0  0  0  0  0  0  0  0  0
  1  2  1  0
  2  3  2  0
  3  4  1  0
  4  5  2  0
  5  6  1  0
  6  7  2  0
  7  8  1  0
  8  9  1  0
  9 10  1  0
 10 11  2  0
 11 12  1  0
 12 13  2  0
 13 14  1  0
 14 15  1  0
 15 16  1  0
 16 17  1  0
 17 18  1  0
 18 19  1  0
 19 20  1  0
 14 21  2  0
  9 22  1  0
 22 23  1  0
  7  2  1  0
 21 10  1  0
 23  6  1  0
 20 15  1  0
  3 24  1  0
  4 25  1  0
  5 26  1  0
  8 27  1  0
  8 28  1  0
 11 29  1  0
 12 30  1  0
 16 31  1  0
 16 32  1  0
 17 33  1  0
 17 34  1  0
 18 35  1  0
 18 36  1  0
 19 37  1  0
 19 38  1  0
 20 39  1  0
 20 40  1  0
 22 41  1  0
 22 42  1  0
 23 43  1  0
 23 44  1  0
M  END
>  <Energy>  (388) 
479.33674577822268

>  <compound_id>  (388) 
21346

>  <target_id>  (388) 
1

>  <reference_id>  (388) 
44

>  <inspiration_ids>  (388) 
[146, 44]

>  <energy_score>  (388) 
515.1291601149989

>  <distance_score>  (388) 
6.773840429468632

>  <path>  (388) 
/opt/xchem-fragalysis-2/maxwin/BulkDock/SCRATCH/511013/C21346-P44/C21346-P44.minimised.mol

>  <scratch_subdir>  (388) 
/opt/xchem-fragalysis-2/maxwin/BulkDock/SCRATCH/511013/C21346-P44

>  <fragmenstein_runtime>  (388) 
6.046673059463501

>  <fragmenstein_outcome>  (388) 
too moved

>  <fragmenstein_mode>  (388) 
expansion

>  <fragmenstein_error>  (388) 


$$$$
C14266-P115
     RDKit          3D

 48 49  0  0  0  0  0  0  0  0999 V2000
    1.8395  -15.3298   18.4087 C   0  0  0  0  0  0  0  0  0  0  0  0
    1.0317  -15.8973   20.1691 C   0  0  0  0  0  0  0  0  0  0  0  0
    2.5666  -14.8302   19.1844 C   0  0  0  0  0  0  0  0  0  0  0  0
    0.2745  -15.3700   22.0570 C   0  0  0  0  0  0  0  0  0  0  0  0
    2.2127  -14.8416   21.3231 N   0  0  0  0  0  0  0  0  0  0  0  0
    3.3330  -13.3705   21.7054 C   0  0  0  0  0  0  0  0  0  0  0  0
    3.1400  -12.4625   22.5741 O   0  0  0  0  0  0  0  0  0  0  0  0
    4.8923  -12.9594   20.6629 C   0  0  0  0  0  0  0  0  0  0  0  0
    6.1777  -11.6430   20.6100 C   0  0  0  0  0  0  0  0  0  0  0  0
    6.4822  -10.8099   19.5063 C   0  0  0  0  0  0  0  0  0  0  0  0
    7.6112  -10.0449   19.6524 N   0  0  0  0  0  0  0  0  0  0  0  0
    7.9935  -10.3048   20.8655 C   0  0  0  0  0  0  0  0  0  0  0  0
    7.0332  -11.0221   21.5487 N   0  0  0  0  0  0  0  0  0  0  0  0
    6.8377  -10.7040   22.9472 C   0  0  0  0  0  0  0  0  0  0  0  0
   -1.1391  -15.8446   23.9080 C   0  0  0  0  0  0  0  0  0  0  0  0
   -0.7612  -14.4871   24.4158 C   0  0  0  0  0  0  0  0  0  0  0  0
   -1.0629  -17.4705   25.5056 N   0  0  0  0  0  0  0  0  0  0  0  0
   -1.9674  -18.7696   25.8574 C   0  0  0  0  0  0  0  0  0  0  0  0
   -2.8416  -19.2612   25.2973 O   0  0  0  0  0  0  0  0  0  0  0  0
   -1.7780  -19.4890   27.3288 C   0  0  0  0  0  0  0  0  0  0  0  0
   -3.0088  -19.4757   28.1236 C   0  0  0  0  0  0  0  0  0  0  0  0
   -3.0345  -20.1998   29.2988 N   0  0  0  0  0  0  0  0  0  0  0  0
   -1.8842  -20.7853   29.2895 C   0  0  0  0  0  0  0  0  0  0  0  0
   -1.2553  -20.5309   28.1061 N   0  0  0  0  0  0  0  0  0  0  0  0
    2.6073  -15.3711   17.4348 H   0  0  0  0  0  0  0  0  0  0  0  0
    1.1917  -14.5024   17.8266 H   0  0  0  0  0  0  0  0  0  0  0  0
    2.1810  -16.4707   18.0281 H   0  0  0  0  0  0  0  0  0  0  0  0
    0.4420  -16.7499   19.8358 H   0  0  0  0  0  0  0  0  0  0  0  0
    3.5617  -15.4559   18.8191 H   0  0  0  0  0  0  0  0  0  0  0  0
    2.7562  -13.9092   18.3731 H   0  0  0  0  0  0  0  0  0  0  0  0
    2.9068  -14.0978   19.8424 H   0  0  0  0  0  0  0  0  0  0  0  0
   -0.0544  -14.3564   22.1417 H   0  0  0  0  0  0  0  0  0  0  0  0
    2.6384  -15.4114   20.6837 H   0  0  0  0  0  0  0  0  0  0  0  0
    4.4786  -12.0160   20.9399 H   0  0  0  0  0  0  0  0  0  0  0  0
    4.6701  -13.0618   19.5973 H   0  0  0  0  0  0  0  0  0  0  0  0
    6.0010  -10.8112   18.5358 H   0  0  0  0  0  0  0  0  0  0  0  0
    8.8857   -9.9239   21.3411 H   0  0  0  0  0  0  0  0  0  0  0  0
    7.1675  -11.5338   23.5711 H   0  0  0  0  0  0  0  0  0  0  0  0
    7.4332   -9.8243   23.2131 H   0  0  0  0  0  0  0  0  0  0  0  0
    5.7921  -10.4394   23.0830 H   0  0  0  0  0  0  0  0  0  0  0  0
   -2.2395  -15.5608   23.9371 H   0  0  0  0  0  0  0  0  0  0  0  0
   -1.4348  -14.0466   25.1956 H   0  0  0  0  0  0  0  0  0  0  0  0
    0.3283  -14.3632   24.5549 H   0  0  0  0  0  0  0  0  0  0  0  0
   -0.6368  -13.9423   23.5432 H   0  0  0  0  0  0  0  0  0  0  0  0
   -0.3402  -17.3926   26.1821 H   0  0  0  0  0  0  0  0  0  0  0  0
   -3.8952  -18.8934   27.9246 H   0  0  0  0  0  0  0  0  0  0  0  0
   -1.5044  -21.4788   30.0267 H   0  0  0  0  0  0  0  0  0  0  0  0
   -0.6501  -21.2291   27.7377 H   0  0  0  0  0  0  0  0  0  0  0  0
  1  2  1  0
  2  3  1  0
  2  4  1  0
  4  5  1  0
  5  6  1  0
  6  7  2  0
  6  8  1  0
  8  9  1  0
  9 10  2  0
 10 11  1  0
 11 12  2  0
 12 13  1  0
 13 14  1  0
  4 15  1  0
 15 16  1  0
 15 17  1  0
 17 18  1  0
 18 19  2  0
 18 20  1  0
 20 21  2  0
 21 22  1  0
 22 23  2  0
 23 24  1  0
 13  9  1  0
 24 20  1  0
  1 25  1  0
  1 26  1  0
  1 27  1  0
  2 28  1  0
  3 29  1  0
  3 30  1  0
  3 31  1  0
  4 32  1  0
  5 33  1  0
  8 34  1  0
  8 35  1  0
 10 36  1  0
 12 37  1  0
 14 38  1  0
 14 39  1  0
 14 40  1  0
 15 41  1  0
 16 42  1  0
 16 43  1  0
 16 44  1  0
 17 45  1  0
 21 46  1  0
 23 47  1  0
 24 48  1  0
M  END
>  <Energy>  (389) 
1806.4145975891045

>  <compound_id>  (389) 
14266

>  <target_id>  (389) 
1

>  <reference_id>  (389) 
115

>  <inspiration_ids>  (389) 
[115, 63]

>  <energy_score>  (389) 
1774.8109201014945

>  <distance_score>  (389) 
11.4006274237066

>  <path>  (389) 
/opt/xchem-fragalysis-2/maxwin/BulkDock/SCRATCH/511013/C14266-P115/C14266-P115.minimised.mol

>  <scratch_subdir>  (389) 
/opt/xchem-fragalysis-2/maxwin/BulkDock/SCRATCH/511013/C14266-P115

>  <fragmenstein_runtime>  (389) 
24.57577681541443

>  <fragmenstein_outcome>  (389) 
too moved

>  <fragmenstein_mode>  (389) 
expansion

>  <fragmenstein_error>  (389) 


$$$$
C14266-P63
     RDKit          3D

 48 49  0  0  0  0  0  0  0  0999 V2000
    6.3480  -11.5328   20.8053 C   0  0  0  0  0  0  0  0  0  0  0  0
    5.6960  -10.8428   22.0794 C   0  0  0  0  0  0  0  0  0  0  0  0
    6.7893  -10.6637   23.1907 C   0  0  0  0  0  0  0  0  0  0  0  0
    3.9504  -11.5608   22.5924 C   0  0  0  0  0  0  0  0  0  0  0  0
    3.5075   -9.8230   22.4306 N   0  0  0  0  0  0  0  0  0  0  0  0
    4.3726   -8.5358   22.5341 C   0  0  0  0  0  0  0  0  0  0  0  0
    5.5381   -8.3933   22.8302 O   0  0  0  0  0  0  0  0  0  0  0  0
    3.4926   -7.3367   22.0635 C   0  0  0  0  0  0  0  0  0  0  0  0
    4.3387   -6.1177   21.8623 C   0  0  0  0  0  0  0  0  0  0  0  0
    4.4219   -4.9427   22.5848 C   0  0  0  0  0  0  0  0  0  0  0  0
    5.4600   -4.1641   22.1608 N   0  0  0  0  0  0  0  0  0  0  0  0
    6.0077   -4.8594   21.1952 C   0  0  0  0  0  0  0  0  0  0  0  0
    5.2910   -5.9744   20.8845 N   0  0  0  0  0  0  0  0  0  0  0  0
    5.5477   -6.8618   19.7785 C   0  0  0  0  0  0  0  0  0  0  0  0
    3.0574  -12.9485   23.8793 C   0  0  0  0  0  0  0  0  0  0  0  0
    4.0887  -14.0470   24.9967 C   0  0  0  0  0  0  0  0  0  0  0  0
    1.4591  -13.3225   24.9143 N   0  0  0  0  0  0  0  0  0  0  0  0
   -0.2795  -14.0680   24.3897 C   0  0  0  0  0  0  0  0  0  0  0  0
   -0.5093  -14.3052   23.2315 O   0  0  0  0  0  0  0  0  0  0  0  0
   -1.8755  -14.3498   25.4729 C   0  0  0  0  0  0  0  0  0  0  0  0
   -3.2201  -13.7352   25.4700 C   0  0  0  0  0  0  0  0  0  0  0  0
   -4.2664  -14.3909   26.0888 N   0  0  0  0  0  0  0  0  0  0  0  0
   -3.6626  -15.2309   26.8622 C   0  0  0  0  0  0  0  0  0  0  0  0
   -2.3222  -15.0367   26.7655 N   0  0  0  0  0  0  0  0  0  0  0  0
    6.5440  -10.7832   20.0279 H   0  0  0  0  0  0  0  0  0  0  0  0
    7.3215  -11.9664   21.0468 H   0  0  0  0  0  0  0  0  0  0  0  0
    5.7013  -12.2992   20.3682 H   0  0  0  0  0  0  0  0  0  0  0  0
    5.6166   -9.9065   21.5687 H   0  0  0  0  0  0  0  0  0  0  0  0
    7.6764  -10.1953   22.7464 H   0  0  0  0  0  0  0  0  0  0  0  0
    7.1331  -11.5908   23.6491 H   0  0  0  0  0  0  0  0  0  0  0  0
    6.4782  -10.0211   24.0096 H   0  0  0  0  0  0  0  0  0  0  0  0
    3.8340  -12.1809   21.7024 H   0  0  0  0  0  0  0  0  0  0  0  0
    2.5368   -9.5634   22.2346 H   0  0  0  0  0  0  0  0  0  0  0  0
    2.9800   -7.5949   21.1315 H   0  0  0  0  0  0  0  0  0  0  0  0
    2.7334   -7.1436   22.8289 H   0  0  0  0  0  0  0  0  0  0  0  0
    3.8127   -4.6432   23.4276 H   0  0  0  0  0  0  0  0  0  0  0  0
    6.9313   -4.6263   20.7057 H   0  0  0  0  0  0  0  0  0  0  0  0
    6.1168   -7.7210   20.1392 H   0  0  0  0  0  0  0  0  0  0  0  0
    6.1083   -6.3277   19.0084 H   0  0  0  0  0  0  0  0  0  0  0  0
    4.5938   -7.1882   19.3569 H   0  0  0  0  0  0  0  0  0  0  0  0
    2.9689  -13.7685   23.1819 H   0  0  0  0  0  0  0  0  0  0  0  0
    4.3843  -14.9489   24.4511 H   0  0  0  0  0  0  0  0  0  0  0  0
    3.6327  -14.2592   25.9497 H   0  0  0  0  0  0  0  0  0  0  0  0
    4.9866  -13.6348   25.5008 H   0  0  0  0  0  0  0  0  0  0  0  0
    1.4429  -13.1109   25.9011 H   0  0  0  0  0  0  0  0  0  0  0  0
   -3.4556  -12.7694   25.0545 H   0  0  0  0  0  0  0  0  0  0  0  0
   -4.1112  -15.9096   27.5758 H   0  0  0  0  0  0  0  0  0  0  0  0
   -1.7061  -15.3661   27.4873 H   0  0  0  0  0  0  0  0  0  0  0  0
  1  2  1  0
  2  3  1  0
  2  4  1  0
  4  5  1  0
  5  6  1  0
  6  7  2  0
  6  8  1  0
  8  9  1  0
  9 10  2  0
 10 11  1  0
 11 12  2  0
 12 13  1  0
 13 14  1  0
  4 15  1  0
 15 16  1  0
 15 17  1  0
 17 18  1  0
 18 19  2  0
 18 20  1  0
 20 21  2  0
 21 22  1  0
 22 23  2  0
 23 24  1  0
 13  9  1  0
 24 20  1  0
  1 25  1  0
  1 26  1  0
  1 27  1  0
  2 28  1  0
  3 29  1  0
  3 30  1  0
  3 31  1  0
  4 32  1  0
  5 33  1  0
  8 34  1  0
  8 35  1  0
 10 36  1  0
 12 37  1  0
 14 38  1  0
 14 39  1  0
 14 40  1  0
 15 41  1  0
 16 42  1  0
 16 43  1  0
 16 44  1  0
 17 45  1  0
 21 46  1  0
 23 47  1  0
 24 48  1  0
M  END
>  <Energy>  (390) 
590.04890815596593

>  <compound_id>  (390) 
14266

>  <target_id>  (390) 
1

>  <reference_id>  (390) 
63

>  <inspiration_ids>  (390) 
[115, 63]

>  <energy_score>  (390) 
558.4452306683122

>  <distance_score>  (390) 
12.545024171550098

>  <path>  (390) 
/opt/xchem-fragalysis-2/maxwin/BulkDock/SCRATCH/511013/C14266-P63/C14266-P63.minimised.mol

>  <scratch_subdir>  (390) 
/opt/xchem-fragalysis-2/maxwin/BulkDock/SCRATCH/511013/C14266-P63

>  <fragmenstein_runtime>  (390) 
60.421345949172974

>  <fragmenstein_outcome>  (390) 
too moved

>  <fragmenstein_mode>  (390) 
expansion

>  <fragmenstein_error>  (390) 


$$$$
C14267-P115
     RDKit          3D

 45 46  0  0  0  0  0  0  0  0999 V2000
    7.8872  -25.8542   23.4059 C   0  0  0  0  0  0  0  0  0  0  0  0
    7.6480  -25.2422   22.0321 C   0  0  0  0  0  0  0  0  0  0  0  0
    7.2141  -23.7551   22.1006 C   0  0  0  0  0  0  0  0  0  0  0  0
    5.8557  -23.7170   22.7555 N   0  0  0  0  0  0  0  0  0  0  0  0
    6.0851  -22.1719   22.6161 C   0  0  0  0  0  0  0  0  0  0  0  0
    5.9289  -21.4242   21.2330 C   0  0  0  0  0  0  0  0  0  0  0  0
    6.8871  -20.3490   20.8672 N   0  0  0  0  0  0  0  0  0  0  0  0
    8.2956  -20.3986   20.5649 C   0  0  0  0  0  0  0  0  0  0  0  0
    9.0708  -21.3091   20.6099 O   0  0  0  0  0  0  0  0  0  0  0  0
    8.8318  -19.1164   20.0142 C   0  0  0  0  0  0  0  0  0  0  0  0
    8.2717  -18.0232   19.3593 C   0  0  0  0  0  0  0  0  0  0  0  0
    9.1970  -17.0374   19.0587 N   0  0  0  0  0  0  0  0  0  0  0  0
   10.3414  -17.5260   19.4621 C   0  0  0  0  0  0  0  0  0  0  0  0
   10.1774  -18.7645   20.0244 N   0  0  0  0  0  0  0  0  0  0  0  0
    4.5565  -24.0769   22.2475 C   0  0  0  0  0  0  0  0  0  0  0  0
    4.2162  -24.4127   21.1426 O   0  0  0  0  0  0  0  0  0  0  0  0
    3.4816  -24.1316   23.3216 C   0  0  0  0  0  0  0  0  0  0  0  0
    2.1587  -24.5238   23.1074 C   0  0  0  0  0  0  0  0  0  0  0  0
    1.5657  -24.6167   24.3364 N   0  0  0  0  0  0  0  0  0  0  0  0
    0.1974  -25.0085   24.5937 C   0  0  0  0  0  0  0  0  0  0  0  0
    0.0371  -26.5145   24.7000 C   0  0  0  0  0  0  0  0  0  0  0  0
    2.5009  -24.2737   25.2667 C   0  0  0  0  0  0  0  0  0  0  0  0
    3.6473  -23.9436   24.6987 N   0  0  0  0  0  0  0  0  0  0  0  0
    8.6454  -25.2913   23.9593 H   0  0  0  0  0  0  0  0  0  0  0  0
    6.9694  -25.8736   24.0015 H   0  0  0  0  0  0  0  0  0  0  0  0
    8.2401  -26.8851   23.3016 H   0  0  0  0  0  0  0  0  0  0  0  0
    8.5769  -25.3089   21.4528 H   0  0  0  0  0  0  0  0  0  0  0  0
    6.8930  -25.8322   21.4991 H   0  0  0  0  0  0  0  0  0  0  0  0
    7.1972  -23.4638   21.0463 H   0  0  0  0  0  0  0  0  0  0  0  0
    8.0193  -23.2674   22.6699 H   0  0  0  0  0  0  0  0  0  0  0  0
    5.2461  -21.7796   23.2135 H   0  0  0  0  0  0  0  0  0  0  0  0
    6.9482  -21.8151   23.2001 H   0  0  0  0  0  0  0  0  0  0  0  0
    5.9094  -22.1177   20.3874 H   0  0  0  0  0  0  0  0  0  0  0  0
    4.9456  -20.9399   21.2417 H   0  0  0  0  0  0  0  0  0  0  0  0
    6.5659  -19.3843   20.7972 H   0  0  0  0  0  0  0  0  0  0  0  0
    7.2274  -17.8642   19.1378 H   0  0  0  0  0  0  0  0  0  0  0  0
   11.3096  -17.0513   19.3766 H   0  0  0  0  0  0  0  0  0  0  0  0
   10.9081  -19.3538   20.3983 H   0  0  0  0  0  0  0  0  0  0  0  0
    1.6426  -24.7748   22.1905 H   0  0  0  0  0  0  0  0  0  0  0  0
   -0.1204  -24.5245   25.5237 H   0  0  0  0  0  0  0  0  0  0  0  0
   -0.4211  -24.6103   23.7818 H   0  0  0  0  0  0  0  0  0  0  0  0
    0.6505  -26.9202   25.5116 H   0  0  0  0  0  0  0  0  0  0  0  0
    0.3405  -27.0109   23.7721 H   0  0  0  0  0  0  0  0  0  0  0  0
   -1.0076  -26.7723   24.8992 H   0  0  0  0  0  0  0  0  0  0  0  0
    2.3052  -24.2706   26.3305 H   0  0  0  0  0  0  0  0  0  0  0  0
  1  2  1  0
  2  3  1  0
  3  4  1  0
  4  5  1  0
  5  6  1  0
  6  7  1  0
  7  8  1  0
  8  9  2  0
  8 10  1  0
 10 11  2  0
 11 12  1  0
 12 13  2  0
 13 14  1  0
  4 15  1  0
 15 16  2  0
 15 17  1  0
 17 18  2  0
 18 19  1  0
 19 20  1  0
 20 21  1  0
 19 22  1  0
 22 23  2  0
 14 10  1  0
 23 17  1  0
  1 24  1  0
  1 25  1  0
  1 26  1  0
  2 27  1  0
  2 28  1  0
  3 29  1  0
  3 30  1  0
  5 31  1  0
  5 32  1  0
  6 33  1  0
  6 34  1  0
  7 35  1  0
 11 36  1  0
 13 37  1  0
 14 38  1  0
 18 39  1  0
 20 40  1  0
 20 41  1  0
 21 42  1  0
 21 43  1  0
 21 44  1  0
 22 45  1  0
M  END
>  <Energy>  (391) 
82.326861863987119

>  <compound_id>  (391) 
14267

>  <target_id>  (391) 
1

>  <reference_id>  (391) 
115

>  <inspiration_ids>  (391) 
[115, 63]

>  <energy_score>  (391) 
52.28239452277353

>  <distance_score>  (391) 
16.364936132536897

>  <path>  (391) 
/opt/xchem-fragalysis-2/maxwin/BulkDock/SCRATCH/511013/C14267-P115/C14267-P115.minimised.mol

>  <scratch_subdir>  (391) 
/opt/xchem-fragalysis-2/maxwin/BulkDock/SCRATCH/511013/C14267-P115

>  <fragmenstein_runtime>  (391) 
27.51180362701416

>  <fragmenstein_outcome>  (391) 
too moved

>  <fragmenstein_mode>  (391) 
expansion

>  <fragmenstein_error>  (391) 


$$$$
C14267-P63
     RDKit          3D

 45 46  0  0  0  0  0  0  0  0999 V2000
   -1.5682  -17.2858   20.3903 C   0  0  0  0  0  0  0  0  0  0  0  0
   -0.8768  -18.1210   21.6736 C   0  0  0  0  0  0  0  0  0  0  0  0
   -1.3065  -19.0448   23.3986 C   0  0  0  0  0  0  0  0  0  0  0  0
   -1.2512  -18.3866   25.4480 N   0  0  0  0  0  0  0  0  0  0  0  0
   -2.1988  -16.7341   24.8340 C   0  0  0  0  0  0  0  0  0  0  0  0
   -1.2252  -14.9368   24.3157 C   0  0  0  0  0  0  0  0  0  0  0  0
    0.3106  -14.0571   23.3813 N   0  0  0  0  0  0  0  0  0  0  0  0
    1.8645  -13.1558   24.0560 C   0  0  0  0  0  0  0  0  0  0  0  0
    1.9799  -12.9711   25.2164 O   0  0  0  0  0  0  0  0  0  0  0  0
    3.1532  -12.5377   22.8186 C   0  0  0  0  0  0  0  0  0  0  0  0
    4.1275  -11.5009   22.3802 C   0  0  0  0  0  0  0  0  0  0  0  0
    5.0241  -11.6424   21.1501 N   0  0  0  0  0  0  0  0  0  0  0  0
    4.5799  -12.7151   20.6120 C   0  0  0  0  0  0  0  0  0  0  0  0
    3.5166  -13.1806   21.3986 N   0  0  0  0  0  0  0  0  0  0  0  0
   -2.0571  -19.0092   26.6951 C   0  0  0  0  0  0  0  0  0  0  0  0
   -2.9140  -19.8469   26.7375 O   0  0  0  0  0  0  0  0  0  0  0  0
   -1.7524  -18.4875   28.0440 C   0  0  0  0  0  0  0  0  0  0  0  0
   -2.7084  -18.5365   29.0619 C   0  0  0  0  0  0  0  0  0  0  0  0
   -2.0462  -18.2633   30.2115 N   0  0  0  0  0  0  0  0  0  0  0  0
   -2.6136  -18.2511   31.5421 C   0  0  0  0  0  0  0  0  0  0  0  0
   -3.2326  -16.9088   31.8890 C   0  0  0  0  0  0  0  0  0  0  0  0
   -0.7420  -18.0449   29.8780 C   0  0  0  0  0  0  0  0  0  0  0  0
   -0.5281  -18.1712   28.5823 N   0  0  0  0  0  0  0  0  0  0  0  0
   -2.6305  -17.0460   20.4503 H   0  0  0  0  0  0  0  0  0  0  0  0
   -1.5253  -17.7989   19.4281 H   0  0  0  0  0  0  0  0  0  0  0  0
   -1.0028  -16.3739   20.2522 H   0  0  0  0  0  0  0  0  0  0  0  0
    0.1810  -18.0589   21.5095 H   0  0  0  0  0  0  0  0  0  0  0  0
   -1.3752  -18.8877   21.2133 H   0  0  0  0  0  0  0  0  0  0  0  0
   -0.1862  -19.2642   23.5315 H   0  0  0  0  0  0  0  0  0  0  0  0
   -1.7450  -20.0849   23.3267 H   0  0  0  0  0  0  0  0  0  0  0  0
   -3.1447  -16.2011   24.8487 H   0  0  0  0  0  0  0  0  0  0  0  0
   -2.5101  -16.7180   25.9076 H   0  0  0  0  0  0  0  0  0  0  0  0
   -1.6177  -14.2860   25.1482 H   0  0  0  0  0  0  0  0  0  0  0  0
   -0.2996  -14.9996   24.6240 H   0  0  0  0  0  0  0  0  0  0  0  0
    0.4182  -14.2058   22.3801 H   0  0  0  0  0  0  0  0  0  0  0  0
    4.6533  -10.6517   22.8008 H   0  0  0  0  0  0  0  0  0  0  0  0
    4.8994  -13.1272   19.6621 H   0  0  0  0  0  0  0  0  0  0  0  0
    3.0184  -14.0138   21.1550 H   0  0  0  0  0  0  0  0  0  0  0  0
   -3.7546  -18.8122   29.0285 H   0  0  0  0  0  0  0  0  0  0  0  0
   -1.8161  -18.5013   32.2503 H   0  0  0  0  0  0  0  0  0  0  0  0
   -3.3657  -19.0467   31.5910 H   0  0  0  0  0  0  0  0  0  0  0  0
   -2.4867  -16.1079   31.8454 H   0  0  0  0  0  0  0  0  0  0  0  0
   -3.6504  -16.9332   32.9001 H   0  0  0  0  0  0  0  0  0  0  0  0
   -4.0382  -16.6522   31.1925 H   0  0  0  0  0  0  0  0  0  0  0  0
    0.0154  -17.7984   30.6107 H   0  0  0  0  0  0  0  0  0  0  0  0
  1  2  1  0
  2  3  1  0
  3  4  1  0
  4  5  1  0
  5  6  1  0
  6  7  1  0
  7  8  1  0
  8  9  2  0
  8 10  1  0
 10 11  2  0
 11 12  1  0
 12 13  2  0
 13 14  1  0
  4 15  1  0
 15 16  2  0
 15 17  1  0
 17 18  2  0
 18 19  1  0
 19 20  1  0
 20 21  1  0
 19 22  1  0
 22 23  2  0
 14 10  1  0
 23 17  1  0
  1 24  1  0
  1 25  1  0
  1 26  1  0
  2 27  1  0
  2 28  1  0
  3 29  1  0
  3 30  1  0
  5 31  1  0
  5 32  1  0
  6 33  1  0
  6 34  1  0
  7 35  1  0
 11 36  1  0
 13 37  1  0
 14 38  1  0
 18 39  1  0
 20 40  1  0
 20 41  1  0
 21 42  1  0
 21 43  1  0
 21 44  1  0
 22 45  1  0
M  END
>  <Energy>  (392) 
890.26809134892983

>  <compound_id>  (392) 
14267

>  <target_id>  (392) 
1

>  <reference_id>  (392) 
63

>  <inspiration_ids>  (392) 
[115, 63]

>  <energy_score>  (392) 
860.2236240077092

>  <distance_score>  (392) 
13.76497088183608

>  <path>  (392) 
/opt/xchem-fragalysis-2/maxwin/BulkDock/SCRATCH/511013/C14267-P63/C14267-P63.minimised.mol

>  <scratch_subdir>  (392) 
/opt/xchem-fragalysis-2/maxwin/BulkDock/SCRATCH/511013/C14267-P63

>  <fragmenstein_runtime>  (392) 
38.56903672218323

>  <fragmenstein_outcome>  (392) 
too moved

>  <fragmenstein_mode>  (392) 
expansion

>  <fragmenstein_error>  (392) 


$$$$
C14268-P115
     RDKit          3D

 40 41  0  0  0  0  0  0  0  0999 V2000
    3.0458  -14.4560   23.5601 C   0  0  0  0  0  0  0  0  0  0  0  0
    1.7406  -13.4958   24.1234 N   0  0  0  0  0  0  0  0  0  0  0  0
    2.6051  -12.4403   23.4257 C   0  0  0  0  0  0  0  0  0  0  0  0
    3.9622  -11.9574   22.5417 C   0  0  0  0  0  0  0  0  0  0  0  0
    5.4383  -10.9626   23.1599 N   0  0  0  0  0  0  0  0  0  0  0  0
    6.6597  -11.3747   24.0501 C   0  0  0  0  0  0  0  0  0  0  0  0
    6.8999  -12.4142   24.6173 O   0  0  0  0  0  0  0  0  0  0  0  0
    7.7457  -10.3738   24.1326 C   0  0  0  0  0  0  0  0  0  0  0  0
    7.9009   -9.1378   24.7449 C   0  0  0  0  0  0  0  0  0  0  0  0
    9.0469   -8.4900   24.3200 N   0  0  0  0  0  0  0  0  0  0  0  0
    9.6611   -9.3554   23.5519 C   0  0  0  0  0  0  0  0  0  0  0  0
    8.9526  -10.5217   23.4610 N   0  0  0  0  0  0  0  0  0  0  0  0
    0.0992  -14.2435   23.7240 C   0  0  0  0  0  0  0  0  0  0  0  0
   -0.2507  -13.8636   22.6992 O   0  0  0  0  0  0  0  0  0  0  0  0
   -1.4462  -15.4298   24.5873 C   0  0  0  0  0  0  0  0  0  0  0  0
   -2.0668  -14.4586   25.5430 O   0  0  0  0  0  0  0  0  0  0  0  0
   -2.2051  -17.2494   25.4492 C   0  0  0  0  0  0  0  0  0  0  0  0
   -2.3343  -19.1525   25.8344 C   0  0  0  0  0  0  0  0  0  0  0  0
   -3.2012  -20.2775   25.2768 C   0  0  0  0  0  0  0  0  0  0  0  0
   -3.8751  -20.8632   26.3424 N   0  0  0  0  0  0  0  0  0  0  0  0
   -3.1970  -20.4818   27.4396 C   0  0  0  0  0  0  0  0  0  0  0  0
   -2.2584  -19.5825   27.1421 N   0  0  0  0  0  0  0  0  0  0  0  0
    3.8443  -14.3459   24.2966 H   0  0  0  0  0  0  0  0  0  0  0  0
    3.0334  -15.5008   23.4726 H   0  0  0  0  0  0  0  0  0  0  0  0
    3.1454  -14.2910   22.5118 H   0  0  0  0  0  0  0  0  0  0  0  0
    3.1791  -12.5488   24.2613 H   0  0  0  0  0  0  0  0  0  0  0  0
    1.8450  -11.7429   23.3506 H   0  0  0  0  0  0  0  0  0  0  0  0
    4.1271  -12.3765   21.5348 H   0  0  0  0  0  0  0  0  0  0  0  0
    3.6190  -10.9817   22.4160 H   0  0  0  0  0  0  0  0  0  0  0  0
    5.5113  -10.0269   22.9249 H   0  0  0  0  0  0  0  0  0  0  0  0
    7.1942   -8.6376   25.3949 H   0  0  0  0  0  0  0  0  0  0  0  0
   10.6118   -9.2090   23.0564 H   0  0  0  0  0  0  0  0  0  0  0  0
    9.2285  -11.3430   22.9419 H   0  0  0  0  0  0  0  0  0  0  0  0
   -2.2450  -15.3715   23.8657 H   0  0  0  0  0  0  0  0  0  0  0  0
   -2.0780  -14.8474   26.4320 H   0  0  0  0  0  0  0  0  0  0  0  0
   -2.6247  -16.9460   26.4251 H   0  0  0  0  0  0  0  0  0  0  0  0
   -1.2216  -17.7139   25.8292 H   0  0  0  0  0  0  0  0  0  0  0  0
   -3.5984  -20.5110   24.3017 H   0  0  0  0  0  0  0  0  0  0  0  0
   -4.6074  -21.5534   26.2816 H   0  0  0  0  0  0  0  0  0  0  0  0
   -3.3995  -20.8857   28.4218 H   0  0  0  0  0  0  0  0  0  0  0  0
  1  2  1  0
  2  3  1  0
  3  4  1  0
  4  5  1  0
  5  6  1  0
  6  7  2  0
  6  8  1  0
  8  9  2  0
  9 10  1  0
 10 11  2  0
 11 12  1  0
  2 13  1  0
 13 14  2  0
 13 15  1  0
 15 16  1  0
 15 17  1  0
 17 18  1  0
 18 19  2  0
 19 20  1  0
 20 21  1  0
 21 22  2  0
 12  8  1  0
 22 18  1  0
  1 23  1  0
  1 24  1  0
  1 25  1  0
  3 26  1  0
  3 27  1  0
  4 28  1  0
  4 29  1  0
  5 30  1  0
  9 31  1  0
 11 32  1  0
 12 33  1  0
 15 34  1  0
 16 35  1  0
 17 36  1  0
 17 37  1  0
 19 38  1  0
 20 39  1  0
 21 40  1  0
M  END
>  <Energy>  (393) 
750.71044091377883

>  <compound_id>  (393) 
14268

>  <target_id>  (393) 
1

>  <reference_id>  (393) 
115

>  <inspiration_ids>  (393) 
[115, 63]

>  <energy_score>  (393) 
713.996062157003

>  <distance_score>  (393) 
11.59182299590428

>  <path>  (393) 
/opt/xchem-fragalysis-2/maxwin/BulkDock/SCRATCH/511013/C14268-P115/C14268-P115.minimised.mol

>  <scratch_subdir>  (393) 
/opt/xchem-fragalysis-2/maxwin/BulkDock/SCRATCH/511013/C14268-P115

>  <fragmenstein_runtime>  (393) 
27.507396697998047

>  <fragmenstein_outcome>  (393) 
too moved

>  <fragmenstein_mode>  (393) 
expansion

>  <fragmenstein_error>  (393) 


$$$$
C14268-P63
     RDKit          3D

 40 41  0  0  0  0  0  0  0  0999 V2000
    0.0714  -17.2414   21.0976 C   0  0  0  0  0  0  0  0  0  0  0  0
   -0.6675  -16.1395   21.0954 N   0  0  0  0  0  0  0  0  0  0  0  0
    0.7332  -16.0456   19.7560 C   0  0  0  0  0  0  0  0  0  0  0  0
    2.2267  -14.8550   18.8140 C   0  0  0  0  0  0  0  0  0  0  0  0
    3.7260  -13.8196   18.6220 N   0  0  0  0  0  0  0  0  0  0  0  0
    4.5733  -12.9184   19.7232 C   0  0  0  0  0  0  0  0  0  0  0  0
    4.3734  -12.8319   20.8986 O   0  0  0  0  0  0  0  0  0  0  0  0
    5.9207  -12.0844   19.3331 C   0  0  0  0  0  0  0  0  0  0  0  0
    6.2934  -11.0654   18.4147 C   0  0  0  0  0  0  0  0  0  0  0  0
    7.5415  -10.5304   18.6269 N   0  0  0  0  0  0  0  0  0  0  0  0
    8.0033  -11.2134   19.6368 C   0  0  0  0  0  0  0  0  0  0  0  0
    7.0629  -12.0796   20.1174 N   0  0  0  0  0  0  0  0  0  0  0  0
   -0.8628  -15.0902   22.6416 C   0  0  0  0  0  0  0  0  0  0  0  0
   -0.1828  -14.1238   23.0063 O   0  0  0  0  0  0  0  0  0  0  0  0
   -2.2157  -15.6404   24.1896 C   0  0  0  0  0  0  0  0  0  0  0  0
   -3.5311  -15.3891   23.7277 O   0  0  0  0  0  0  0  0  0  0  0  0
   -2.2413  -17.3517   25.4780 C   0  0  0  0  0  0  0  0  0  0  0  0
   -2.4842  -19.3108   25.8166 C   0  0  0  0  0  0  0  0  0  0  0  0
   -2.9002  -19.9983   27.0061 C   0  0  0  0  0  0  0  0  0  0  0  0
   -3.9323  -20.9185   26.7348 N   0  0  0  0  0  0  0  0  0  0  0  0
   -3.9088  -21.1737   25.4117 C   0  0  0  0  0  0  0  0  0  0  0  0
   -3.1036  -20.3253   24.8314 N   0  0  0  0  0  0  0  0  0  0  0  0
   -0.4936  -17.6153   20.2420 H   0  0  0  0  0  0  0  0  0  0  0  0
    0.9575  -17.7292   21.2200 H   0  0  0  0  0  0  0  0  0  0  0  0
   -0.4532  -17.9246   21.7521 H   0  0  0  0  0  0  0  0  0  0  0  0
    0.8544  -17.0344   19.2680 H   0  0  0  0  0  0  0  0  0  0  0  0
    1.3275  -15.7900   20.6047 H   0  0  0  0  0  0  0  0  0  0  0  0
    2.6739  -15.5555   18.1127 H   0  0  0  0  0  0  0  0  0  0  0  0
    2.5062  -14.7014   19.8450 H   0  0  0  0  0  0  0  0  0  0  0  0
    4.0636  -13.6313   17.7221 H   0  0  0  0  0  0  0  0  0  0  0  0
    5.6794  -10.6396   17.6273 H   0  0  0  0  0  0  0  0  0  0  0  0
    8.9795  -11.1026   20.0895 H   0  0  0  0  0  0  0  0  0  0  0  0
    7.1569  -12.6239   20.9464 H   0  0  0  0  0  0  0  0  0  0  0  0
   -2.0022  -14.9189   24.9841 H   0  0  0  0  0  0  0  0  0  0  0  0
   -4.0317  -15.7640   24.4530 H   0  0  0  0  0  0  0  0  0  0  0  0
   -1.2313  -17.6805   25.8540 H   0  0  0  0  0  0  0  0  0  0  0  0
   -2.6122  -16.9588   26.4439 H   0  0  0  0  0  0  0  0  0  0  0  0
   -2.8001  -19.9269   28.0379 H   0  0  0  0  0  0  0  0  0  0  0  0
   -4.4490  -21.4248   27.4372 H   0  0  0  0  0  0  0  0  0  0  0  0
   -4.4397  -21.9803   24.9282 H   0  0  0  0  0  0  0  0  0  0  0  0
  1  2  1  0
  2  3  1  0
  3  4  1  0
  4  5  1  0
  5  6  1  0
  6  7  2  0
  6  8  1  0
  8  9  2  0
  9 10  1  0
 10 11  2  0
 11 12  1  0
  2 13  1  0
 13 14  2  0
 13 15  1  0
 15 16  1  0
 15 17  1  0
 17 18  1  0
 18 19  2  0
 19 20  1  0
 20 21  1  0
 21 22  2  0
 12  8  1  0
 22 18  1  0
  1 23  1  0
  1 24  1  0
  1 25  1  0
  3 26  1  0
  3 27  1  0
  4 28  1  0
  4 29  1  0
  5 30  1  0
  9 31  1  0
 11 32  1  0
 12 33  1  0
 15 34  1  0
 16 35  1  0
 17 36  1  0
 17 37  1  0
 19 38  1  0
 20 39  1  0
 21 40  1  0
M  END
>  <Energy>  (394) 
921.54875841457181

>  <compound_id>  (394) 
14268

>  <target_id>  (394) 
1

>  <reference_id>  (394) 
63

>  <inspiration_ids>  (394) 
[115, 63]

>  <energy_score>  (394) 
884.8343796578298

>  <distance_score>  (394) 
11.517543205125223

>  <path>  (394) 
/opt/xchem-fragalysis-2/maxwin/BulkDock/SCRATCH/511013/C14268-P63/C14268-P63.minimised.mol

>  <scratch_subdir>  (394) 
/opt/xchem-fragalysis-2/maxwin/BulkDock/SCRATCH/511013/C14268-P63

>  <fragmenstein_runtime>  (394) 
33.5970299243927

>  <fragmenstein_outcome>  (394) 
too moved

>  <fragmenstein_mode>  (394) 
expansion

>  <fragmenstein_error>  (394) 


$$$$
C14269-P115
     RDKit          3D

 46 48  0  0  0  0  0  0  0  0999 V2000
   -4.2925  -12.4980   25.0219 C   0  0  0  0  0  0  0  0  0  0  0  0
   -3.1353  -13.3292   25.7088 C   0  0  0  0  0  0  0  0  0  0  0  0
   -2.7526  -15.0675   25.1829 C   0  0  0  0  0  0  0  0  0  0  0  0
   -2.7570  -15.0838   23.8333 C   0  0  0  0  0  0  0  0  0  0  0  0
   -1.6290  -15.0355   23.4287 O   0  0  0  0  0  0  0  0  0  0  0  0
   -4.0899  -15.0535   23.0798 N   0  0  0  0  0  0  0  0  0  0  0  0
   -4.3910  -14.9850   21.5563 C   0  0  0  0  0  0  0  0  0  0  0  0
   -4.6071  -13.5936   20.7452 C   0  0  0  0  0  0  0  0  0  0  0  0
   -3.4342  -12.8222   20.2336 N   0  0  0  0  0  0  0  0  0  0  0  0
   -3.2378  -12.1083   18.9924 C   0  0  0  0  0  0  0  0  0  0  0  0
   -3.9359  -12.0206   18.0253 O   0  0  0  0  0  0  0  0  0  0  0  0
   -2.0040  -11.2730   18.9701 C   0  0  0  0  0  0  0  0  0  0  0  0
   -1.3548  -10.4868   19.9137 C   0  0  0  0  0  0  0  0  0  0  0  0
   -0.2543   -9.8275   19.4002 N   0  0  0  0  0  0  0  0  0  0  0  0
   -0.2329  -10.1517   18.1304 C   0  0  0  0  0  0  0  0  0  0  0  0
   -1.2727  -10.9875   17.8192 N   0  0  0  0  0  0  0  0  0  0  0  0
   -5.5852  -12.6967   21.4874 C   0  0  0  0  0  0  0  0  0  0  0  0
   -5.3263  -11.2437   21.8270 C   0  0  0  0  0  0  0  0  0  0  0  0
   -6.2989  -11.5913   20.7397 C   0  0  0  0  0  0  0  0  0  0  0  0
   -2.6827  -16.7381   25.9428 N   0  0  0  0  0  0  0  0  0  0  0  0
   -2.0539  -17.9696   25.7715 C   0  0  0  0  0  0  0  0  0  0  0  0
   -1.0958  -18.1605   26.6510 C   0  0  0  0  0  0  0  0  0  0  0  0
   -1.3376  -17.2943   27.5617 N   0  0  0  0  0  0  0  0  0  0  0  0
   -2.4373  -16.6426   27.3056 C   0  0  0  0  0  0  0  0  0  0  0  0
   -5.0537  -13.1179   24.5467 H   0  0  0  0  0  0  0  0  0  0  0  0
   -3.9129  -11.7749   24.2977 H   0  0  0  0  0  0  0  0  0  0  0  0
   -4.7941  -11.8932   25.7884 H   0  0  0  0  0  0  0  0  0  0  0  0
   -3.2646  -13.2290   26.8056 H   0  0  0  0  0  0  0  0  0  0  0  0
   -2.2853  -12.6806   25.6072 H   0  0  0  0  0  0  0  0  0  0  0  0
   -1.7791  -14.8028   25.4672 H   0  0  0  0  0  0  0  0  0  0  0  0
   -4.8517  -15.0279   23.7455 H   0  0  0  0  0  0  0  0  0  0  0  0
   -3.6424  -15.5467   21.0017 H   0  0  0  0  0  0  0  0  0  0  0  0
   -5.3347  -15.5387   21.4744 H   0  0  0  0  0  0  0  0  0  0  0  0
   -5.1204  -13.9037   19.8243 H   0  0  0  0  0  0  0  0  0  0  0  0
   -2.6032  -12.7419   20.7925 H   0  0  0  0  0  0  0  0  0  0  0  0
   -1.6367  -10.3474   20.9480 H   0  0  0  0  0  0  0  0  0  0  0  0
    0.4854   -9.8175   17.3935 H   0  0  0  0  0  0  0  0  0  0  0  0
   -1.4962  -11.3482   16.9014 H   0  0  0  0  0  0  0  0  0  0  0  0
   -6.2139  -13.2657   22.1650 H   0  0  0  0  0  0  0  0  0  0  0  0
   -5.7355  -10.8545   22.7529 H   0  0  0  0  0  0  0  0  0  0  0  0
   -4.3972  -10.7726   21.5330 H   0  0  0  0  0  0  0  0  0  0  0  0
   -7.3556  -11.4444   20.9346 H   0  0  0  0  0  0  0  0  0  0  0  0
   -6.0147  -11.3790   19.7146 H   0  0  0  0  0  0  0  0  0  0  0  0
   -2.4209  -18.9109   25.4582 H   0  0  0  0  0  0  0  0  0  0  0  0
   -0.2627  -18.7661   26.5032 H   0  0  0  0  0  0  0  0  0  0  0  0
   -2.7831  -15.8153   27.9076 H   0  0  0  0  0  0  0  0  0  0  0  0
  1  2  1  0
  2  3  1  0
  3  4  1  0
  4  5  2  0
  4  6  1  0
  6  7  1  0
  7  8  1  0
  8  9  1  0
  9 10  1  0
 10 11  2  0
 10 12  1  0
 12 13  2  0
 13 14  1  0
 14 15  2  0
 15 16  1  0
  8 17  1  0
 17 18  1  0
 18 19  1  0
  3 20  1  0
 20 21  1  0
 21 22  2  0
 22 23  1  0
 23 24  2  0
 16 12  1  0
 19 17  1  0
 24 20  1  0
  1 25  1  0
  1 26  1  0
  1 27  1  0
  2 28  1  0
  2 29  1  0
  3 30  1  0
  6 31  1  0
  7 32  1  0
  7 33  1  0
  8 34  1  0
  9 35  1  0
 13 36  1  0
 15 37  1  0
 16 38  1  0
 17 39  1  0
 18 40  1  0
 18 41  1  0
 19 42  1  0
 19 43  1  0
 21 44  1  0
 22 45  1  0
 24 46  1  0
M  END
>  <Energy>  (395) 
224.22401138990966

>  <compound_id>  (395) 
14269

>  <target_id>  (395) 
1

>  <reference_id>  (395) 
115

>  <inspiration_ids>  (395) 
[115, 63]

>  <energy_score>  (395) 
201.83751934014845

>  <distance_score>  (395) 
15.10891251917102

>  <path>  (395) 
/opt/xchem-fragalysis-2/maxwin/BulkDock/SCRATCH/511013/C14269-P115/C14269-P115.minimised.mol

>  <scratch_subdir>  (395) 
/opt/xchem-fragalysis-2/maxwin/BulkDock/SCRATCH/511013/C14269-P115

>  <fragmenstein_runtime>  (395) 
59.09735560417175

>  <fragmenstein_outcome>  (395) 
too moved

>  <fragmenstein_mode>  (395) 
expansion

>  <fragmenstein_error>  (395) 


$$$$
C14269-P63
     RDKit          3D

 46 48  0  0  0  0  0  0  0  0999 V2000
   -1.6981  -18.6549   26.6863 C   0  0  0  0  0  0  0  0  0  0  0  0
   -0.3506  -18.1048   26.8735 C   0  0  0  0  0  0  0  0  0  0  0  0
    0.9821  -17.8182   27.8819 C   0  0  0  0  0  0  0  0  0  0  0  0
    1.8357  -16.3960   28.1116 C   0  0  0  0  0  0  0  0  0  0  0  0
    1.1817  -15.6599   28.7378 O   0  0  0  0  0  0  0  0  0  0  0  0
    3.3037  -16.0040   27.4241 N   0  0  0  0  0  0  0  0  0  0  0  0
    4.2052  -14.3517   27.2973 C   0  0  0  0  0  0  0  0  0  0  0  0
    5.6834  -12.9689   27.1494 C   0  0  0  0  0  0  0  0  0  0  0  0
    6.3463  -12.3583   25.9158 N   0  0  0  0  0  0  0  0  0  0  0  0
    7.7398  -12.0021   25.6564 C   0  0  0  0  0  0  0  0  0  0  0  0
    8.7239  -12.1762   26.3160 O   0  0  0  0  0  0  0  0  0  0  0  0
    7.9990  -11.1999   24.4259 C   0  0  0  0  0  0  0  0  0  0  0  0
    7.2615  -10.4959   23.4834 C   0  0  0  0  0  0  0  0  0  0  0  0
    8.0493   -9.7819   22.6019 N   0  0  0  0  0  0  0  0  0  0  0  0
    9.2784  -10.0071   22.9887 C   0  0  0  0  0  0  0  0  0  0  0  0
    9.3021  -10.8410   24.0691 N   0  0  0  0  0  0  0  0  0  0  0  0
    5.6318  -11.8509   28.2272 C   0  0  0  0  0  0  0  0  0  0  0  0
    6.0293  -10.3891   28.0423 C   0  0  0  0  0  0  0  0  0  0  0  0
    6.8520  -11.2658   28.9266 C   0  0  0  0  0  0  0  0  0  0  0  0
    0.3907  -18.5858   29.4583 N   0  0  0  0  0  0  0  0  0  0  0  0
    0.0908  -19.8550   29.8118 C   0  0  0  0  0  0  0  0  0  0  0  0
    1.1205  -19.9979   30.6829 C   0  0  0  0  0  0  0  0  0  0  0  0
    1.6626  -18.8045   30.9460 N   0  0  0  0  0  0  0  0  0  0  0  0
    0.8589  -17.8982   30.5272 C   0  0  0  0  0  0  0  0  0  0  0  0
   -2.0045  -18.5245   25.6737 H   0  0  0  0  0  0  0  0  0  0  0  0
   -2.4471  -18.0499   27.2051 H   0  0  0  0  0  0  0  0  0  0  0  0
   -1.7180  -19.6870   26.9380 H   0  0  0  0  0  0  0  0  0  0  0  0
    0.0598  -18.4383   25.9630 H   0  0  0  0  0  0  0  0  0  0  0  0
   -0.9365  -17.2459   27.0892 H   0  0  0  0  0  0  0  0  0  0  0  0
    0.3234  -17.0706   28.0321 H   0  0  0  0  0  0  0  0  0  0  0  0
    3.6176  -16.7726   26.8775 H   0  0  0  0  0  0  0  0  0  0  0  0
    4.5778  -14.6931   28.2109 H   0  0  0  0  0  0  0  0  0  0  0  0
    4.3867  -14.6214   26.2476 H   0  0  0  0  0  0  0  0  0  0  0  0
    6.6719  -13.3151   27.4108 H   0  0  0  0  0  0  0  0  0  0  0  0
    5.7767  -11.9903   25.1902 H   0  0  0  0  0  0  0  0  0  0  0  0
    6.1916  -10.4214   23.3849 H   0  0  0  0  0  0  0  0  0  0  0  0
   10.1765   -9.6018   22.5414 H   0  0  0  0  0  0  0  0  0  0  0  0
   10.1196  -11.1300   24.5909 H   0  0  0  0  0  0  0  0  0  0  0  0
    4.7900  -12.0262   28.8388 H   0  0  0  0  0  0  0  0  0  0  0  0
    5.4061   -9.6406   28.5225 H   0  0  0  0  0  0  0  0  0  0  0  0
    6.5133  -10.0317   27.1451 H   0  0  0  0  0  0  0  0  0  0  0  0
    6.7836  -11.1113   29.9990 H   0  0  0  0  0  0  0  0  0  0  0  0
    7.8464  -11.5336   28.5915 H   0  0  0  0  0  0  0  0  0  0  0  0
   -0.5100  -20.5510   29.2223 H   0  0  0  0  0  0  0  0  0  0  0  0
    1.7661  -20.7907   30.9670 H   0  0  0  0  0  0  0  0  0  0  0  0
    0.9068  -16.8331   30.6941 H   0  0  0  0  0  0  0  0  0  0  0  0
  1  2  1  0
  2  3  1  0
  3  4  1  0
  4  5  2  0
  4  6  1  0
  6  7  1  0
  7  8  1  0
  8  9  1  0
  9 10  1  0
 10 11  2  0
 10 12  1  0
 12 13  2  0
 13 14  1  0
 14 15  2  0
 15 16  1  0
  8 17  1  0
 17 18  1  0
 18 19  1  0
  3 20  1  0
 20 21  1  0
 21 22  2  0
 22 23  1  0
 23 24  2  0
 16 12  1  0
 19 17  1  0
 24 20  1  0
  1 25  1  0
  1 26  1  0
  1 27  1  0
  2 28  1  0
  2 29  1  0
  3 30  1  0
  6 31  1  0
  7 32  1  0
  7 33  1  0
  8 34  1  0
  9 35  1  0
 13 36  1  0
 15 37  1  0
 16 38  1  0
 17 39  1  0
 18 40  1  0
 18 41  1  0
 19 42  1  0
 19 43  1  0
 21 44  1  0
 22 45  1  0
 24 46  1  0
M  END
>  <Energy>  (396) 
481.46807248577221

>  <compound_id>  (396) 
14269

>  <target_id>  (396) 
1

>  <reference_id>  (396) 
63

>  <inspiration_ids>  (396) 
[115, 63]

>  <energy_score>  (396) 
459.0815804360175

>  <distance_score>  (396) 
12.781087989424412

>  <path>  (396) 
/opt/xchem-fragalysis-2/maxwin/BulkDock/SCRATCH/511013/C14269-P63/C14269-P63.minimised.mol

>  <scratch_subdir>  (396) 
/opt/xchem-fragalysis-2/maxwin/BulkDock/SCRATCH/511013/C14269-P63

>  <fragmenstein_runtime>  (396) 
39.01389265060425

>  <fragmenstein_outcome>  (396) 
too moved

>  <fragmenstein_mode>  (396) 
expansion

>  <fragmenstein_error>  (396) 


$$$$
C14270-P115
     RDKit          3D

 26 27  0  0  0  0  0  0  0  0999 V2000
    0.5550  -18.8271   24.1757 O   0  0  0  0  0  0  0  0  0  0  0  0
   -0.1804  -18.9637   23.1385 C   0  0  0  0  0  0  0  0  0  0  0  0
   -0.2610  -17.9785   21.4875 N   0  0  0  0  0  0  0  0  0  0  0  0
    0.6597  -16.3408   20.8518 C   0  0  0  0  0  0  0  0  0  0  0  0
    2.2060  -15.2022   19.9501 C   0  0  0  0  0  0  0  0  0  0  0  0
    2.9853  -13.6516   19.5101 C   0  0  0  0  0  0  0  0  0  0  0  0
    3.8938  -12.7987   20.1632 C   0  0  0  0  0  0  0  0  0  0  0  0
    4.3704  -11.8033   19.3343 N   0  0  0  0  0  0  0  0  0  0  0  0
    3.8444  -12.0602   18.1624 C   0  0  0  0  0  0  0  0  0  0  0  0
    3.0356  -13.1693   18.2011 N   0  0  0  0  0  0  0  0  0  0  0  0
   -1.3399  -20.0830   23.2064 N   0  0  0  0  0  0  0  0  0  0  0  0
   -2.4468  -20.5905   22.6903 C   0  0  0  0  0  0  0  0  0  0  0  0
   -2.9623  -20.7444   23.8568 C   0  0  0  0  0  0  0  0  0  0  0  0
   -1.9442  -21.5245   24.1483 N   0  0  0  0  0  0  0  0  0  0  0  0
   -0.9594  -21.3596   23.3823 C   0  0  0  0  0  0  0  0  0  0  0  0
   -1.0357  -18.3181   20.9186 H   0  0  0  0  0  0  0  0  0  0  0  0
    0.0235  -16.3736   19.9481 H   0  0  0  0  0  0  0  0  0  0  0  0
    0.2406  -15.7569   21.6531 H   0  0  0  0  0  0  0  0  0  0  0  0
    3.1777  -15.5463   19.4086 H   0  0  0  0  0  0  0  0  0  0  0  0
    1.8733  -15.3291   18.7792 H   0  0  0  0  0  0  0  0  0  0  0  0
    4.2111  -12.8600   21.1975 H   0  0  0  0  0  0  0  0  0  0  0  0
    4.0120  -11.5015   17.2517 H   0  0  0  0  0  0  0  0  0  0  0  0
    2.5632  -13.5759   17.4065 H   0  0  0  0  0  0  0  0  0  0  0  0
   -2.8505  -20.8292   21.6972 H   0  0  0  0  0  0  0  0  0  0  0  0
   -3.9419  -20.8465   24.3465 H   0  0  0  0  0  0  0  0  0  0  0  0
   -0.0673  -21.8987   23.2677 H   0  0  0  0  0  0  0  0  0  0  0  0
  1  2  2  0
  2  3  1  0
  3  4  1  0
  4  5  1  0
  5  6  1  0
  6  7  2  0
  7  8  1  0
  8  9  2  0
  9 10  1  0
  2 11  1  0
 11 12  1  0
 12 13  2  0
 13 14  1  0
 14 15  2  0
 10  6  1  0
 15 11  1  0
  3 16  1  0
  4 17  1  0
  4 18  1  0
  5 19  1  0
  5 20  1  0
  7 21  1  0
  9 22  1  0
 10 23  1  0
 12 24  1  0
 13 25  1  0
 15 26  1  0
M  END
>  <Energy>  (397) 
578.55952877812695

>  <compound_id>  (397) 
14270

>  <target_id>  (397) 
1

>  <reference_id>  (397) 
115

>  <inspiration_ids>  (397) 
[115, 63]

>  <energy_score>  (397) 
533.6077362789041

>  <distance_score>  (397) 
13.947831864408613

>  <path>  (397) 
/opt/xchem-fragalysis-2/maxwin/BulkDock/SCRATCH/511013/C14270-P115/C14270-P115.minimised.mol

>  <scratch_subdir>  (397) 
/opt/xchem-fragalysis-2/maxwin/BulkDock/SCRATCH/511013/C14270-P115

>  <fragmenstein_runtime>  (397) 
8.450532913208008

>  <fragmenstein_outcome>  (397) 
too moved

>  <fragmenstein_mode>  (397) 
expansion

>  <fragmenstein_error>  (397) 


$$$$
C14270-P63
     RDKit          3D

 26 27  0  0  0  0  0  0  0  0999 V2000
   -2.4751  -12.4632   25.3165 O   0  0  0  0  0  0  0  0  0  0  0  0
   -1.5637  -13.1909   25.6626 C   0  0  0  0  0  0  0  0  0  0  0  0
    0.2344  -12.7724   26.1359 N   0  0  0  0  0  0  0  0  0  0  0  0
    1.0758  -11.1489   26.0646 C   0  0  0  0  0  0  0  0  0  0  0  0
    1.7513  -10.5407   24.4856 C   0  0  0  0  0  0  0  0  0  0  0  0
    2.7073   -9.3427   24.2902 C   0  0  0  0  0  0  0  0  0  0  0  0
    2.8271   -8.0647   24.8016 C   0  0  0  0  0  0  0  0  0  0  0  0
    3.8129   -7.3431   24.1553 N   0  0  0  0  0  0  0  0  0  0  0  0
    4.2927   -8.1463   23.2377 C   0  0  0  0  0  0  0  0  0  0  0  0
    3.6718   -9.3634   23.2835 N   0  0  0  0  0  0  0  0  0  0  0  0
   -2.0318  -14.6063   25.8382 N   0  0  0  0  0  0  0  0  0  0  0  0
   -2.0301  -15.4108   27.3247 C   0  0  0  0  0  0  0  0  0  0  0  0
   -2.3708  -16.7417   26.9966 C   0  0  0  0  0  0  0  0  0  0  0  0
   -2.6279  -16.7567   25.5705 N   0  0  0  0  0  0  0  0  0  0  0  0
   -2.5439  -15.5664   24.9742 C   0  0  0  0  0  0  0  0  0  0  0  0
    0.7721  -13.5993   26.2982 H   0  0  0  0  0  0  0  0  0  0  0  0
    0.3122  -10.3858   26.2993 H   0  0  0  0  0  0  0  0  0  0  0  0
    1.6137  -10.9945   27.0005 H   0  0  0  0  0  0  0  0  0  0  0  0
    0.9368  -10.2096   23.8361 H   0  0  0  0  0  0  0  0  0  0  0  0
    2.1827  -11.4121   23.9738 H   0  0  0  0  0  0  0  0  0  0  0  0
    2.2407   -7.6083   25.5895 H   0  0  0  0  0  0  0  0  0  0  0  0
    5.0701   -7.9115   22.5229 H   0  0  0  0  0  0  0  0  0  0  0  0
    3.8568  -10.1409   22.6630 H   0  0  0  0  0  0  0  0  0  0  0  0
   -1.7280  -14.8617   28.1927 H   0  0  0  0  0  0  0  0  0  0  0  0
   -2.4669  -17.6578   27.4958 H   0  0  0  0  0  0  0  0  0  0  0  0
   -2.8419  -15.3598   23.9719 H   0  0  0  0  0  0  0  0  0  0  0  0
  1  2  2  0
  2  3  1  0
  3  4  1  0
  4  5  1  0
  5  6  1  0
  6  7  2  0
  7  8  1  0
  8  9  2  0
  9 10  1  0
  2 11  1  0
 11 12  1  0
 12 13  2  0
 13 14  1  0
 14 15  2  0
 10  6  1  0
 15 11  1  0
  3 16  1  0
  4 17  1  0
  4 18  1  0
  5 19  1  0
  5 20  1  0
  7 21  1  0
  9 22  1  0
 10 23  1  0
 12 24  1  0
 13 25  1  0
 15 26  1  0
M  END
>  <Energy>  (398) 
227.36733920448467

>  <compound_id>  (398) 
14270

>  <target_id>  (398) 
1

>  <reference_id>  (398) 
63

>  <inspiration_ids>  (398) 
[115, 63]

>  <energy_score>  (398) 
182.41554670526295

>  <distance_score>  (398) 
14.236713360004943

>  <path>  (398) 
/opt/xchem-fragalysis-2/maxwin/BulkDock/SCRATCH/511013/C14270-P63/C14270-P63.minimised.mol

>  <scratch_subdir>  (398) 
/opt/xchem-fragalysis-2/maxwin/BulkDock/SCRATCH/511013/C14270-P63

>  <fragmenstein_runtime>  (398) 
12.916302680969238

>  <fragmenstein_outcome>  (398) 
too moved

>  <fragmenstein_mode>  (398) 
expansion

>  <fragmenstein_error>  (398) 


$$$$
C14271-P115
     RDKit          3D

 45 46  0  0  0  0  0  0  0  0999 V2000
    6.8695  -15.4490   32.6609 C   0  0  0  0  0  0  0  0  0  0  0  0
    6.7900  -15.2469   31.1553 C   0  0  0  0  0  0  0  0  0  0  0  0
    5.4935  -14.5414   30.7559 C   0  0  0  0  0  0  0  0  0  0  0  0
    5.4225  -14.1907   29.2633 C   0  0  0  0  0  0  0  0  0  0  0  0
    5.4594  -15.3941   28.3029 C   0  0  0  0  0  0  0  0  0  0  0  0
    5.4719  -14.9287   26.8142 C   0  0  0  0  0  0  0  0  0  0  0  0
    6.3288  -13.8228   26.3600 N   0  0  0  0  0  0  0  0  0  0  0  0
    7.7454  -13.7610   26.1284 C   0  0  0  0  0  0  0  0  0  0  0  0
    8.6034  -14.5714   26.3228 O   0  0  0  0  0  0  0  0  0  0  0  0
    8.1303  -12.4597   25.4299 C   0  0  0  0  0  0  0  0  0  0  0  0
    7.2527  -11.4028   25.1721 N   0  0  0  0  0  0  0  0  0  0  0  0
    7.9182  -10.5216   24.4519 C   0  0  0  0  0  0  0  0  0  0  0  0
    9.1921  -10.9371   24.2081 N   0  0  0  0  0  0  0  0  0  0  0  0
    9.3521  -12.1579   24.8235 C   0  0  0  0  0  0  0  0  0  0  0  0
   10.6181  -12.9264   24.7467 C   0  0  0  0  0  0  0  0  0  0  0  0
    4.3535  -16.3728   28.5919 N   0  0  0  0  0  0  0  0  0  0  0  0
    2.9552  -16.1602   28.9102 C   0  0  0  0  0  0  0  0  0  0  0  0
    2.3461  -15.1493   29.1005 O   0  0  0  0  0  0  0  0  0  0  0  0
    2.1508  -17.4133   29.0493 C   0  0  0  0  0  0  0  0  0  0  0  0
    0.8005  -17.4949   29.4154 C   0  0  0  0  0  0  0  0  0  0  0  0
    0.3216  -18.7829   29.4329 N   0  0  0  0  0  0  0  0  0  0  0  0
    1.3556  -19.5168   29.1120 C   0  0  0  0  0  0  0  0  0  0  0  0
    2.4699  -18.7479   28.8755 N   0  0  0  0  0  0  0  0  0  0  0  0
    6.8459  -14.4898   33.1878 H   0  0  0  0  0  0  0  0  0  0  0  0
    7.8009  -15.9589   32.9260 H   0  0  0  0  0  0  0  0  0  0  0  0
    6.0340  -16.0591   33.0191 H   0  0  0  0  0  0  0  0  0  0  0  0
    6.8566  -16.2258   30.6689 H   0  0  0  0  0  0  0  0  0  0  0  0
    7.6531  -14.6573   30.8256 H   0  0  0  0  0  0  0  0  0  0  0  0
    4.6346  -15.1573   31.0447 H   0  0  0  0  0  0  0  0  0  0  0  0
    5.4063  -13.6069   31.3248 H   0  0  0  0  0  0  0  0  0  0  0  0
    6.2578  -13.5172   29.0346 H   0  0  0  0  0  0  0  0  0  0  0  0
    4.5074  -13.6118   29.0904 H   0  0  0  0  0  0  0  0  0  0  0  0
    6.3885  -15.9508   28.4689 H   0  0  0  0  0  0  0  0  0  0  0  0
    4.4587  -14.6565   26.5223 H   0  0  0  0  0  0  0  0  0  0  0  0
    5.7444  -15.7939   26.1970 H   0  0  0  0  0  0  0  0  0  0  0  0
    5.9185  -12.9122   26.1523 H   0  0  0  0  0  0  0  0  0  0  0  0
    7.5325   -9.5816   24.0817 H   0  0  0  0  0  0  0  0  0  0  0  0
    9.8898  -10.4416   23.6688 H   0  0  0  0  0  0  0  0  0  0  0  0
   11.3926  -12.3720   24.2068 H   0  0  0  0  0  0  0  0  0  0  0  0
   10.9974  -13.1409   25.7507 H   0  0  0  0  0  0  0  0  0  0  0  0
   10.4576  -13.8752   24.2250 H   0  0  0  0  0  0  0  0  0  0  0  0
    4.5056  -17.3523   28.4178 H   0  0  0  0  0  0  0  0  0  0  0  0
    0.1536  -16.6588   29.6574 H   0  0  0  0  0  0  0  0  0  0  0  0
    1.3718  -20.5961   29.0329 H   0  0  0  0  0  0  0  0  0  0  0  0
    3.3702  -19.1242   28.6210 H   0  0  0  0  0  0  0  0  0  0  0  0
  1  2  1  0
  2  3  1  0
  3  4  1  0
  4  5  1  0
  5  6  1  0
  6  7  1  0
  7  8  1  0
  8  9  2  0
  8 10  1  0
 10 11  1  0
 11 12  2  0
 12 13  1  0
 13 14  1  0
 14 15  1  0
  5 16  1  0
 16 17  1  0
 17 18  2  0
 17 19  1  0
 19 20  2  0
 20 21  1  0
 21 22  2  0
 22 23  1  0
 14 10  2  0
 23 19  1  0
  1 24  1  0
  1 25  1  0
  1 26  1  0
  2 27  1  0
  2 28  1  0
  3 29  1  0
  3 30  1  0
  4 31  1  0
  4 32  1  0
  5 33  1  0
  6 34  1  0
  6 35  1  0
  7 36  1  0
 12 37  1  0
 13 38  1  0
 15 39  1  0
 15 40  1  0
 15 41  1  0
 16 42  1  0
 20 43  1  0
 22 44  1  0
 23 45  1  0
M  END
>  <Energy>  (399) 
7.3499355159303867

>  <compound_id>  (399) 
14271

>  <target_id>  (399) 
1

>  <reference_id>  (399) 
115

>  <inspiration_ids>  (399) 
[115, 63]

>  <energy_score>  (399) 
-20.38303983359441

>  <distance_score>  (399) 
14.36525212777905

>  <path>  (399) 
/opt/xchem-fragalysis-2/maxwin/BulkDock/SCRATCH/511013/C14271-P115/C14271-P115.minimised.mol

>  <scratch_subdir>  (399) 
/opt/xchem-fragalysis-2/maxwin/BulkDock/SCRATCH/511013/C14271-P115

>  <fragmenstein_runtime>  (399) 
39.75962471961975

>  <fragmenstein_outcome>  (399) 
too moved

>  <fragmenstein_mode>  (399) 
expansion

>  <fragmenstein_error>  (399) 


$$$$
C14271-P63
     RDKit          3D

 45 46  0  0  0  0  0  0  0  0999 V2000
   -1.8076  -13.9461   18.0520 C   0  0  0  0  0  0  0  0  0  0  0  0
   -1.9256  -15.0360   19.5943 C   0  0  0  0  0  0  0  0  0  0  0  0
   -2.1322  -14.7406   21.2511 C   0  0  0  0  0  0  0  0  0  0  0  0
   -2.7154  -15.0391   23.2597 C   0  0  0  0  0  0  0  0  0  0  0  0
   -1.8970  -15.0962   24.7437 C   0  0  0  0  0  0  0  0  0  0  0  0
    0.0172  -14.3047   24.4585 C   0  0  0  0  0  0  0  0  0  0  0  0
    1.5247  -13.1870   23.8472 N   0  0  0  0  0  0  0  0  0  0  0  0
    2.9324  -13.5268   23.5157 C   0  0  0  0  0  0  0  0  0  0  0  0
    3.5362  -14.5634   23.6419 O   0  0  0  0  0  0  0  0  0  0  0  0
    3.7115  -12.1128   22.6391 C   0  0  0  0  0  0  0  0  0  0  0  0
    3.8580  -12.7924   21.2468 N   0  0  0  0  0  0  0  0  0  0  0  0
    4.9028  -12.5562   20.4926 C   0  0  0  0  0  0  0  0  0  0  0  0
    5.6250  -11.5813   21.0383 N   0  0  0  0  0  0  0  0  0  0  0  0
    4.9118  -11.0171   22.4026 C   0  0  0  0  0  0  0  0  0  0  0  0
    6.1210  -10.4521   23.3348 C   0  0  0  0  0  0  0  0  0  0  0  0
   -2.5488  -16.5008   25.8627 N   0  0  0  0  0  0  0  0  0  0  0  0
   -2.4236  -16.7125   27.4918 C   0  0  0  0  0  0  0  0  0  0  0  0
   -1.9608  -15.9654   28.3242 O   0  0  0  0  0  0  0  0  0  0  0  0
   -2.8730  -17.9824   28.1395 C   0  0  0  0  0  0  0  0  0  0  0  0
   -3.4821  -18.1062   29.3900 C   0  0  0  0  0  0  0  0  0  0  0  0
   -3.7871  -19.4076   29.7141 N   0  0  0  0  0  0  0  0  0  0  0  0
   -3.3600  -20.1053   28.6924 C   0  0  0  0  0  0  0  0  0  0  0  0
   -2.7605  -19.3074   27.7558 N   0  0  0  0  0  0  0  0  0  0  0  0
   -2.3477  -12.9910   18.1632 H   0  0  0  0  0  0  0  0  0  0  0  0
   -2.1909  -14.4584   17.1573 H   0  0  0  0  0  0  0  0  0  0  0  0
   -0.8339  -13.5091   17.8060 H   0  0  0  0  0  0  0  0  0  0  0  0
   -1.8443  -14.0333   19.9866 H   0  0  0  0  0  0  0  0  0  0  0  0
   -1.1943  -15.8176   19.5732 H   0  0  0  0  0  0  0  0  0  0  0  0
   -1.1905  -14.9153   21.7415 H   0  0  0  0  0  0  0  0  0  0  0  0
   -2.7913  -15.6299   20.8356 H   0  0  0  0  0  0  0  0  0  0  0  0
   -3.6213  -15.5528   23.4265 H   0  0  0  0  0  0  0  0  0  0  0  0
   -1.6326  -15.0241   23.2316 H   0  0  0  0  0  0  0  0  0  0  0  0
   -1.4236  -15.9186   24.4574 H   0  0  0  0  0  0  0  0  0  0  0  0
   -0.7675  -13.6519   25.1017 H   0  0  0  0  0  0  0  0  0  0  0  0
   -0.2596  -14.0760   23.4136 H   0  0  0  0  0  0  0  0  0  0  0  0
    1.3721  -12.1600   23.6875 H   0  0  0  0  0  0  0  0  0  0  0  0
    5.1514  -13.0542   19.5758 H   0  0  0  0  0  0  0  0  0  0  0  0
    6.6180  -11.4521   20.9029 H   0  0  0  0  0  0  0  0  0  0  0  0
    5.8972   -9.4450   23.6967 H   0  0  0  0  0  0  0  0  0  0  0  0
    7.0559  -10.4051   22.7608 H   0  0  0  0  0  0  0  0  0  0  0  0
    6.3660  -11.1428   24.1472 H   0  0  0  0  0  0  0  0  0  0  0  0
   -2.8959  -17.3279   25.4500 H   0  0  0  0  0  0  0  0  0  0  0  0
   -3.7221  -17.2949   30.0664 H   0  0  0  0  0  0  0  0  0  0  0  0
   -3.4614  -21.1729   28.5582 H   0  0  0  0  0  0  0  0  0  0  0  0
   -2.5414  -19.5992   26.8181 H   0  0  0  0  0  0  0  0  0  0  0  0
  1  2  1  0
  2  3  1  0
  3  4  1  0
  4  5  1  0
  5  6  1  0
  6  7  1  0
  7  8  1  0
  8  9  2  0
  8 10  1  0
 10 11  1  0
 11 12  2  0
 12 13  1  0
 13 14  1  0
 14 15  1  0
  5 16  1  0
 16 17  1  0
 17 18  2  0
 17 19  1  0
 19 20  2  0
 20 21  1  0
 21 22  2  0
 22 23  1  0
 14 10  2  0
 23 19  1  0
  1 24  1  0
  1 25  1  0
  1 26  1  0
  2 27  1  0
  2 28  1  0
  3 29  1  0
  3 30  1  0
  4 31  1  0
  4 32  1  0
  5 33  1  0
  6 34  1  0
  6 35  1  0
  7 36  1  0
 12 37  1  0
 13 38  1  0
 15 39  1  0
 15 40  1  0
 15 41  1  0
 16 42  1  0
 20 43  1  0
 22 44  1  0
 23 45  1  0
M  END
>  <Energy>  (400) 
938.10686067273173

>  <compound_id>  (400) 
14271

>  <target_id>  (400) 
1

>  <reference_id>  (400) 
63

>  <inspiration_ids>  (400) 
[115, 63]

>  <energy_score>  (400) 
910.3738853231989

>  <distance_score>  (400) 
12.96558619794671

>  <path>  (400) 
/opt/xchem-fragalysis-2/maxwin/BulkDock/SCRATCH/511013/C14271-P63/C14271-P63.minimised.mol

>  <scratch_subdir>  (400) 
/opt/xchem-fragalysis-2/maxwin/BulkDock/SCRATCH/511013/C14271-P63

>  <fragmenstein_runtime>  (400) 
44.36687779426575

>  <fragmenstein_outcome>  (400) 
too moved

>  <fragmenstein_mode>  (400) 
expansion

>  <fragmenstein_error>  (400) 


$$$$
C14272-P115
     RDKit          3D

 45 46  0  0  0  0  0  0  0  0999 V2000
   -0.9323  -20.8787   28.5582 C   0  0  0  0  0  0  0  0  0  0  0  0
   -1.3240  -20.0281   27.1351 C   0  0  0  0  0  0  0  0  0  0  0  0
   -2.6183  -19.2935   26.0339 C   0  0  0  0  0  0  0  0  0  0  0  0
   -1.7918  -17.8849   25.7588 C   0  0  0  0  0  0  0  0  0  0  0  0
   -0.6891  -18.0150   26.1359 O   0  0  0  0  0  0  0  0  0  0  0  0
   -2.2172  -16.3296   24.8942 N   0  0  0  0  0  0  0  0  0  0  0  0
   -1.1250  -14.8529   24.3507 C   0  0  0  0  0  0  0  0  0  0  0  0
    0.8292  -14.2415   24.0032 C   0  0  0  0  0  0  0  0  0  0  0  0
    2.7083  -13.4478   23.4043 C   0  0  0  0  0  0  0  0  0  0  0  0
    3.4286  -13.4352   21.6040 C   0  0  0  0  0  0  0  0  0  0  0  0
    2.7048  -11.7700   23.1568 N   0  0  0  0  0  0  0  0  0  0  0  0
    4.0182  -10.6479   22.6673 C   0  0  0  0  0  0  0  0  0  0  0  0
    5.1765  -10.9121   22.4540 O   0  0  0  0  0  0  0  0  0  0  0  0
    3.8097   -9.0694   22.5792 C   0  0  0  0  0  0  0  0  0  0  0  0
    2.9138   -8.1063   22.1065 C   0  0  0  0  0  0  0  0  0  0  0  0
    3.4818   -6.8494   22.0078 N   0  0  0  0  0  0  0  0  0  0  0  0
    4.7390   -7.0088   22.3302 C   0  0  0  0  0  0  0  0  0  0  0  0
    4.9837   -8.2953   22.6979 N   0  0  0  0  0  0  0  0  0  0  0  0
   -4.3465  -20.0581   25.4798 N   0  0  0  0  0  0  0  0  0  0  0  0
   -5.5875  -20.0252   26.6602 C   0  0  0  0  0  0  0  0  0  0  0  0
   -5.7331  -21.3936   27.3256 C   0  0  0  0  0  0  0  0  0  0  0  0
   -5.1681  -22.0910   26.4482 N   0  0  0  0  0  0  0  0  0  0  0  0
   -4.8034  -21.2804   25.3747 C   0  0  0  0  0  0  0  0  0  0  0  0
   -0.5498  -21.8364   28.2802 H   0  0  0  0  0  0  0  0  0  0  0  0
   -1.7068  -21.0584   29.2989 H   0  0  0  0  0  0  0  0  0  0  0  0
   -0.2804  -20.3104   29.2267 H   0  0  0  0  0  0  0  0  0  0  0  0
   -0.9148  -19.0958   27.3916 H   0  0  0  0  0  0  0  0  0  0  0  0
   -2.1266  -20.1814   27.6736 H   0  0  0  0  0  0  0  0  0  0  0  0
   -2.9315  -18.7995   27.0055 H   0  0  0  0  0  0  0  0  0  0  0  0
   -3.1988  -16.3297   24.7106 H   0  0  0  0  0  0  0  0  0  0  0  0
   -1.4084  -14.9625   23.3210 H   0  0  0  0  0  0  0  0  0  0  0  0
   -1.5125  -14.1384   25.1076 H   0  0  0  0  0  0  0  0  0  0  0  0
    0.1391  -13.9151   23.1919 H   0  0  0  0  0  0  0  0  0  0  0  0
    0.9335  -13.8431   25.0537 H   0  0  0  0  0  0  0  0  0  0  0  0
    3.4465  -13.7404   24.1350 H   0  0  0  0  0  0  0  0  0  0  0  0
    2.8681  -13.9646   20.8397 H   0  0  0  0  0  0  0  0  0  0  0  0
    4.4422  -13.3488   21.1246 H   0  0  0  0  0  0  0  0  0  0  0  0
    3.6115  -12.4216   21.4969 H   0  0  0  0  0  0  0  0  0  0  0  0
    1.8355  -11.2861   23.1789 H   0  0  0  0  0  0  0  0  0  0  0  0
    1.9021   -8.2545   21.7468 H   0  0  0  0  0  0  0  0  0  0  0  0
    5.5061   -6.2470   22.3065 H   0  0  0  0  0  0  0  0  0  0  0  0
    5.8918   -8.7043   22.8778 H   0  0  0  0  0  0  0  0  0  0  0  0
   -6.4495  -19.5536   26.3863 H   0  0  0  0  0  0  0  0  0  0  0  0
   -6.6129  -21.8321   27.7786 H   0  0  0  0  0  0  0  0  0  0  0  0
   -5.0343  -21.5741   24.4068 H   0  0  0  0  0  0  0  0  0  0  0  0
  1  2  1  0
  2  3  1  0
  3  4  1  0
  4  5  2  0
  4  6  1  0
  6  7  1  0
  7  8  1  0
  8  9  1  0
  9 10  1  0
  9 11  1  0
 11 12  1  0
 12 13  2  0
 12 14  1  0
 14 15  2  0
 15 16  1  0
 16 17  2  0
 17 18  1  0
  3 19  1  0
 19 20  1  0
 20 21  2  0
 21 22  1  0
 22 23  2  0
 18 14  1  0
 23 19  1  0
  1 24  1  0
  1 25  1  0
  1 26  1  0
  2 27  1  0
  2 28  1  0
  3 29  1  0
  6 30  1  0
  7 31  1  0
  7 32  1  0
  8 33  1  0
  8 34  1  0
  9 35  1  0
 10 36  1  0
 10 37  1  0
 10 38  1  0
 11 39  1  0
 15 40  1  0
 17 41  1  0
 18 42  1  0
 20 43  1  0
 21 44  1  0
 23 45  1  0
M  END
>  <Energy>  (401) 
987.36938420937418

>  <compound_id>  (401) 
14272

>  <target_id>  (401) 
1

>  <reference_id>  (401) 
115

>  <inspiration_ids>  (401) 
[115, 63]

>  <energy_score>  (401) 
995.9075054504366

>  <distance_score>  (401) 
10.992470124844878

>  <path>  (401) 
/opt/xchem-fragalysis-2/maxwin/BulkDock/SCRATCH/511013/C14272-P115/C14272-P115.minimised.mol

>  <scratch_subdir>  (401) 
/opt/xchem-fragalysis-2/maxwin/BulkDock/SCRATCH/511013/C14272-P115

>  <fragmenstein_runtime>  (401) 
26.776359796524048

>  <fragmenstein_outcome>  (401) 
too moved

>  <fragmenstein_mode>  (401) 
expansion

>  <fragmenstein_error>  (401) 


$$$$
C14272-P63
     RDKit          3D

 45 46  0  0  0  0  0  0  0  0999 V2000
   -5.5223  -23.2149   24.1861 C   0  0  0  0  0  0  0  0  0  0  0  0
   -4.9531  -21.3545   24.5799 C   0  0  0  0  0  0  0  0  0  0  0  0
   -4.6514  -20.1549   25.7203 C   0  0  0  0  0  0  0  0  0  0  0  0
   -2.7434  -19.6224   25.1287 C   0  0  0  0  0  0  0  0  0  0  0  0
   -2.4446  -20.3280   24.1885 O   0  0  0  0  0  0  0  0  0  0  0  0
   -1.2559  -18.5544   25.6337 N   0  0  0  0  0  0  0  0  0  0  0  0
    0.6712  -18.5379   24.9858 C   0  0  0  0  0  0  0  0  0  0  0  0
    2.5942  -17.6185   24.5949 C   0  0  0  0  0  0  0  0  0  0  0  0
    3.4814  -15.8682   23.5640 C   0  0  0  0  0  0  0  0  0  0  0  0
    4.7491  -15.7472   24.3207 C   0  0  0  0  0  0  0  0  0  0  0  0
    3.5426  -13.9470   24.0376 N   0  0  0  0  0  0  0  0  0  0  0  0
    3.6128  -12.4942   23.0235 C   0  0  0  0  0  0  0  0  0  0  0  0
    3.5235  -12.5550   21.8503 O   0  0  0  0  0  0  0  0  0  0  0  0
    3.9865  -10.9009   23.4772 C   0  0  0  0  0  0  0  0  0  0  0  0
    5.0692  -10.3142   22.6722 C   0  0  0  0  0  0  0  0  0  0  0  0
    5.5080   -9.0490   22.9477 N   0  0  0  0  0  0  0  0  0  0  0  0
    4.7355   -8.7088   23.9190 C   0  0  0  0  0  0  0  0  0  0  0  0
    3.8455   -9.7082   24.2099 N   0  0  0  0  0  0  0  0  0  0  0  0
   -5.4109  -21.1543   27.1760 N   0  0  0  0  0  0  0  0  0  0  0  0
   -6.9518  -21.0251   27.6051 C   0  0  0  0  0  0  0  0  0  0  0  0
   -7.3781  -22.3038   27.6691 C   0  0  0  0  0  0  0  0  0  0  0  0
   -6.3623  -23.1189   27.5336 N   0  0  0  0  0  0  0  0  0  0  0  0
   -5.2715  -22.5072   27.3828 C   0  0  0  0  0  0  0  0  0  0  0  0
   -6.3162  -23.5783   24.8475 H   0  0  0  0  0  0  0  0  0  0  0  0
   -5.8673  -23.3067   23.1620 H   0  0  0  0  0  0  0  0  0  0  0  0
   -4.8150  -24.0396   24.2973 H   0  0  0  0  0  0  0  0  0  0  0  0
   -5.2309  -21.7557   25.4574 H   0  0  0  0  0  0  0  0  0  0  0  0
   -3.9599  -21.2598   24.3727 H   0  0  0  0  0  0  0  0  0  0  0  0
   -5.4579  -19.4581   25.7473 H   0  0  0  0  0  0  0  0  0  0  0  0
   -1.5233  -18.0507   26.4699 H   0  0  0  0  0  0  0  0  0  0  0  0
    0.6619  -18.7507   26.0680 H   0  0  0  0  0  0  0  0  0  0  0  0
    0.7148  -19.3111   24.2514 H   0  0  0  0  0  0  0  0  0  0  0  0
    3.1157  -18.4971   24.2002 H   0  0  0  0  0  0  0  0  0  0  0  0
    3.0639  -17.6609   25.6135 H   0  0  0  0  0  0  0  0  0  0  0  0
    2.6147  -15.2382   23.4388 H   0  0  0  0  0  0  0  0  0  0  0  0
    4.7098  -15.1559   25.2519 H   0  0  0  0  0  0  0  0  0  0  0  0
    5.2352  -15.1091   23.7263 H   0  0  0  0  0  0  0  0  0  0  0  0
    5.5251  -16.4759   24.2642 H   0  0  0  0  0  0  0  0  0  0  0  0
    3.5549  -13.6633   25.0163 H   0  0  0  0  0  0  0  0  0  0  0  0
    5.5478  -10.7791   21.8152 H   0  0  0  0  0  0  0  0  0  0  0  0
    4.7331   -7.7583   24.4362 H   0  0  0  0  0  0  0  0  0  0  0  0
    3.0965   -9.4560   24.8201 H   0  0  0  0  0  0  0  0  0  0  0  0
   -7.4586  -20.0846   27.4196 H   0  0  0  0  0  0  0  0  0  0  0  0
   -8.3386  -22.7268   27.9379 H   0  0  0  0  0  0  0  0  0  0  0  0
   -4.3986  -23.1147   27.3948 H   0  0  0  0  0  0  0  0  0  0  0  0
  1  2  1  0
  2  3  1  0
  3  4  1  0
  4  5  2  0
  4  6  1  0
  6  7  1  0
  7  8  1  0
  8  9  1  0
  9 10  1  0
  9 11  1  0
 11 12  1  0
 12 13  2  0
 12 14  1  0
 14 15  2  0
 15 16  1  0
 16 17  2  0
 17 18  1  0
  3 19  1  0
 19 20  1  0
 20 21  2  0
 21 22  1  0
 22 23  2  0
 18 14  1  0
 23 19  1  0
  1 24  1  0
  1 25  1  0
  1 26  1  0
  2 27  1  0
  2 28  1  0
  3 29  1  0
  6 30  1  0
  7 31  1  0
  7 32  1  0
  8 33  1  0
  8 34  1  0
  9 35  1  0
 10 36  1  0
 10 37  1  0
 10 38  1  0
 11 39  1  0
 15 40  1  0
 17 41  1  0
 18 42  1  0
 20 43  1  0
 21 44  1  0
 23 45  1  0
M  END
>  <Energy>  (402) 
1124.5479148670627

>  <compound_id>  (402) 
14272

>  <target_id>  (402) 
1

>  <reference_id>  (402) 
63

>  <inspiration_ids>  (402) 
[115, 63]

>  <energy_score>  (402) 
1133.0860361081436

>  <distance_score>  (402) 
11.240959085104532

>  <path>  (402) 
/opt/xchem-fragalysis-2/maxwin/BulkDock/SCRATCH/511013/C14272-P63/C14272-P63.minimised.mol

>  <scratch_subdir>  (402) 
/opt/xchem-fragalysis-2/maxwin/BulkDock/SCRATCH/511013/C14272-P63

>  <fragmenstein_runtime>  (402) 
36.34584140777588

>  <fragmenstein_outcome>  (402) 
too moved

>  <fragmenstein_mode>  (402) 
expansion

>  <fragmenstein_error>  (402) 


$$$$
C14273-P115
     RDKit          3D

 32 33  0  0  0  0  0  0  0  0999 V2000
    3.3570  -13.7351   24.8420 C   0  0  0  0  0  0  0  0  0  0  0  0
    1.5773  -13.1046   25.6688 C   0  0  0  0  0  0  0  0  0  0  0  0
    1.8912  -12.5770   24.5293 N   0  0  0  0  0  0  0  0  0  0  0  0
    1.0891  -13.7051   26.0797 C   0  0  0  0  0  0  0  0  0  0  0  0
   -0.4611  -14.3753   27.3542 C   0  0  0  0  0  0  0  0  0  0  0  0
   -1.7951  -14.8497   26.7766 N   0  0  0  0  0  0  0  0  0  0  0  0
   -2.2864  -15.7458   27.6057 C   0  0  0  0  0  0  0  0  0  0  0  0
   -2.1448  -15.0289   28.7502 C   0  0  0  0  0  0  0  0  0  0  0  0
   -0.7567  -15.2649   28.8046 N   0  0  0  0  0  0  0  0  0  0  0  0
   -0.4391  -15.3423   30.3323 C   0  0  0  0  0  0  0  0  0  0  0  0
    1.8941  -10.9520   24.1857 C   0  0  0  0  0  0  0  0  0  0  0  0
    1.5237  -10.0184   24.8142 O   0  0  0  0  0  0  0  0  0  0  0  0
    2.5691  -10.5771   22.9135 C   0  0  0  0  0  0  0  0  0  0  0  0
    3.5466  -11.1524   22.1119 C   0  0  0  0  0  0  0  0  0  0  0  0
    4.0373  -10.2741   21.1611 N   0  0  0  0  0  0  0  0  0  0  0  0
    3.4135   -9.1450   21.3827 C   0  0  0  0  0  0  0  0  0  0  0  0
    2.5295   -9.2741   22.4147 N   0  0  0  0  0  0  0  0  0  0  0  0
    3.2782  -14.2871   23.8651 H   0  0  0  0  0  0  0  0  0  0  0  0
    4.0394  -12.9861   24.3555 H   0  0  0  0  0  0  0  0  0  0  0  0
    3.9554  -14.3291   25.5639 H   0  0  0  0  0  0  0  0  0  0  0  0
    1.6454  -12.3245   26.7674 H   0  0  0  0  0  0  0  0  0  0  0  0
    1.1625  -11.9382   25.7687 H   0  0  0  0  0  0  0  0  0  0  0  0
    1.9532  -14.2378   26.8182 H   0  0  0  0  0  0  0  0  0  0  0  0
    0.6077  -14.3003   24.9286 H   0  0  0  0  0  0  0  0  0  0  0  0
   -2.9101  -16.5847   27.3291 H   0  0  0  0  0  0  0  0  0  0  0  0
   -2.7157  -14.9432   29.6799 H   0  0  0  0  0  0  0  0  0  0  0  0
   -1.3704  -15.4973   30.8969 H   0  0  0  0  0  0  0  0  0  0  0  0
    0.2538  -16.1745   30.5121 H   0  0  0  0  0  0  0  0  0  0  0  0
   -0.2301  -14.4362   30.9070 H   0  0  0  0  0  0  0  0  0  0  0  0
    3.9602  -12.1508   22.1912 H   0  0  0  0  0  0  0  0  0  0  0  0
    3.5580   -8.2177   20.8450 H   0  0  0  0  0  0  0  0  0  0  0  0
    1.9764   -8.5340   22.8240 H   0  0  0  0  0  0  0  0  0  0  0  0
  1  2  1  0
  2  3  1  0
  3  4  1  0
  4  5  1  0
  5  6  2  0
  6  7  1  0
  7  8  2  0
  8  9  1  0
  9 10  1  0
  3 11  1  0
 11 12  2  0
 11 13  1  0
 13 14  2  0
 14 15  1  0
 15 16  2  0
 16 17  1  0
  9  5  1  0
 17 13  1  0
  1 18  1  0
  1 19  1  0
  1 20  1  0
  2 21  1  0
  2 22  1  0
  4 23  1  0
  4 24  1  0
  7 25  1  0
  8 26  1  0
 10 27  1  0
 10 28  1  0
 10 29  1  0
 14 30  1  0
 16 31  1  0
 17 32  1  0
M  END
>  <Energy>  (403) 
1257.4924670230687

>  <compound_id>  (403) 
14273

>  <target_id>  (403) 
1

>  <reference_id>  (403) 
115

>  <inspiration_ids>  (403) 
[115, 63]

>  <energy_score>  (403) 
1250.9030934179602

>  <distance_score>  (403) 
14.172203710334518

>  <path>  (403) 
/opt/xchem-fragalysis-2/maxwin/BulkDock/SCRATCH/511013/C14273-P115/C14273-P115.minimised.mol

>  <scratch_subdir>  (403) 
/opt/xchem-fragalysis-2/maxwin/BulkDock/SCRATCH/511013/C14273-P115

>  <fragmenstein_runtime>  (403) 
9.350332975387573

>  <fragmenstein_outcome>  (403) 
too moved

>  <fragmenstein_mode>  (403) 
expansion

>  <fragmenstein_error>  (403) 


$$$$
C14273-P63
     RDKit          3D

 32 33  0  0  0  0  0  0  0  0999 V2000
   -6.3973  -13.4238   20.4088 C   0  0  0  0  0  0  0  0  0  0  0  0
   -5.5178  -13.0831   21.9938 C   0  0  0  0  0  0  0  0  0  0  0  0
   -4.3041  -12.5480   21.8512 N   0  0  0  0  0  0  0  0  0  0  0  0
   -5.9760  -13.2328   22.6423 C   0  0  0  0  0  0  0  0  0  0  0  0
   -6.4715  -14.8240   23.2081 C   0  0  0  0  0  0  0  0  0  0  0  0
   -6.2715  -15.9957   22.6287 N   0  0  0  0  0  0  0  0  0  0  0  0
   -7.1795  -16.8762   23.1945 C   0  0  0  0  0  0  0  0  0  0  0  0
   -7.8795  -16.2638   24.2024 C   0  0  0  0  0  0  0  0  0  0  0  0
   -7.4358  -14.9659   24.2049 N   0  0  0  0  0  0  0  0  0  0  0  0
   -7.9951  -13.9173   25.0251 C   0  0  0  0  0  0  0  0  0  0  0  0
   -3.2711  -13.0295   20.6811 C   0  0  0  0  0  0  0  0  0  0  0  0
   -3.3103  -13.8900   19.9122 O   0  0  0  0  0  0  0  0  0  0  0  0
   -2.1331  -12.0722   20.5901 C   0  0  0  0  0  0  0  0  0  0  0  0
   -1.9670  -10.7392   20.9440 C   0  0  0  0  0  0  0  0  0  0  0  0
   -0.7384  -10.2287   20.5553 N   0  0  0  0  0  0  0  0  0  0  0  0
   -0.1624  -11.2127   19.9068 C   0  0  0  0  0  0  0  0  0  0  0  0
   -0.9430  -12.3396   19.9203 N   0  0  0  0  0  0  0  0  0  0  0  0
   -7.3992  -12.9831   20.4741 H   0  0  0  0  0  0  0  0  0  0  0  0
   -6.4969  -14.5077   20.2814 H   0  0  0  0  0  0  0  0  0  0  0  0
   -5.8304  -12.9901   19.5795 H   0  0  0  0  0  0  0  0  0  0  0  0
   -4.9319  -14.1045   21.5740 H   0  0  0  0  0  0  0  0  0  0  0  0
   -5.7416  -11.9476   21.4853 H   0  0  0  0  0  0  0  0  0  0  0  0
   -6.9728  -12.4835   22.7960 H   0  0  0  0  0  0  0  0  0  0  0  0
   -5.6137  -12.9703   23.7939 H   0  0  0  0  0  0  0  0  0  0  0  0
   -7.2481  -17.9034   22.8558 H   0  0  0  0  0  0  0  0  0  0  0  0
   -8.6503  -16.6246   24.8694 H   0  0  0  0  0  0  0  0  0  0  0  0
   -7.1907  -13.2816   25.3993 H   0  0  0  0  0  0  0  0  0  0  0  0
   -8.6908  -13.3386   24.4126 H   0  0  0  0  0  0  0  0  0  0  0  0
   -8.5239  -14.3642   25.8712 H   0  0  0  0  0  0  0  0  0  0  0  0
   -2.6898  -10.1135   21.4520 H   0  0  0  0  0  0  0  0  0  0  0  0
    0.8011  -11.1851   19.4158 H   0  0  0  0  0  0  0  0  0  0  0  0
   -0.7257  -13.2337   19.4978 H   0  0  0  0  0  0  0  0  0  0  0  0
  1  2  1  0
  2  3  1  0
  3  4  1  0
  4  5  1  0
  5  6  2  0
  6  7  1  0
  7  8  2  0
  8  9  1  0
  9 10  1  0
  3 11  1  0
 11 12  2  0
 11 13  1  0
 13 14  2  0
 14 15  1  0
 15 16  2  0
 16 17  1  0
  9  5  1  0
 17 13  1  0
  1 18  1  0
  1 19  1  0
  1 20  1  0
  2 21  1  0
  2 22  1  0
  4 23  1  0
  4 24  1  0
  7 25  1  0
  8 26  1  0
 10 27  1  0
 10 28  1  0
 10 29  1  0
 14 30  1  0
 16 31  1  0
 17 32  1  0
M  END
>  <Energy>  (404) 
759.78365067252696

>  <compound_id>  (404) 
14273

>  <target_id>  (404) 
1

>  <reference_id>  (404) 
63

>  <inspiration_ids>  (404) 
[115, 63]

>  <energy_score>  (404) 
753.1942770674251

>  <distance_score>  (404) 
15.722111458926966

>  <path>  (404) 
/opt/xchem-fragalysis-2/maxwin/BulkDock/SCRATCH/511013/C14273-P63/C14273-P63.minimised.mol

>  <scratch_subdir>  (404) 
/opt/xchem-fragalysis-2/maxwin/BulkDock/SCRATCH/511013/C14273-P63

>  <fragmenstein_runtime>  (404) 
24.654308319091797

>  <fragmenstein_outcome>  (404) 
too moved

>  <fragmenstein_mode>  (404) 
expansion

>  <fragmenstein_error>  (404) 


$$$$
C14274-P115
     RDKit          3D

 27 28  0  0  0  0  0  0  0  0999 V2000
   -2.4254  -12.1827   22.8911 C   0  0  0  0  0  0  0  0  0  0  0  0
   -2.1956  -13.1577   21.9615 C   0  0  0  0  0  0  0  0  0  0  0  0
   -1.1462  -12.6946   21.2045 N   0  0  0  0  0  0  0  0  0  0  0  0
   -0.8228  -11.4135   21.6245 C   0  0  0  0  0  0  0  0  0  0  0  0
    0.0817  -10.4025   20.8505 C   0  0  0  0  0  0  0  0  0  0  0  0
    1.5609  -10.6773   20.6751 N   0  0  0  0  0  0  0  0  0  0  0  0
    2.2911   -9.4259   20.1599 C   0  0  0  0  0  0  0  0  0  0  0  0
    3.8243   -9.5659   19.8570 C   0  0  0  0  0  0  0  0  0  0  0  0
    4.4780   -8.3344   19.2692 C   0  0  0  0  0  0  0  0  0  0  0  0
    4.6794   -7.9174   17.9643 C   0  0  0  0  0  0  0  0  0  0  0  0
    5.3823   -6.7381   17.9128 N   0  0  0  0  0  0  0  0  0  0  0  0
    5.6032   -6.4202   19.1659 C   0  0  0  0  0  0  0  0  0  0  0  0
    5.1027   -7.3627   20.0199 N   0  0  0  0  0  0  0  0  0  0  0  0
   -1.5634  -11.1217   22.6920 N   0  0  0  0  0  0  0  0  0  0  0  0
   -3.1560  -12.1687   23.6869 H   0  0  0  0  0  0  0  0  0  0  0  0
   -2.6541  -14.1147   21.7734 H   0  0  0  0  0  0  0  0  0  0  0  0
   -0.7060  -13.1955   20.4453 H   0  0  0  0  0  0  0  0  0  0  0  0
   -0.3634  -10.2622   19.8576 H   0  0  0  0  0  0  0  0  0  0  0  0
   -0.0184   -9.4510   21.3884 H   0  0  0  0  0  0  0  0  0  0  0  0
    1.6452  -11.3717   19.9278 H   0  0  0  0  0  0  0  0  0  0  0  0
    1.7846   -9.0997   19.2428 H   0  0  0  0  0  0  0  0  0  0  0  0
    2.1611   -8.6345   20.9081 H   0  0  0  0  0  0  0  0  0  0  0  0
    4.3422   -9.8437   20.7834 H   0  0  0  0  0  0  0  0  0  0  0  0
    3.9655  -10.3990   19.1570 H   0  0  0  0  0  0  0  0  0  0  0  0
    4.3602   -8.4132   17.0556 H   0  0  0  0  0  0  0  0  0  0  0  0
    6.1143   -5.5395   19.5294 H   0  0  0  0  0  0  0  0  0  0  0  0
    5.1774   -7.3321   21.0267 H   0  0  0  0  0  0  0  0  0  0  0  0
  1  2  2  0
  2  3  1  0
  3  4  1  0
  4  5  1  0
  5  6  1  0
  6  7  1  0
  7  8  1  0
  8  9  1  0
  9 10  2  0
 10 11  1  0
 11 12  2  0
 12 13  1  0
  4 14  2  0
 14  1  1  0
 13  9  1  0
  1 15  1  0
  2 16  1  0
  3 17  1  0
  5 18  1  0
  5 19  1  0
  6 20  1  0
  7 21  1  0
  7 22  1  0
  8 23  1  0
  8 24  1  0
 10 25  1  0
 12 26  1  0
 13 27  1  0
M  END
>  <Energy>  (405) 
29.962075172513085

>  <compound_id>  (405) 
14274

>  <target_id>  (405) 
1

>  <reference_id>  (405) 
115

>  <inspiration_ids>  (405) 
[115, 63]

>  <energy_score>  (405) 
-8.915493372574133

>  <distance_score>  (405) 
14.546575560431785

>  <path>  (405) 
/opt/xchem-fragalysis-2/maxwin/BulkDock/SCRATCH/511013/C14274-P115/C14274-P115.minimised.mol

>  <scratch_subdir>  (405) 
/opt/xchem-fragalysis-2/maxwin/BulkDock/SCRATCH/511013/C14274-P115

>  <fragmenstein_runtime>  (405) 
11.929935932159424

>  <fragmenstein_outcome>  (405) 
too moved

>  <fragmenstein_mode>  (405) 
expansion

>  <fragmenstein_error>  (405) 


$$$$
C14274-P63
     RDKit          3D

 27 28  0  0  0  0  0  0  0  0999 V2000
    5.4816  -19.3751   19.4228 C   0  0  0  0  0  0  0  0  0  0  0  0
    6.4014  -19.9433   20.2585 C   0  0  0  0  0  0  0  0  0  0  0  0
    7.2936  -18.9424   20.5372 N   0  0  0  0  0  0  0  0  0  0  0  0
    6.9932  -17.8484   19.7381 C   0  0  0  0  0  0  0  0  0  0  0  0
    8.0155  -16.6967   19.5551 C   0  0  0  0  0  0  0  0  0  0  0  0
    7.5384  -15.3810   19.0419 N   0  0  0  0  0  0  0  0  0  0  0  0
    8.6679  -14.4122   18.8228 C   0  0  0  0  0  0  0  0  0  0  0  0
    8.2569  -12.9841   18.3393 C   0  0  0  0  0  0  0  0  0  0  0  0
    9.4169  -12.1685   17.8426 C   0  0  0  0  0  0  0  0  0  0  0  0
   10.6125  -11.7962   18.4206 C   0  0  0  0  0  0  0  0  0  0  0  0
   11.4068  -11.1283   17.5270 N   0  0  0  0  0  0  0  0  0  0  0  0
   10.7102  -11.0750   16.4141 C   0  0  0  0  0  0  0  0  0  0  0  0
    9.4729  -11.6244   16.5775 N   0  0  0  0  0  0  0  0  0  0  0  0
    5.8306  -18.0713   19.1479 N   0  0  0  0  0  0  0  0  0  0  0  0
    4.6208  -19.8364   18.9547 H   0  0  0  0  0  0  0  0  0  0  0  0
    6.5371  -20.9531   20.6172 H   0  0  0  0  0  0  0  0  0  0  0  0
    8.1528  -19.0465   21.0583 H   0  0  0  0  0  0  0  0  0  0  0  0
    8.7778  -17.0800   18.8650 H   0  0  0  0  0  0  0  0  0  0  0  0
    8.5005  -16.5328   20.5259 H   0  0  0  0  0  0  0  0  0  0  0  0
    6.8772  -15.0079   19.7260 H   0  0  0  0  0  0  0  0  0  0  0  0
    9.3393  -14.8521   18.0746 H   0  0  0  0  0  0  0  0  0  0  0  0
    9.2374  -14.3138   19.7555 H   0  0  0  0  0  0  0  0  0  0  0  0
    7.7625  -12.4523   19.1609 H   0  0  0  0  0  0  0  0  0  0  0  0
    7.5176  -13.0861   17.5348 H   0  0  0  0  0  0  0  0  0  0  0  0
   10.9596  -12.0073   19.4238 H   0  0  0  0  0  0  0  0  0  0  0  0
   11.0414  -10.6402   15.4826 H   0  0  0  0  0  0  0  0  0  0  0  0
    8.7596  -11.6853   15.8638 H   0  0  0  0  0  0  0  0  0  0  0  0
  1  2  2  0
  2  3  1  0
  3  4  1  0
  4  5  1  0
  5  6  1  0
  6  7  1  0
  7  8  1  0
  8  9  1  0
  9 10  2  0
 10 11  1  0
 11 12  2  0
 12 13  1  0
  4 14  2  0
 14  1  1  0
 13  9  1  0
  1 15  1  0
  2 16  1  0
  3 17  1  0
  5 18  1  0
  5 19  1  0
  6 20  1  0
  7 21  1  0
  7 22  1  0
  8 23  1  0
  8 24  1  0
 10 25  1  0
 12 26  1  0
 13 27  1  0
M  END
>  <Energy>  (406) 
27.843470341691855

>  <compound_id>  (406) 
14274

>  <target_id>  (406) 
1

>  <reference_id>  (406) 
63

>  <inspiration_ids>  (406) 
[115, 63]

>  <energy_score>  (406) 
-11.034098203394365

>  <distance_score>  (406) 
16.207931290956154

>  <path>  (406) 
/opt/xchem-fragalysis-2/maxwin/BulkDock/SCRATCH/511013/C14274-P63/C14274-P63.minimised.mol

>  <scratch_subdir>  (406) 
/opt/xchem-fragalysis-2/maxwin/BulkDock/SCRATCH/511013/C14274-P63

>  <fragmenstein_runtime>  (406) 
12.473559379577637

>  <fragmenstein_outcome>  (406) 
too moved

>  <fragmenstein_mode>  (406) 
expansion

>  <fragmenstein_error>  (406) 


$$$$
C14276-P115
     RDKit          3D

 36 37  0  0  0  0  0  0  0  0999 V2000
   -3.1518   -9.3414   19.2582 C   0  0  0  0  0  0  0  0  0  0  0  0
   -2.7103   -9.9499   20.5789 C   0  0  0  0  0  0  0  0  0  0  0  0
   -2.4004   -8.8705   21.6123 C   0  0  0  0  0  0  0  0  0  0  0  0
   -1.9275   -9.4220   22.8713 N   0  0  0  0  0  0  0  0  0  0  0  0
   -2.7416   -9.7687   23.9228 C   0  0  0  0  0  0  0  0  0  0  0  0
   -1.8855  -10.1168   24.9311 C   0  0  0  0  0  0  0  0  0  0  0  0
   -0.5737  -10.0521   24.4995 N   0  0  0  0  0  0  0  0  0  0  0  0
   -0.6039   -9.5984   23.2473 C   0  0  0  0  0  0  0  0  0  0  0  0
    0.6011   -9.4570   22.2844 C   0  0  0  0  0  0  0  0  0  0  0  0
    1.3816   -8.1902   22.3613 N   0  0  0  0  0  0  0  0  0  0  0  0
    2.4717   -8.1311   21.3232 C   0  0  0  0  0  0  0  0  0  0  0  0
    3.3924   -6.8702   21.3774 C   0  0  0  0  0  0  0  0  0  0  0  0
    4.0503   -6.5741   20.0641 C   0  0  0  0  0  0  0  0  0  0  0  0
    3.5288   -6.0618   18.8904 C   0  0  0  0  0  0  0  0  0  0  0  0
    4.4729   -6.0099   17.9069 N   0  0  0  0  0  0  0  0  0  0  0  0
    5.5650   -6.4498   18.4765 C   0  0  0  0  0  0  0  0  0  0  0  0
    5.3828   -6.7608   19.7909 N   0  0  0  0  0  0  0  0  0  0  0  0
   -4.0532   -8.7341   19.3880 H   0  0  0  0  0  0  0  0  0  0  0  0
   -3.3749  -10.1303   18.5331 H   0  0  0  0  0  0  0  0  0  0  0  0
   -2.3660   -8.7058   18.8376 H   0  0  0  0  0  0  0  0  0  0  0  0
   -3.5019  -10.6098   20.9535 H   0  0  0  0  0  0  0  0  0  0  0  0
   -1.8293  -10.5799   20.4091 H   0  0  0  0  0  0  0  0  0  0  0  0
   -1.6421   -8.1710   21.2441 H   0  0  0  0  0  0  0  0  0  0  0  0
   -3.2985   -8.2810   21.8334 H   0  0  0  0  0  0  0  0  0  0  0  0
   -3.8192   -9.7008   23.8706 H   0  0  0  0  0  0  0  0  0  0  0  0
   -2.1436  -10.4027   25.9378 H   0  0  0  0  0  0  0  0  0  0  0  0
    1.2776  -10.2925   22.5037 H   0  0  0  0  0  0  0  0  0  0  0  0
    0.2484   -9.6004   21.2574 H   0  0  0  0  0  0  0  0  0  0  0  0
    1.7909   -8.1322   23.2945 H   0  0  0  0  0  0  0  0  0  0  0  0
    1.9813   -8.1753   20.3429 H   0  0  0  0  0  0  0  0  0  0  0  0
    3.1028   -9.0243   21.4108 H   0  0  0  0  0  0  0  0  0  0  0  0
    2.7855   -5.9980   21.6526 H   0  0  0  0  0  0  0  0  0  0  0  0
    4.1387   -6.9977   22.1702 H   0  0  0  0  0  0  0  0  0  0  0  0
    2.5074   -5.7547   18.7020 H   0  0  0  0  0  0  0  0  0  0  0  0
    6.5081   -6.5532   17.9849 H   0  0  0  0  0  0  0  0  0  0  0  0
    6.1018   -7.1015   20.4182 H   0  0  0  0  0  0  0  0  0  0  0  0
  1  2  1  0
  2  3  1  0
  3  4  1  0
  4  5  1  0
  5  6  2  0
  6  7  1  0
  7  8  2  0
  8  9  1  0
  9 10  1  0
 10 11  1  0
 11 12  1  0
 12 13  1  0
 13 14  2  0
 14 15  1  0
 15 16  2  0
 16 17  1  0
  8  4  1  0
 17 13  1  0
  1 18  1  0
  1 19  1  0
  1 20  1  0
  2 21  1  0
  2 22  1  0
  3 23  1  0
  3 24  1  0
  5 25  1  0
  6 26  1  0
  9 27  1  0
  9 28  1  0
 10 29  1  0
 11 30  1  0
 11 31  1  0
 12 32  1  0
 12 33  1  0
 14 34  1  0
 16 35  1  0
 17 36  1  0
M  END
>  <Energy>  (407) 
23.831512180499679

>  <compound_id>  (407) 
14276

>  <target_id>  (407) 
1

>  <reference_id>  (407) 
115

>  <inspiration_ids>  (407) 
[115, 63]

>  <energy_score>  (407) 
-19.252594340796463

>  <distance_score>  (407) 
15.141810339084406

>  <path>  (407) 
/opt/xchem-fragalysis-2/maxwin/BulkDock/SCRATCH/511013/C14276-P115/C14276-P115.minimised.mol

>  <scratch_subdir>  (407) 
/opt/xchem-fragalysis-2/maxwin/BulkDock/SCRATCH/511013/C14276-P115

>  <fragmenstein_runtime>  (407) 
24.805460929870605

>  <fragmenstein_outcome>  (407) 
too moved

>  <fragmenstein_mode>  (407) 
expansion

>  <fragmenstein_error>  (407) 


$$$$
C14276-P63
     RDKit          3D

 36 37  0  0  0  0  0  0  0  0999 V2000
   -7.7197  -18.0103   26.4504 C   0  0  0  0  0  0  0  0  0  0  0  0
   -6.6154  -18.6336   27.3027 C   0  0  0  0  0  0  0  0  0  0  0  0
   -6.2290  -20.0407   26.8406 C   0  0  0  0  0  0  0  0  0  0  0  0
   -5.1679  -20.4769   25.8507 N   0  0  0  0  0  0  0  0  0  0  0  0
   -5.7860  -21.3724   24.9568 C   0  0  0  0  0  0  0  0  0  0  0  0
   -6.2547  -20.4038   24.1612 C   0  0  0  0  0  0  0  0  0  0  0  0
   -5.2792  -19.3772   24.3292 N   0  0  0  0  0  0  0  0  0  0  0  0
   -3.9093  -19.6443   25.0066 C   0  0  0  0  0  0  0  0  0  0  0  0
   -2.4385  -18.0909   25.4264 C   0  0  0  0  0  0  0  0  0  0  0  0
   -2.3697  -16.2093   24.7140 N   0  0  0  0  0  0  0  0  0  0  0  0
   -1.2227  -15.1633   23.4353 C   0  0  0  0  0  0  0  0  0  0  0  0
    0.2512  -15.4369   21.8098 C   0  0  0  0  0  0  0  0  0  0  0  0
    2.0472  -14.8679   20.7138 C   0  0  0  0  0  0  0  0  0  0  0  0
    3.1600  -13.5675   20.6265 C   0  0  0  0  0  0  0  0  0  0  0  0
    3.8807  -13.1707   19.5327 N   0  0  0  0  0  0  0  0  0  0  0  0
    3.4423  -13.9199   18.5958 C   0  0  0  0  0  0  0  0  0  0  0  0
    2.4957  -14.7919   19.0214 N   0  0  0  0  0  0  0  0  0  0  0  0
   -8.6434  -18.5868   26.5389 H   0  0  0  0  0  0  0  0  0  0  0  0
   -7.4728  -17.9761   25.3876 H   0  0  0  0  0  0  0  0  0  0  0  0
   -7.9292  -16.9916   26.7913 H   0  0  0  0  0  0  0  0  0  0  0  0
   -7.0537  -18.7241   28.3025 H   0  0  0  0  0  0  0  0  0  0  0  0
   -5.7740  -17.9626   27.4507 H   0  0  0  0  0  0  0  0  0  0  0  0
   -6.0788  -20.7345   27.6596 H   0  0  0  0  0  0  0  0  0  0  0  0
   -7.1780  -20.4459   26.4681 H   0  0  0  0  0  0  0  0  0  0  0  0
   -6.2026  -22.3266   25.2490 H   0  0  0  0  0  0  0  0  0  0  0  0
   -7.0857  -20.3166   23.4749 H   0  0  0  0  0  0  0  0  0  0  0  0
   -2.4715  -17.6912   26.5016 H   0  0  0  0  0  0  0  0  0  0  0  0
   -1.5067  -18.5171   25.7847 H   0  0  0  0  0  0  0  0  0  0  0  0
   -2.4520  -15.5140   25.4296 H   0  0  0  0  0  0  0  0  0  0  0  0
   -0.8274  -14.4721   24.1852 H   0  0  0  0  0  0  0  0  0  0  0  0
   -2.1973  -14.8344   23.1404 H   0  0  0  0  0  0  0  0  0  0  0  0
   -0.3797  -15.8483   21.0191 H   0  0  0  0  0  0  0  0  0  0  0  0
    0.3521  -14.5368   22.4206 H   0  0  0  0  0  0  0  0  0  0  0  0
    3.4938  -13.0487   21.5347 H   0  0  0  0  0  0  0  0  0  0  0  0
    3.7377  -13.8702   17.5563 H   0  0  0  0  0  0  0  0  0  0  0  0
    1.8775  -15.2585   18.3681 H   0  0  0  0  0  0  0  0  0  0  0  0
  1  2  1  0
  2  3  1  0
  3  4  1  0
  4  5  1  0
  5  6  2  0
  6  7  1  0
  7  8  2  0
  8  9  1  0
  9 10  1  0
 10 11  1  0
 11 12  1  0
 12 13  1  0
 13 14  2  0
 14 15  1  0
 15 16  2  0
 16 17  1  0
  8  4  1  0
 17 13  1  0
  1 18  1  0
  1 19  1  0
  1 20  1  0
  2 21  1  0
  2 22  1  0
  3 23  1  0
  3 24  1  0
  5 25  1  0
  6 26  1  0
  9 27  1  0
  9 28  1  0
 10 29  1  0
 11 30  1  0
 11 31  1  0
 12 32  1  0
 12 33  1  0
 14 34  1  0
 16 35  1  0
 17 36  1  0
M  END
>  <Energy>  (408) 
1012.3682165046775

>  <compound_id>  (408) 
14276

>  <target_id>  (408) 
1

>  <reference_id>  (408) 
63

>  <inspiration_ids>  (408) 
[115, 63]

>  <energy_score>  (408) 
969.2841099833828

>  <distance_score>  (408) 
13.917578595711413

>  <path>  (408) 
/opt/xchem-fragalysis-2/maxwin/BulkDock/SCRATCH/511013/C14276-P63/C14276-P63.minimised.mol

>  <scratch_subdir>  (408) 
/opt/xchem-fragalysis-2/maxwin/BulkDock/SCRATCH/511013/C14276-P63

>  <fragmenstein_runtime>  (408) 
15.197426795959473

>  <fragmenstein_outcome>  (408) 
too moved

>  <fragmenstein_mode>  (408) 
expansion

>  <fragmenstein_error>  (408) 


$$$$
C14277-P115
     RDKit          3D

 29 30  0  0  0  0  0  0  0  0999 V2000
    8.6972  -10.1144   20.3472 C   0  0  0  0  0  0  0  0  0  0  0  0
    7.2989   -9.6319   20.2593 C   0  0  0  0  0  0  0  0  0  0  0  0
    6.5309   -9.2412   21.2560 N   0  0  0  0  0  0  0  0  0  0  0  0
    5.2580   -9.1161   20.7217 C   0  0  0  0  0  0  0  0  0  0  0  0
    4.0290   -9.1514   21.6200 C   0  0  0  0  0  0  0  0  0  0  0  0
    4.0518  -10.5558   22.4073 C   0  0  0  0  0  0  0  0  0  0  0  0
    2.5938  -11.6793   22.7570 N   0  0  0  0  0  0  0  0  0  0  0  0
    0.8399  -11.4477   22.4071 C   0  0  0  0  0  0  0  0  0  0  0  0
    0.2760  -10.4342   21.9486 O   0  0  0  0  0  0  0  0  0  0  0  0
   -0.2978  -12.7321   22.5273 C   0  0  0  0  0  0  0  0  0  0  0  0
   -1.4665  -12.1560   21.1598 C   0  0  0  0  0  0  0  0  0  0  0  0
   -2.2060  -13.2389   20.4673 N   0  0  0  0  0  0  0  0  0  0  0  0
   -1.9546  -14.4662   20.9915 C   0  0  0  0  0  0  0  0  0  0  0  0
   -0.6025  -14.5054   22.2754 N   0  0  0  0  0  0  0  0  0  0  0  0
    5.3109   -9.2574   19.3508 C   0  0  0  0  0  0  0  0  0  0  0  0
    6.5854   -9.6728   19.0917 N   0  0  0  0  0  0  0  0  0  0  0  0
    8.8713  -10.5928   21.3162 H   0  0  0  0  0  0  0  0  0  0  0  0
    9.4006   -9.2852   20.2473 H   0  0  0  0  0  0  0  0  0  0  0  0
    8.9164  -10.8494   19.5664 H   0  0  0  0  0  0  0  0  0  0  0  0
    3.1172   -8.9666   21.0474 H   0  0  0  0  0  0  0  0  0  0  0  0
    4.1139   -8.3247   22.3307 H   0  0  0  0  0  0  0  0  0  0  0  0
    4.9422  -10.4447   23.0546 H   0  0  0  0  0  0  0  0  0  0  0  0
    4.5703  -11.2448   21.7361 H   0  0  0  0  0  0  0  0  0  0  0  0
    2.7615  -12.6400   23.0452 H   0  0  0  0  0  0  0  0  0  0  0  0
   -1.5058  -11.1203   20.8218 H   0  0  0  0  0  0  0  0  0  0  0  0
   -2.1738  -15.4262   20.5327 H   0  0  0  0  0  0  0  0  0  0  0  0
   -1.1288  -14.9350   23.0096 H   0  0  0  0  0  0  0  0  0  0  0  0
    4.5311   -9.2823   18.6014 H   0  0  0  0  0  0  0  0  0  0  0  0
    6.9062  -10.0968   18.2331 H   0  0  0  0  0  0  0  0  0  0  0  0
  1  2  1  0
  2  3  2  0
  3  4  1  0
  4  5  1  0
  5  6  1  0
  6  7  1  0
  7  8  1  0
  8  9  2  0
  8 10  1  0
 10 11  2  0
 11 12  1  0
 12 13  2  0
 13 14  1  0
  4 15  2  0
 15 16  1  0
 16  2  1  0
 14 10  1  0
  1 17  1  0
  1 18  1  0
  1 19  1  0
  5 20  1  0
  5 21  1  0
  6 22  1  0
  6 23  1  0
  7 24  1  0
 11 25  1  0
 13 26  1  0
 14 27  1  0
 15 28  1  0
 16 29  1  0
M  END
>  <Energy>  (409) 
346.31264290283946

>  <compound_id>  (409) 
14277

>  <target_id>  (409) 
1

>  <reference_id>  (409) 
115

>  <inspiration_ids>  (409) 
[115, 63]

>  <energy_score>  (409) 
353.9538046033965

>  <distance_score>  (409) 
14.919286042779536

>  <path>  (409) 
/opt/xchem-fragalysis-2/maxwin/BulkDock/SCRATCH/511013/C14277-P115/C14277-P115.minimised.mol

>  <scratch_subdir>  (409) 
/opt/xchem-fragalysis-2/maxwin/BulkDock/SCRATCH/511013/C14277-P115

>  <fragmenstein_runtime>  (409) 
9.898274421691895

>  <fragmenstein_outcome>  (409) 
too moved

>  <fragmenstein_mode>  (409) 
expansion

>  <fragmenstein_error>  (409) 


$$$$
C14277-P63
     RDKit          3D

 29 30  0  0  0  0  0  0  0  0999 V2000
    9.6714  -15.7945   18.0076 C   0  0  0  0  0  0  0  0  0  0  0  0
    8.2868  -16.0619   18.4554 C   0  0  0  0  0  0  0  0  0  0  0  0
    7.8827  -17.0274   19.2594 N   0  0  0  0  0  0  0  0  0  0  0  0
    6.4819  -16.9242   19.4450 C   0  0  0  0  0  0  0  0  0  0  0  0
    5.7589  -17.9709   20.6228 C   0  0  0  0  0  0  0  0  0  0  0  0
    4.1519  -18.9822   21.2246 C   0  0  0  0  0  0  0  0  0  0  0  0
    2.1086  -19.0240   21.3061 N   0  0  0  0  0  0  0  0  0  0  0  0
    0.7339  -17.5782   21.0576 C   0  0  0  0  0  0  0  0  0  0  0  0
    0.9899  -16.4014   20.7801 O   0  0  0  0  0  0  0  0  0  0  0  0
   -1.0801  -17.8010   21.0208 C   0  0  0  0  0  0  0  0  0  0  0  0
   -2.2576  -18.6546   20.9345 C   0  0  0  0  0  0  0  0  0  0  0  0
   -3.3921  -18.1149   20.3626 N   0  0  0  0  0  0  0  0  0  0  0  0
   -2.9501  -17.0265   19.8133 C   0  0  0  0  0  0  0  0  0  0  0  0
   -1.6164  -16.8644   20.0420 N   0  0  0  0  0  0  0  0  0  0  0  0
    6.1062  -15.8472   18.6357 C   0  0  0  0  0  0  0  0  0  0  0  0
    7.2256  -15.3090   18.0533 N   0  0  0  0  0  0  0  0  0  0  0  0
    9.9848  -14.7887   18.3039 H   0  0  0  0  0  0  0  0  0  0  0  0
    9.7478  -15.8778   16.9191 H   0  0  0  0  0  0  0  0  0  0  0  0
   10.3658  -16.5127   18.4543 H   0  0  0  0  0  0  0  0  0  0  0  0
    6.1638  -17.8678   21.5774 H   0  0  0  0  0  0  0  0  0  0  0  0
    6.4811  -18.7849   20.3670 H   0  0  0  0  0  0  0  0  0  0  0  0
    5.0041  -19.9819   20.7629 H   0  0  0  0  0  0  0  0  0  0  0  0
    4.2315  -19.0932   22.3418 H   0  0  0  0  0  0  0  0  0  0  0  0
    1.6666  -19.8638   21.6036 H   0  0  0  0  0  0  0  0  0  0  0  0
   -2.4128  -19.6777   21.2131 H   0  0  0  0  0  0  0  0  0  0  0  0
   -3.5231  -16.3227   19.2274 H   0  0  0  0  0  0  0  0  0  0  0  0
   -1.0435  -16.1307   19.6644 H   0  0  0  0  0  0  0  0  0  0  0  0
    5.1570  -15.3800   18.4285 H   0  0  0  0  0  0  0  0  0  0  0  0
    7.2479  -14.5130   17.4311 H   0  0  0  0  0  0  0  0  0  0  0  0
  1  2  1  0
  2  3  2  0
  3  4  1  0
  4  5  1  0
  5  6  1  0
  6  7  1  0
  7  8  1  0
  8  9  2  0
  8 10  1  0
 10 11  2  0
 11 12  1  0
 12 13  2  0
 13 14  1  0
  4 15  2  0
 15 16  1  0
 16  2  1  0
 14 10  1  0
  1 17  1  0
  1 18  1  0
  1 19  1  0
  5 20  1  0
  5 21  1  0
  6 22  1  0
  6 23  1  0
  7 24  1  0
 11 25  1  0
 13 26  1  0
 14 27  1  0
 15 28  1  0
 16 29  1  0
M  END
>  <Energy>  (410) 
454.36290146608064

>  <compound_id>  (410) 
14277

>  <target_id>  (410) 
1

>  <reference_id>  (410) 
63

>  <inspiration_ids>  (410) 
[115, 63]

>  <energy_score>  (410) 
462.0040631666217

>  <distance_score>  (410) 
16.003467724675396

>  <path>  (410) 
/opt/xchem-fragalysis-2/maxwin/BulkDock/SCRATCH/511013/C14277-P63/C14277-P63.minimised.mol

>  <scratch_subdir>  (410) 
/opt/xchem-fragalysis-2/maxwin/BulkDock/SCRATCH/511013/C14277-P63

>  <fragmenstein_runtime>  (410) 
16.830328464508057

>  <fragmenstein_outcome>  (410) 
too moved

>  <fragmenstein_mode>  (410) 
expansion

>  <fragmenstein_error>  (410) 


$$$$
C14279-P115
     RDKit          3D

 45 46  0  0  0  0  0  0  0  0999 V2000
   -1.2637  -17.5140   20.4883 C   0  0  0  0  0  0  0  0  0  0  0  0
   -0.0907  -17.8838   21.8293 C   0  0  0  0  0  0  0  0  0  0  0  0
    0.8291  -16.0683   20.9289 C   0  0  0  0  0  0  0  0  0  0  0  0
    2.5102  -14.6383   20.4334 C   0  0  0  0  0  0  0  0  0  0  0  0
    3.8199  -12.9481   20.8820 N   0  0  0  0  0  0  0  0  0  0  0  0
    5.5886  -12.2735   20.1077 C   0  0  0  0  0  0  0  0  0  0  0  0
    6.0004  -13.0489   19.2913 O   0  0  0  0  0  0  0  0  0  0  0  0
    6.9371  -10.4598   20.1492 C   0  0  0  0  0  0  0  0  0  0  0  0
    6.9018   -8.2612   19.9708 C   0  0  0  0  0  0  0  0  0  0  0  0
    8.5337   -9.1072   20.0668 C   0  0  0  0  0  0  0  0  0  0  0  0
   10.3002   -8.5744   21.1569 C   0  0  0  0  0  0  0  0  0  0  0  0
   11.5194   -7.8040   21.1689 C   0  0  0  0  0  0  0  0  0  0  0  0
   12.5400   -8.1357   22.0332 N   0  0  0  0  0  0  0  0  0  0  0  0
   12.0257   -9.0278   22.7956 C   0  0  0  0  0  0  0  0  0  0  0  0
   10.7262   -9.1983   22.4775 N   0  0  0  0  0  0  0  0  0  0  0  0
   -1.4357  -19.0453   23.0561 N   0  0  0  0  0  0  0  0  0  0  0  0
   -1.9944  -18.8989   25.0254 C   0  0  0  0  0  0  0  0  0  0  0  0
   -1.5573  -18.1882   25.9251 O   0  0  0  0  0  0  0  0  0  0  0  0
   -3.6469  -19.9975   25.2700 C   0  0  0  0  0  0  0  0  0  0  0  0
   -4.8958  -20.7366   24.9765 C   0  0  0  0  0  0  0  0  0  0  0  0
   -5.7077  -21.1889   26.0335 N   0  0  0  0  0  0  0  0  0  0  0  0
   -5.2812  -20.5921   27.0910 C   0  0  0  0  0  0  0  0  0  0  0  0
   -4.0291  -20.1273   26.9197 N   0  0  0  0  0  0  0  0  0  0  0  0
   -0.7713  -17.6532   19.5518 H   0  0  0  0  0  0  0  0  0  0  0  0
   -2.1538  -18.1095   20.4067 H   0  0  0  0  0  0  0  0  0  0  0  0
   -1.5382  -16.4639   20.3382 H   0  0  0  0  0  0  0  0  0  0  0  0
    0.5831  -18.5781   21.3802 H   0  0  0  0  0  0  0  0  0  0  0  0
    0.4572  -16.2382   19.9414 H   0  0  0  0  0  0  0  0  0  0  0  0
    0.3231  -15.5259   21.7282 H   0  0  0  0  0  0  0  0  0  0  0  0
    2.2729  -14.2623   19.4567 H   0  0  0  0  0  0  0  0  0  0  0  0
    2.8131  -15.1646   19.4621 H   0  0  0  0  0  0  0  0  0  0  0  0
    3.5483  -12.3235   21.6171 H   0  0  0  0  0  0  0  0  0  0  0  0
    7.2331  -10.7896   19.1264 H   0  0  0  0  0  0  0  0  0  0  0  0
    5.9000   -7.8799   19.5325 H   0  0  0  0  0  0  0  0  0  0  0  0
    6.7502   -7.5410   20.8271 H   0  0  0  0  0  0  0  0  0  0  0  0
    7.2310   -7.5132   19.2475 H   0  0  0  0  0  0  0  0  0  0  0  0
    8.8802   -9.5077   19.0730 H   0  0  0  0  0  0  0  0  0  0  0  0
    8.6941   -8.1090   19.8576 H   0  0  0  0  0  0  0  0  0  0  0  0
   11.8438   -6.9041   20.6546 H   0  0  0  0  0  0  0  0  0  0  0  0
   12.5116   -9.5324   23.6203 H   0  0  0  0  0  0  0  0  0  0  0  0
   10.1270   -9.7365   23.0838 H   0  0  0  0  0  0  0  0  0  0  0  0
   -1.9359  -19.7889   22.6168 H   0  0  0  0  0  0  0  0  0  0  0  0
   -5.4391  -21.0049   24.0826 H   0  0  0  0  0  0  0  0  0  0  0  0
   -5.8286  -20.4133   27.9879 H   0  0  0  0  0  0  0  0  0  0  0  0
   -3.5376  -19.4410   27.4681 H   0  0  0  0  0  0  0  0  0  0  0  0
  1  2  1  0
  2  3  1  0
  3  4  1  0
  4  5  1  0
  5  6  1  0
  6  7  2  0
  6  8  1  0
  8  9  1  0
  8 10  1  0
 10 11  1  0
 11 12  2  0
 12 13  1  0
 13 14  2  0
 14 15  1  0
  2 16  1  0
 16 17  1  0
 17 18  2  0
 17 19  1  0
 19 20  2  0
 20 21  1  0
 21 22  2  0
 22 23  1  0
 15 11  1  0
 23 19  1  0
  1 24  1  0
  1 25  1  0
  1 26  1  0
  2 27  1  0
  3 28  1  0
  3 29  1  0
  4 30  1  0
  4 31  1  0
  5 32  1  0
  8 33  1  0
  9 34  1  0
  9 35  1  0
  9 36  1  0
 10 37  1  0
 10 38  1  0
 12 39  1  0
 14 40  1  0
 15 41  1  0
 16 42  1  0
 20 43  1  0
 22 44  1  0
 23 45  1  0
M  END
>  <Energy>  (411) 
2033.0280752536542

>  <compound_id>  (411) 
14279

>  <target_id>  (411) 
1

>  <reference_id>  (411) 
115

>  <inspiration_ids>  (411) 
[115, 63]

>  <energy_score>  (411) 
2058.336550814576

>  <distance_score>  (411) 
9.518728928052907

>  <path>  (411) 
/opt/xchem-fragalysis-2/maxwin/BulkDock/SCRATCH/511013/C14279-P115/C14279-P115.minimised.mol

>  <scratch_subdir>  (411) 
/opt/xchem-fragalysis-2/maxwin/BulkDock/SCRATCH/511013/C14279-P115

>  <fragmenstein_runtime>  (411) 
21.922277212142944

>  <fragmenstein_outcome>  (411) 
too moved

>  <fragmenstein_mode>  (411) 
expansion

>  <fragmenstein_error>  (411) 


$$$$
C14279-P63
     RDKit          3D

 45 46  0  0  0  0  0  0  0  0999 V2000
   -0.3401  -14.4169   22.5457 C   0  0  0  0  0  0  0  0  0  0  0  0
   -0.0208  -14.2998   24.0601 C   0  0  0  0  0  0  0  0  0  0  0  0
    1.8461  -13.1025   24.1912 C   0  0  0  0  0  0  0  0  0  0  0  0
    2.9391  -11.5117   23.2744 C   0  0  0  0  0  0  0  0  0  0  0  0
    4.5134  -10.0766   23.0392 N   0  0  0  0  0  0  0  0  0  0  0  0
    4.5010   -8.0514   22.8850 C   0  0  0  0  0  0  0  0  0  0  0  0
    3.4254   -7.4455   23.0344 O   0  0  0  0  0  0  0  0  0  0  0  0
    6.0644   -6.6401   22.2917 C   0  0  0  0  0  0  0  0  0  0  0  0
    5.2579   -5.4300   22.9403 C   0  0  0  0  0  0  0  0  0  0  0  0
    7.2363   -5.2155   21.1361 C   0  0  0  0  0  0  0  0  0  0  0  0
    9.1843   -4.7838   20.2367 C   0  0  0  0  0  0  0  0  0  0  0  0
   10.2183   -5.6657   19.8226 C   0  0  0  0  0  0  0  0  0  0  0  0
   11.7535   -5.7478   20.0519 N   0  0  0  0  0  0  0  0  0  0  0  0
   12.0985   -4.7663   20.7563 C   0  0  0  0  0  0  0  0  0  0  0  0
   10.8875   -4.2311   20.9599 N   0  0  0  0  0  0  0  0  0  0  0  0
   -1.5226  -15.6137   24.7545 N   0  0  0  0  0  0  0  0  0  0  0  0
   -1.3836  -17.4518   25.7251 C   0  0  0  0  0  0  0  0  0  0  0  0
   -0.3129  -17.9845   25.8531 O   0  0  0  0  0  0  0  0  0  0  0  0
   -2.2893  -18.1431   26.4307 C   0  0  0  0  0  0  0  0  0  0  0  0
   -2.3851  -19.2556   27.3664 C   0  0  0  0  0  0  0  0  0  0  0  0
   -1.6966  -19.2025   28.5396 N   0  0  0  0  0  0  0  0  0  0  0  0
   -1.8046  -17.9333   28.7661 C   0  0  0  0  0  0  0  0  0  0  0  0
   -2.4760  -17.3277   27.7189 N   0  0  0  0  0  0  0  0  0  0  0  0
    0.5607  -14.7950   22.1271 H   0  0  0  0  0  0  0  0  0  0  0  0
   -0.4639  -15.4253   22.0594 H   0  0  0  0  0  0  0  0  0  0  0  0
   -1.3150  -14.7598   22.7399 H   0  0  0  0  0  0  0  0  0  0  0  0
   -0.7953  -13.8182   24.6718 H   0  0  0  0  0  0  0  0  0  0  0  0
    1.8603  -12.9403   25.2632 H   0  0  0  0  0  0  0  0  0  0  0  0
    2.6751  -13.7425   23.7826 H   0  0  0  0  0  0  0  0  0  0  0  0
    3.4955  -12.1939   22.6196 H   0  0  0  0  0  0  0  0  0  0  0  0
    1.9628  -11.5218   22.8248 H   0  0  0  0  0  0  0  0  0  0  0  0
    5.4719  -10.4048   22.9763 H   0  0  0  0  0  0  0  0  0  0  0  0
    6.8002   -6.7986   23.0987 H   0  0  0  0  0  0  0  0  0  0  0  0
    4.5276   -5.0432   22.2240 H   0  0  0  0  0  0  0  0  0  0  0  0
    5.9242   -4.6209   23.2524 H   0  0  0  0  0  0  0  0  0  0  0  0
    4.7437   -5.7283   23.8581 H   0  0  0  0  0  0  0  0  0  0  0  0
    6.6366   -5.2279   20.2002 H   0  0  0  0  0  0  0  0  0  0  0  0
    7.0195   -4.2413   21.5986 H   0  0  0  0  0  0  0  0  0  0  0  0
    9.7398   -6.2899   19.1563 H   0  0  0  0  0  0  0  0  0  0  0  0
   13.0457   -4.4249   21.1387 H   0  0  0  0  0  0  0  0  0  0  0  0
   10.7400   -3.4732   21.5636 H   0  0  0  0  0  0  0  0  0  0  0  0
   -2.4909  -15.3548   24.6635 H   0  0  0  0  0  0  0  0  0  0  0  0
   -3.2917  -19.8580   27.4112 H   0  0  0  0  0  0  0  0  0  0  0  0
   -1.4484  -17.3834   29.6257 H   0  0  0  0  0  0  0  0  0  0  0  0
   -2.4244  -16.3303   27.6749 H   0  0  0  0  0  0  0  0  0  0  0  0
  1  2  1  0
  2  3  1  0
  3  4  1  0
  4  5  1  0
  5  6  1  0
  6  7  2  0
  6  8  1  0
  8  9  1  0
  8 10  1  0
 10 11  1  0
 11 12  2  0
 12 13  1  0
 13 14  2  0
 14 15  1  0
  2 16  1  0
 16 17  1  0
 17 18  2  0
 17 19  1  0
 19 20  2  0
 20 21  1  0
 21 22  2  0
 22 23  1  0
 15 11  1  0
 23 19  1  0
  1 24  1  0
  1 25  1  0
  1 26  1  0
  2 27  1  0
  3 28  1  0
  3 29  1  0
  4 30  1  0
  4 31  1  0
  5 32  1  0
  8 33  1  0
  9 34  1  0
  9 35  1  0
  9 36  1  0
 10 37  1  0
 10 38  1  0
 12 39  1  0
 14 40  1  0
 15 41  1  0
 16 42  1  0
 20 43  1  0
 22 44  1  0
 23 45  1  0
M  END
>  <Energy>  (412) 
1749.9205703619368

>  <compound_id>  (412) 
14279

>  <target_id>  (412) 
1

>  <reference_id>  (412) 
63

>  <inspiration_ids>  (412) 
[115, 63]

>  <energy_score>  (412) 
1775.2290459228282

>  <distance_score>  (412) 
9.441563271063908

>  <path>  (412) 
/opt/xchem-fragalysis-2/maxwin/BulkDock/SCRATCH/511013/C14279-P63/C14279-P63.minimised.mol

>  <scratch_subdir>  (412) 
/opt/xchem-fragalysis-2/maxwin/BulkDock/SCRATCH/511013/C14279-P63

>  <fragmenstein_runtime>  (412) 
22.099735736846924

>  <fragmenstein_outcome>  (412) 
too moved

>  <fragmenstein_mode>  (412) 
expansion

>  <fragmenstein_error>  (412) 


$$$$
C14281-P115
     RDKit          3D

 49 51  0  0  0  0  0  0  0  0999 V2000
    8.4329  -13.5164   20.3842 O   0  0  0  0  0  0  0  0  0  0  0  0
    7.5593  -12.6884   20.2954 C   0  0  0  0  0  0  0  0  0  0  0  0
    7.9717  -11.3922   19.5750 C   0  0  0  0  0  0  0  0  0  0  0  0
    8.9961  -10.6066   20.3111 C   0  0  0  0  0  0  0  0  0  0  0  0
    8.9606   -9.3652   20.8962 C   0  0  0  0  0  0  0  0  0  0  0  0
   10.1632   -9.0377   21.4638 N   0  0  0  0  0  0  0  0  0  0  0  0
   10.9341  -10.0725   21.2324 C   0  0  0  0  0  0  0  0  0  0  0  0
   10.2935  -11.0202   20.4865 N   0  0  0  0  0  0  0  0  0  0  0  0
    6.1336  -12.7506   20.6737 N   0  0  0  0  0  0  0  0  0  0  0  0
    5.1540  -14.0848   21.2765 C   0  0  0  0  0  0  0  0  0  0  0  0
    4.6900  -15.3282   23.1934 C   0  0  0  0  0  0  0  0  0  0  0  0
    3.3904  -16.8134   23.4604 N   0  0  0  0  0  0  0  0  0  0  0  0
    2.8067  -17.7862   24.9626 C   0  0  0  0  0  0  0  0  0  0  0  0
    3.2174  -17.7835   26.1094 O   0  0  0  0  0  0  0  0  0  0  0  0
    1.0608  -18.8492   24.7430 C   0  0  0  0  0  0  0  0  0  0  0  0
   -0.3649  -18.6007   26.1937 C   0  0  0  0  0  0  0  0  0  0  0  0
   -1.7438  -18.2499   26.0582 C   0  0  0  0  0  0  0  0  0  0  0  0
   -2.4749  -19.4071   25.7819 N   0  0  0  0  0  0  0  0  0  0  0  0
   -2.5069  -19.8676   26.9543 C   0  0  0  0  0  0  0  0  0  0  0  0
   -1.1847  -19.7041   27.1221 N   0  0  0  0  0  0  0  0  0  0  0  0
    3.7038  -14.2895   24.1462 C   0  0  0  0  0  0  0  0  0  0  0  0
    2.5476  -13.2567   24.3603 C   0  0  0  0  0  0  0  0  0  0  0  0
    2.0132  -13.6022   26.1118 C   0  0  0  0  0  0  0  0  0  0  0  0
    3.5646  -14.2870   26.7527 C   0  0  0  0  0  0  0  0  0  0  0  0
    4.3643  -14.4103   25.4949 C   0  0  0  0  0  0  0  0  0  0  0  0
    7.1293  -10.8018   19.2338 H   0  0  0  0  0  0  0  0  0  0  0  0
    8.4259  -11.7239   18.6283 H   0  0  0  0  0  0  0  0  0  0  0  0
    8.1140   -8.7009   20.9387 H   0  0  0  0  0  0  0  0  0  0  0  0
   11.9585  -10.1906   21.5604 H   0  0  0  0  0  0  0  0  0  0  0  0
   10.6841  -11.9016   20.1775 H   0  0  0  0  0  0  0  0  0  0  0  0
    5.6751  -11.8999   20.3795 H   0  0  0  0  0  0  0  0  0  0  0  0
    5.4992  -14.2756   20.1010 H   0  0  0  0  0  0  0  0  0  0  0  0
    4.1810  -13.4008   21.1400 H   0  0  0  0  0  0  0  0  0  0  0  0
    5.4335  -15.8212   23.8201 H   0  0  0  0  0  0  0  0  0  0  0  0
    2.9575  -17.0769   22.7517 H   0  0  0  0  0  0  0  0  0  0  0  0
    1.1190  -19.8067   24.6640 H   0  0  0  0  0  0  0  0  0  0  0  0
    0.4140  -18.9772   23.8990 H   0  0  0  0  0  0  0  0  0  0  0  0
   -2.2274  -17.3905   25.6405 H   0  0  0  0  0  0  0  0  0  0  0  0
   -3.2004  -20.5173   27.4689 H   0  0  0  0  0  0  0  0  0  0  0  0
   -0.7793  -20.5466   27.4874 H   0  0  0  0  0  0  0  0  0  0  0  0
    2.9992  -14.7920   23.5026 H   0  0  0  0  0  0  0  0  0  0  0  0
    2.5799  -12.2706   23.9275 H   0  0  0  0  0  0  0  0  0  0  0  0
    1.6007  -13.6035   24.0366 H   0  0  0  0  0  0  0  0  0  0  0  0
    1.2333  -14.2490   26.3239 H   0  0  0  0  0  0  0  0  0  0  0  0
    1.4578  -12.7221   26.4626 H   0  0  0  0  0  0  0  0  0  0  0  0
    3.5481  -15.1811   27.3941 H   0  0  0  0  0  0  0  0  0  0  0  0
    4.2497  -13.6598   27.3330 H   0  0  0  0  0  0  0  0  0  0  0  0
    4.9345  -15.2596   25.4822 H   0  0  0  0  0  0  0  0  0  0  0  0
    5.1596  -13.6658   25.6401 H   0  0  0  0  0  0  0  0  0  0  0  0
  1  2  2  0
  2  3  1  0
  3  4  1  0
  4  5  2  0
  5  6  1  0
  6  7  2  0
  7  8  1  0
  2  9  1  0
  9 10  1  0
 10 11  1  0
 11 12  1  0
 12 13  1  0
 13 14  2  0
 13 15  1  0
 15 16  1  0
 16 17  2  0
 17 18  1  0
 18 19  2  0
 19 20  1  0
 11 21  1  0
 21 22  1  0
 22 23  1  0
 23 24  1  0
 24 25  1  0
  8  4  1  0
 20 16  1  0
 25 21  1  0
  3 26  1  0
  3 27  1  0
  5 28  1  0
  7 29  1  0
  8 30  1  0
  9 31  1  0
 10 32  1  0
 10 33  1  0
 11 34  1  0
 12 35  1  0
 15 36  1  0
 15 37  1  0
 17 38  1  0
 19 39  1  0
 20 40  1  0
 21 41  1  0
 22 42  1  0
 22 43  1  0
 23 44  1  0
 23 45  1  0
 24 46  1  0
 24 47  1  0
 25 48  1  0
 25 49  1  0
M  END
>  <Energy>  (413) 
971.89631908765614

>  <compound_id>  (413) 
14281

>  <target_id>  (413) 
1

>  <reference_id>  (413) 
115

>  <inspiration_ids>  (413) 
[115, 63]

>  <energy_score>  (413) 
907.0432234213658

>  <distance_score>  (413) 
11.245934842347578

>  <path>  (413) 
/opt/xchem-fragalysis-2/maxwin/BulkDock/SCRATCH/511013/C14281-P115/C14281-P115.minimised.mol

>  <scratch_subdir>  (413) 
/opt/xchem-fragalysis-2/maxwin/BulkDock/SCRATCH/511013/C14281-P115

>  <fragmenstein_runtime>  (413) 
43.56961941719055

>  <fragmenstein_outcome>  (413) 
too moved

>  <fragmenstein_mode>  (413) 
expansion

>  <fragmenstein_error>  (413) 


$$$$
C14281-P63
     RDKit          3D

 49 51  0  0  0  0  0  0  0  0999 V2000
    6.3301  -11.5283   24.3390 O   0  0  0  0  0  0  0  0  0  0  0  0
    6.8887  -12.1772   25.1834 C   0  0  0  0  0  0  0  0  0  0  0  0
    8.3028  -11.6721   25.5984 C   0  0  0  0  0  0  0  0  0  0  0  0
    8.9805  -10.8061   24.5021 C   0  0  0  0  0  0  0  0  0  0  0  0
   10.0601   -9.9344   24.5285 C   0  0  0  0  0  0  0  0  0  0  0  0
   10.3438   -9.4214   23.2794 N   0  0  0  0  0  0  0  0  0  0  0  0
    9.4817   -9.9969   22.4764 C   0  0  0  0  0  0  0  0  0  0  0  0
    8.5855  -10.7528   23.1762 N   0  0  0  0  0  0  0  0  0  0  0  0
    6.4880  -13.4814   25.8533 N   0  0  0  0  0  0  0  0  0  0  0  0
    5.0269  -14.6535   25.5337 C   0  0  0  0  0  0  0  0  0  0  0  0
    4.1309  -15.5958   27.1122 C   0  0  0  0  0  0  0  0  0  0  0  0
    2.6742  -16.8350   27.0171 N   0  0  0  0  0  0  0  0  0  0  0  0
    1.3410  -16.9423   27.8635 C   0  0  0  0  0  0  0  0  0  0  0  0
    1.0235  -16.3059   28.8357 O   0  0  0  0  0  0  0  0  0  0  0  0
   -0.1745  -18.0989   27.2421 C   0  0  0  0  0  0  0  0  0  0  0  0
   -1.3025  -19.6452   27.3417 C   0  0  0  0  0  0  0  0  0  0  0  0
   -1.4314  -20.8964   28.2147 C   0  0  0  0  0  0  0  0  0  0  0  0
   -2.7139  -21.4213   28.2276 N   0  0  0  0  0  0  0  0  0  0  0  0
   -3.3959  -20.6077   27.4653 C   0  0  0  0  0  0  0  0  0  0  0  0
   -2.5777  -19.6824   26.8499 N   0  0  0  0  0  0  0  0  0  0  0  0
    4.0124  -14.0255   27.2260 C   0  0  0  0  0  0  0  0  0  0  0  0
    2.7212  -13.4412   27.5381 C   0  0  0  0  0  0  0  0  0  0  0  0
    3.0919  -11.8542   28.7784 C   0  0  0  0  0  0  0  0  0  0  0  0
    4.8044  -11.5043   28.6676 C   0  0  0  0  0  0  0  0  0  0  0  0
    5.1680  -12.8604   28.0477 C   0  0  0  0  0  0  0  0  0  0  0  0
    8.1938  -11.0774   26.5112 H   0  0  0  0  0  0  0  0  0  0  0  0
    8.9507  -12.5302   25.7997 H   0  0  0  0  0  0  0  0  0  0  0  0
   10.6634   -9.6613   25.3859 H   0  0  0  0  0  0  0  0  0  0  0  0
    9.4172   -9.8742   21.4023 H   0  0  0  0  0  0  0  0  0  0  0  0
    7.7334  -11.1551   22.8021 H   0  0  0  0  0  0  0  0  0  0  0  0
    7.2508  -13.7938   26.4717 H   0  0  0  0  0  0  0  0  0  0  0  0
    4.2668  -14.2281   24.8594 H   0  0  0  0  0  0  0  0  0  0  0  0
    5.3727  -15.3878   24.8033 H   0  0  0  0  0  0  0  0  0  0  0  0
    3.9264  -15.9957   26.1623 H   0  0  0  0  0  0  0  0  0  0  0  0
    2.6796  -17.5625   26.3141 H   0  0  0  0  0  0  0  0  0  0  0  0
   -0.0419  -18.3001   26.1979 H   0  0  0  0  0  0  0  0  0  0  0  0
   -1.0462  -17.4398   27.3123 H   0  0  0  0  0  0  0  0  0  0  0  0
   -0.6992  -21.2907   28.9097 H   0  0  0  0  0  0  0  0  0  0  0  0
   -4.4533  -20.6469   27.2546 H   0  0  0  0  0  0  0  0  0  0  0  0
   -2.8853  -19.0169   26.1745 H   0  0  0  0  0  0  0  0  0  0  0  0
    3.6428  -13.8804   26.2595 H   0  0  0  0  0  0  0  0  0  0  0  0
    1.9103  -13.2727   26.7581 H   0  0  0  0  0  0  0  0  0  0  0  0
    2.4597  -14.4471   27.9024 H   0  0  0  0  0  0  0  0  0  0  0  0
    2.4721  -11.6823   29.6844 H   0  0  0  0  0  0  0  0  0  0  0  0
    2.5668  -10.9341   28.3509 H   0  0  0  0  0  0  0  0  0  0  0  0
    5.4321  -11.2703   29.5374 H   0  0  0  0  0  0  0  0  0  0  0  0
    5.0250  -10.6296   28.0283 H   0  0  0  0  0  0  0  0  0  0  0  0
    5.2667  -13.3278   28.9973 H   0  0  0  0  0  0  0  0  0  0  0  0
    6.1306  -12.6583   27.6194 H   0  0  0  0  0  0  0  0  0  0  0  0
  1  2  2  0
  2  3  1  0
  3  4  1  0
  4  5  2  0
  5  6  1  0
  6  7  2  0
  7  8  1  0
  2  9  1  0
  9 10  1  0
 10 11  1  0
 11 12  1  0
 12 13  1  0
 13 14  2  0
 13 15  1  0
 15 16  1  0
 16 17  2  0
 17 18  1  0
 18 19  2  0
 19 20  1  0
 11 21  1  0
 21 22  1  0
 22 23  1  0
 23 24  1  0
 24 25  1  0
  8  4  1  0
 20 16  1  0
 25 21  1  0
  3 26  1  0
  3 27  1  0
  5 28  1  0
  7 29  1  0
  8 30  1  0
  9 31  1  0
 10 32  1  0
 10 33  1  0
 11 34  1  0
 12 35  1  0
 15 36  1  0
 15 37  1  0
 17 38  1  0
 19 39  1  0
 20 40  1  0
 21 41  1  0
 22 42  1  0
 22 43  1  0
 23 44  1  0
 23 45  1  0
 24 46  1  0
 24 47  1  0
 25 48  1  0
 25 49  1  0
M  END
>  <Energy>  (414) 
723.55397441286084

>  <compound_id>  (414) 
14281

>  <target_id>  (414) 
1

>  <reference_id>  (414) 
63

>  <inspiration_ids>  (414) 
[115, 63]

>  <energy_score>  (414) 
658.7008787465786

>  <distance_score>  (414) 
11.687994672522642

>  <path>  (414) 
/opt/xchem-fragalysis-2/maxwin/BulkDock/SCRATCH/511013/C14281-P63/C14281-P63.minimised.mol

>  <scratch_subdir>  (414) 
/opt/xchem-fragalysis-2/maxwin/BulkDock/SCRATCH/511013/C14281-P63

>  <fragmenstein_runtime>  (414) 
38.85730338096619

>  <fragmenstein_outcome>  (414) 
too moved

>  <fragmenstein_mode>  (414) 
expansion

>  <fragmenstein_error>  (414) 


$$$$
C14281-P115
     RDKit          3D

 49 51  0  0  0  0  0  0  0  0999 V2000
    8.4329  -13.5164   20.3842 O   0  0  0  0  0  0  0  0  0  0  0  0
    7.5593  -12.6884   20.2954 C   0  0  0  0  0  0  0  0  0  0  0  0
    7.9717  -11.3922   19.5750 C   0  0  0  0  0  0  0  0  0  0  0  0
    8.9961  -10.6066   20.3111 C   0  0  0  0  0  0  0  0  0  0  0  0
    8.9606   -9.3652   20.8962 C   0  0  0  0  0  0  0  0  0  0  0  0
   10.1632   -9.0377   21.4638 N   0  0  0  0  0  0  0  0  0  0  0  0
   10.9341  -10.0725   21.2324 C   0  0  0  0  0  0  0  0  0  0  0  0
   10.2935  -11.0202   20.4865 N   0  0  0  0  0  0  0  0  0  0  0  0
    6.1336  -12.7506   20.6737 N   0  0  0  0  0  0  0  0  0  0  0  0
    5.1540  -14.0848   21.2765 C   0  0  0  0  0  0  0  0  0  0  0  0
    4.6900  -15.3282   23.1934 C   0  0  0  0  0  0  0  0  0  0  0  0
    3.3904  -16.8134   23.4604 N   0  0  0  0  0  0  0  0  0  0  0  0
    2.8067  -17.7862   24.9626 C   0  0  0  0  0  0  0  0  0  0  0  0
    3.2174  -17.7835   26.1094 O   0  0  0  0  0  0  0  0  0  0  0  0
    1.0608  -18.8492   24.7430 C   0  0  0  0  0  0  0  0  0  0  0  0
   -0.3649  -18.6007   26.1937 C   0  0  0  0  0  0  0  0  0  0  0  0
   -1.7438  -18.2499   26.0582 C   0  0  0  0  0  0  0  0  0  0  0  0
   -2.4749  -19.4071   25.7819 N   0  0  0  0  0  0  0  0  0  0  0  0
   -2.5069  -19.8676   26.9543 C   0  0  0  0  0  0  0  0  0  0  0  0
   -1.1847  -19.7041   27.1221 N   0  0  0  0  0  0  0  0  0  0  0  0
    3.7038  -14.2895   24.1462 C   0  0  0  0  0  0  0  0  0  0  0  0
    2.5476  -13.2567   24.3603 C   0  0  0  0  0  0  0  0  0  0  0  0
    2.0132  -13.6022   26.1118 C   0  0  0  0  0  0  0  0  0  0  0  0
    3.5646  -14.2870   26.7527 C   0  0  0  0  0  0  0  0  0  0  0  0
    4.3643  -14.4103   25.4949 C   0  0  0  0  0  0  0  0  0  0  0  0
    7.1293  -10.8018   19.2338 H   0  0  0  0  0  0  0  0  0  0  0  0
    8.4259  -11.7239   18.6283 H   0  0  0  0  0  0  0  0  0  0  0  0
    8.1140   -8.7009   20.9387 H   0  0  0  0  0  0  0  0  0  0  0  0
   11.9585  -10.1906   21.5604 H   0  0  0  0  0  0  0  0  0  0  0  0
   10.6841  -11.9016   20.1775 H   0  0  0  0  0  0  0  0  0  0  0  0
    5.6751  -11.8999   20.3795 H   0  0  0  0  0  0  0  0  0  0  0  0
    5.4992  -14.2756   20.1010 H   0  0  0  0  0  0  0  0  0  0  0  0
    4.1810  -13.4008   21.1400 H   0  0  0  0  0  0  0  0  0  0  0  0
    5.4335  -15.8212   23.8201 H   0  0  0  0  0  0  0  0  0  0  0  0
    2.9575  -17.0769   22.7517 H   0  0  0  0  0  0  0  0  0  0  0  0
    1.1190  -19.8067   24.6640 H   0  0  0  0  0  0  0  0  0  0  0  0
    0.4140  -18.9772   23.8990 H   0  0  0  0  0  0  0  0  0  0  0  0
   -2.2274  -17.3905   25.6405 H   0  0  0  0  0  0  0  0  0  0  0  0
   -3.2004  -20.5173   27.4689 H   0  0  0  0  0  0  0  0  0  0  0  0
   -0.7793  -20.5466   27.4874 H   0  0  0  0  0  0  0  0  0  0  0  0
    2.9992  -14.7920   23.5026 H   0  0  0  0  0  0  0  0  0  0  0  0
    2.5799  -12.2706   23.9275 H   0  0  0  0  0  0  0  0  0  0  0  0
    1.6007  -13.6035   24.0366 H   0  0  0  0  0  0  0  0  0  0  0  0
    1.2333  -14.2490   26.3239 H   0  0  0  0  0  0  0  0  0  0  0  0
    1.4578  -12.7221   26.4626 H   0  0  0  0  0  0  0  0  0  0  0  0
    3.5481  -15.1811   27.3941 H   0  0  0  0  0  0  0  0  0  0  0  0
    4.2497  -13.6598   27.3330 H   0  0  0  0  0  0  0  0  0  0  0  0
    4.9345  -15.2596   25.4822 H   0  0  0  0  0  0  0  0  0  0  0  0
    5.1596  -13.6658   25.6401 H   0  0  0  0  0  0  0  0  0  0  0  0
  1  2  2  0
  2  3  1  0
  3  4  1  0
  4  5  2  0
  5  6  1  0
  6  7  2  0
  7  8  1  0
  2  9  1  0
  9 10  1  0
 10 11  1  0
 11 12  1  0
 12 13  1  0
 13 14  2  0
 13 15  1  0
 15 16  1  0
 16 17  2  0
 17 18  1  0
 18 19  2  0
 19 20  1  0
 11 21  1  0
 21 22  1  0
 22 23  1  0
 23 24  1  0
 24 25  1  0
  8  4  1  0
 20 16  1  0
 25 21  1  0
  3 26  1  0
  3 27  1  0
  5 28  1  0
  7 29  1  0
  8 30  1  0
  9 31  1  0
 10 32  1  0
 10 33  1  0
 11 34  1  0
 12 35  1  0
 15 36  1  0
 15 37  1  0
 17 38  1  0
 19 39  1  0
 20 40  1  0
 21 41  1  0
 22 42  1  0
 22 43  1  0
 23 44  1  0
 23 45  1  0
 24 46  1  0
 24 47  1  0
 25 48  1  0
 25 49  1  0
M  END
>  <Energy>  (415) 
971.89631908765614

>  <compound_id>  (415) 
14281

>  <target_id>  (415) 
1

>  <reference_id>  (415) 
115

>  <inspiration_ids>  (415) 
[115, 63]

>  <energy_score>  (415) 
907.0432234213658

>  <distance_score>  (415) 
11.245934842347578

>  <path>  (415) 
/opt/xchem-fragalysis-2/maxwin/BulkDock/SCRATCH/511013/C14281-P115/C14281-P115.minimised.mol

>  <scratch_subdir>  (415) 
/opt/xchem-fragalysis-2/maxwin/BulkDock/SCRATCH/511013/C14281-P115

>  <fragmenstein_runtime>  (415) 
42.97612690925598

>  <fragmenstein_outcome>  (415) 
too moved

>  <fragmenstein_mode>  (415) 
expansion

>  <fragmenstein_error>  (415) 


$$$$
C14281-P63
     RDKit          3D

 49 51  0  0  0  0  0  0  0  0999 V2000
    6.3301  -11.5283   24.3390 O   0  0  0  0  0  0  0  0  0  0  0  0
    6.8887  -12.1772   25.1834 C   0  0  0  0  0  0  0  0  0  0  0  0
    8.3028  -11.6721   25.5984 C   0  0  0  0  0  0  0  0  0  0  0  0
    8.9805  -10.8061   24.5021 C   0  0  0  0  0  0  0  0  0  0  0  0
   10.0601   -9.9344   24.5285 C   0  0  0  0  0  0  0  0  0  0  0  0
   10.3438   -9.4214   23.2794 N   0  0  0  0  0  0  0  0  0  0  0  0
    9.4817   -9.9969   22.4764 C   0  0  0  0  0  0  0  0  0  0  0  0
    8.5855  -10.7528   23.1762 N   0  0  0  0  0  0  0  0  0  0  0  0
    6.4880  -13.4814   25.8533 N   0  0  0  0  0  0  0  0  0  0  0  0
    5.0269  -14.6535   25.5337 C   0  0  0  0  0  0  0  0  0  0  0  0
    4.1309  -15.5958   27.1122 C   0  0  0  0  0  0  0  0  0  0  0  0
    2.6742  -16.8350   27.0171 N   0  0  0  0  0  0  0  0  0  0  0  0
    1.3410  -16.9423   27.8635 C   0  0  0  0  0  0  0  0  0  0  0  0
    1.0235  -16.3059   28.8357 O   0  0  0  0  0  0  0  0  0  0  0  0
   -0.1745  -18.0989   27.2421 C   0  0  0  0  0  0  0  0  0  0  0  0
   -1.3025  -19.6452   27.3417 C   0  0  0  0  0  0  0  0  0  0  0  0
   -1.4314  -20.8964   28.2147 C   0  0  0  0  0  0  0  0  0  0  0  0
   -2.7139  -21.4213   28.2276 N   0  0  0  0  0  0  0  0  0  0  0  0
   -3.3959  -20.6077   27.4653 C   0  0  0  0  0  0  0  0  0  0  0  0
   -2.5777  -19.6824   26.8499 N   0  0  0  0  0  0  0  0  0  0  0  0
    4.0124  -14.0255   27.2260 C   0  0  0  0  0  0  0  0  0  0  0  0
    2.7212  -13.4412   27.5381 C   0  0  0  0  0  0  0  0  0  0  0  0
    3.0919  -11.8542   28.7784 C   0  0  0  0  0  0  0  0  0  0  0  0
    4.8044  -11.5043   28.6676 C   0  0  0  0  0  0  0  0  0  0  0  0
    5.1680  -12.8604   28.0477 C   0  0  0  0  0  0  0  0  0  0  0  0
    8.1938  -11.0774   26.5112 H   0  0  0  0  0  0  0  0  0  0  0  0
    8.9507  -12.5302   25.7997 H   0  0  0  0  0  0  0  0  0  0  0  0
   10.6634   -9.6613   25.3859 H   0  0  0  0  0  0  0  0  0  0  0  0
    9.4172   -9.8742   21.4023 H   0  0  0  0  0  0  0  0  0  0  0  0
    7.7334  -11.1551   22.8021 H   0  0  0  0  0  0  0  0  0  0  0  0
    7.2508  -13.7938   26.4717 H   0  0  0  0  0  0  0  0  0  0  0  0
    4.2668  -14.2281   24.8594 H   0  0  0  0  0  0  0  0  0  0  0  0
    5.3727  -15.3878   24.8033 H   0  0  0  0  0  0  0  0  0  0  0  0
    3.9264  -15.9957   26.1623 H   0  0  0  0  0  0  0  0  0  0  0  0
    2.6796  -17.5625   26.3141 H   0  0  0  0  0  0  0  0  0  0  0  0
   -0.0419  -18.3001   26.1979 H   0  0  0  0  0  0  0  0  0  0  0  0
   -1.0462  -17.4398   27.3123 H   0  0  0  0  0  0  0  0  0  0  0  0
   -0.6992  -21.2907   28.9097 H   0  0  0  0  0  0  0  0  0  0  0  0
   -4.4533  -20.6469   27.2546 H   0  0  0  0  0  0  0  0  0  0  0  0
   -2.8853  -19.0169   26.1745 H   0  0  0  0  0  0  0  0  0  0  0  0
    3.6428  -13.8804   26.2595 H   0  0  0  0  0  0  0  0  0  0  0  0
    1.9103  -13.2727   26.7581 H   0  0  0  0  0  0  0  0  0  0  0  0
    2.4597  -14.4471   27.9024 H   0  0  0  0  0  0  0  0  0  0  0  0
    2.4721  -11.6823   29.6844 H   0  0  0  0  0  0  0  0  0  0  0  0
    2.5668  -10.9341   28.3509 H   0  0  0  0  0  0  0  0  0  0  0  0
    5.4321  -11.2703   29.5374 H   0  0  0  0  0  0  0  0  0  0  0  0
    5.0250  -10.6296   28.0283 H   0  0  0  0  0  0  0  0  0  0  0  0
    5.2667  -13.3278   28.9973 H   0  0  0  0  0  0  0  0  0  0  0  0
    6.1306  -12.6583   27.6194 H   0  0  0  0  0  0  0  0  0  0  0  0
  1  2  2  0
  2  3  1  0
  3  4  1  0
  4  5  2  0
  5  6  1  0
  6  7  2  0
  7  8  1  0
  2  9  1  0
  9 10  1  0
 10 11  1  0
 11 12  1  0
 12 13  1  0
 13 14  2  0
 13 15  1  0
 15 16  1  0
 16 17  2  0
 17 18  1  0
 18 19  2  0
 19 20  1  0
 11 21  1  0
 21 22  1  0
 22 23  1  0
 23 24  1  0
 24 25  1  0
  8  4  1  0
 20 16  1  0
 25 21  1  0
  3 26  1  0
  3 27  1  0
  5 28  1  0
  7 29  1  0
  8 30  1  0
  9 31  1  0
 10 32  1  0
 10 33  1  0
 11 34  1  0
 12 35  1  0
 15 36  1  0
 15 37  1  0
 17 38  1  0
 19 39  1  0
 20 40  1  0
 21 41  1  0
 22 42  1  0
 22 43  1  0
 23 44  1  0
 23 45  1  0
 24 46  1  0
 24 47  1  0
 25 48  1  0
 25 49  1  0
M  END
>  <Energy>  (416) 
723.55397441286084

>  <compound_id>  (416) 
14281

>  <target_id>  (416) 
1

>  <reference_id>  (416) 
63

>  <inspiration_ids>  (416) 
[115, 63]

>  <energy_score>  (416) 
658.7008787465786

>  <distance_score>  (416) 
11.687994672522642

>  <path>  (416) 
/opt/xchem-fragalysis-2/maxwin/BulkDock/SCRATCH/511013/C14281-P63/C14281-P63.minimised.mol

>  <scratch_subdir>  (416) 
/opt/xchem-fragalysis-2/maxwin/BulkDock/SCRATCH/511013/C14281-P63

>  <fragmenstein_runtime>  (416) 
39.02350687980652

>  <fragmenstein_outcome>  (416) 
too moved

>  <fragmenstein_mode>  (416) 
expansion

>  <fragmenstein_error>  (416) 


$$$$
C14282-P115
     RDKit          3D

 40 41  0  0  0  0  0  0  0  0999 V2000
    7.7698  -11.0768   22.5616 C   0  0  0  0  0  0  0  0  0  0  0  0
    7.6973  -11.3573   21.1453 N   0  0  0  0  0  0  0  0  0  0  0  0
    8.7440  -10.9169   20.3541 C   0  0  0  0  0  0  0  0  0  0  0  0
    8.4384  -10.9121   19.0899 N   0  0  0  0  0  0  0  0  0  0  0  0
    7.1641  -11.3942   19.0550 C   0  0  0  0  0  0  0  0  0  0  0  0
    6.6699  -11.8200   20.3022 C   0  0  0  0  0  0  0  0  0  0  0  0
    5.1286  -12.4229   20.5552 C   0  0  0  0  0  0  0  0  0  0  0  0
    4.1818  -11.9347   22.0391 C   0  0  0  0  0  0  0  0  0  0  0  0
    4.5358  -10.8878   22.5065 O   0  0  0  0  0  0  0  0  0  0  0  0
    3.1960  -12.9234   22.5263 N   0  0  0  0  0  0  0  0  0  0  0  0
    2.2572  -13.0038   24.0240 C   0  0  0  0  0  0  0  0  0  0  0  0
    0.6127  -14.1861   24.3319 C   0  0  0  0  0  0  0  0  0  0  0  0
    0.0057  -13.9762   23.0474 O   0  0  0  0  0  0  0  0  0  0  0  0
   -1.2818  -14.1042   25.0885 C   0  0  0  0  0  0  0  0  0  0  0  0
   -2.5370  -14.8195   25.8969 N   0  0  0  0  0  0  0  0  0  0  0  0
   -2.6807  -15.2080   27.3098 C   0  0  0  0  0  0  0  0  0  0  0  0
   -1.8921  -15.1744   28.2122 O   0  0  0  0  0  0  0  0  0  0  0  0
   -3.9746  -15.8009   27.6527 C   0  0  0  0  0  0  0  0  0  0  0  0
   -5.2958  -15.4630   27.4261 C   0  0  0  0  0  0  0  0  0  0  0  0
   -6.1669  -16.3678   28.0075 N   0  0  0  0  0  0  0  0  0  0  0  0
   -5.4002  -17.2313   28.6322 C   0  0  0  0  0  0  0  0  0  0  0  0
   -4.0812  -16.9132   28.4798 N   0  0  0  0  0  0  0  0  0  0  0  0
    8.1878  -10.0734   22.6928 H   0  0  0  0  0  0  0  0  0  0  0  0
    8.4495  -11.7911   23.0306 H   0  0  0  0  0  0  0  0  0  0  0  0
    6.8032  -11.0789   23.0438 H   0  0  0  0  0  0  0  0  0  0  0  0
    9.6806  -10.5698   20.7708 H   0  0  0  0  0  0  0  0  0  0  0  0
    6.6038  -11.3322   18.1380 H   0  0  0  0  0  0  0  0  0  0  0  0
    5.4055  -13.4388   20.7093 H   0  0  0  0  0  0  0  0  0  0  0  0
    4.5692  -12.5616   19.6375 H   0  0  0  0  0  0  0  0  0  0  0  0
    3.0865  -13.6587   21.8292 H   0  0  0  0  0  0  0  0  0  0  0  0
    3.0717  -13.4741   24.5550 H   0  0  0  0  0  0  0  0  0  0  0  0
    2.0006  -11.9907   24.1757 H   0  0  0  0  0  0  0  0  0  0  0  0
    0.9004  -13.7528   25.3868 H   0  0  0  0  0  0  0  0  0  0  0  0
    0.4422  -14.4905   22.3447 H   0  0  0  0  0  0  0  0  0  0  0  0
   -1.6681  -13.1231   25.2957 H   0  0  0  0  0  0  0  0  0  0  0  0
   -1.4920  -14.9269   24.3706 H   0  0  0  0  0  0  0  0  0  0  0  0
   -3.3837  -15.0601   25.3993 H   0  0  0  0  0  0  0  0  0  0  0  0
   -5.6726  -14.6116   26.8732 H   0  0  0  0  0  0  0  0  0  0  0  0
   -5.7288  -18.0929   29.1968 H   0  0  0  0  0  0  0  0  0  0  0  0
   -3.2915  -17.4221   28.8524 H   0  0  0  0  0  0  0  0  0  0  0  0
  1  2  1  0
  2  3  1  0
  3  4  2  0
  4  5  1  0
  5  6  2  0
  6  7  1  0
  7  8  1  0
  8  9  2  0
  8 10  1  0
 10 11  1  0
 11 12  1  0
 12 13  1  0
 12 14  1  0
 14 15  1  0
 15 16  1  0
 16 17  2  0
 16 18  1  0
 18 19  2  0
 19 20  1  0
 20 21  2  0
 21 22  1  0
  6  2  1  0
 22 18  1  0
  1 23  1  0
  1 24  1  0
  1 25  1  0
  3 26  1  0
  5 27  1  0
  7 28  1  0
  7 29  1  0
 10 30  1  0
 11 31  1  0
 11 32  1  0
 12 33  1  0
 13 34  1  0
 14 35  1  0
 14 36  1  0
 15 37  1  0
 19 38  1  0
 21 39  1  0
 22 40  1  0
M  END
>  <Energy>  (417) 
364.49013207692548

>  <compound_id>  (417) 
14282

>  <target_id>  (417) 
1

>  <reference_id>  (417) 
115

>  <inspiration_ids>  (417) 
[115, 63]

>  <energy_score>  (417) 
334.4696316379932

>  <distance_score>  (417) 
11.7475053200269

>  <path>  (417) 
/opt/xchem-fragalysis-2/maxwin/BulkDock/SCRATCH/511013/C14282-P115/C14282-P115.minimised.mol

>  <scratch_subdir>  (417) 
/opt/xchem-fragalysis-2/maxwin/BulkDock/SCRATCH/511013/C14282-P115

>  <fragmenstein_runtime>  (417) 
24.888036012649536

>  <fragmenstein_outcome>  (417) 
too moved

>  <fragmenstein_mode>  (417) 
expansion

>  <fragmenstein_error>  (417) 


$$$$
C14282-P63
     RDKit          3D

 40 41  0  0  0  0  0  0  0  0999 V2000
    3.7436   -8.2818   17.3406 C   0  0  0  0  0  0  0  0  0  0  0  0
    4.8251   -8.8832   16.6204 N   0  0  0  0  0  0  0  0  0  0  0  0
    5.2081   -8.3062   15.4274 C   0  0  0  0  0  0  0  0  0  0  0  0
    6.1398   -8.9879   14.8222 N   0  0  0  0  0  0  0  0  0  0  0  0
    6.3726  -10.0493   15.6571 C   0  0  0  0  0  0  0  0  0  0  0  0
    5.5725  -10.0352   16.8209 C   0  0  0  0  0  0  0  0  0  0  0  0
    5.3790  -11.4005   17.9165 C   0  0  0  0  0  0  0  0  0  0  0  0
    3.8818  -12.4810   18.1415 C   0  0  0  0  0  0  0  0  0  0  0  0
    2.9673  -11.9727   17.6237 O   0  0  0  0  0  0  0  0  0  0  0  0
    3.8035  -13.8811   19.0611 N   0  0  0  0  0  0  0  0  0  0  0  0
    2.2323  -15.0047   19.6851 C   0  0  0  0  0  0  0  0  0  0  0  0
    0.7526  -16.3508   20.6910 C   0  0  0  0  0  0  0  0  0  0  0  0
    0.3642  -15.5499   21.7859 O   0  0  0  0  0  0  0  0  0  0  0  0
   -0.3270  -17.9079   21.8113 C   0  0  0  0  0  0  0  0  0  0  0  0
   -0.9277  -19.0441   23.5336 N   0  0  0  0  0  0  0  0  0  0  0  0
   -1.8189  -18.4818   25.2985 C   0  0  0  0  0  0  0  0  0  0  0  0
   -2.1672  -17.3323   25.3823 O   0  0  0  0  0  0  0  0  0  0  0  0
   -2.0473  -19.2260   26.7636 C   0  0  0  0  0  0  0  0  0  0  0  0
   -3.1396  -19.6602   27.6157 C   0  0  0  0  0  0  0  0  0  0  0  0
   -2.8407  -19.8024   28.9455 N   0  0  0  0  0  0  0  0  0  0  0  0
   -1.7828  -19.0580   29.0544 C   0  0  0  0  0  0  0  0  0  0  0  0
   -1.4254  -18.5484   27.8388 N   0  0  0  0  0  0  0  0  0  0  0  0
    3.0385   -7.8347   16.6307 H   0  0  0  0  0  0  0  0  0  0  0  0
    4.1665   -7.4688   17.9236 H   0  0  0  0  0  0  0  0  0  0  0  0
    3.1953   -9.0084   17.9197 H   0  0  0  0  0  0  0  0  0  0  0  0
    4.7542   -7.3982   15.0529 H   0  0  0  0  0  0  0  0  0  0  0  0
    7.1096  -10.7904   15.3748 H   0  0  0  0  0  0  0  0  0  0  0  0
    6.3688  -11.6203   18.3098 H   0  0  0  0  0  0  0  0  0  0  0  0
    4.8103  -11.4783   16.9533 H   0  0  0  0  0  0  0  0  0  0  0  0
    4.7100  -14.0617   19.4613 H   0  0  0  0  0  0  0  0  0  0  0  0
    2.3430  -14.4079   20.5396 H   0  0  0  0  0  0  0  0  0  0  0  0
    2.0156  -14.9933   18.5975 H   0  0  0  0  0  0  0  0  0  0  0  0
   -0.0432  -16.3350   19.9717 H   0  0  0  0  0  0  0  0  0  0  0  0
   -0.6042  -15.7306   21.9194 H   0  0  0  0  0  0  0  0  0  0  0  0
    0.4872  -18.5300   21.5329 H   0  0  0  0  0  0  0  0  0  0  0  0
   -1.2015  -18.0160   21.1550 H   0  0  0  0  0  0  0  0  0  0  0  0
   -0.6082  -20.0033   23.6229 H   0  0  0  0  0  0  0  0  0  0  0  0
   -4.1372  -19.9591   27.3009 H   0  0  0  0  0  0  0  0  0  0  0  0
   -1.2691  -18.7966   29.9694 H   0  0  0  0  0  0  0  0  0  0  0  0
   -0.7604  -17.8041   27.6994 H   0  0  0  0  0  0  0  0  0  0  0  0
  1  2  1  0
  2  3  1  0
  3  4  2  0
  4  5  1  0
  5  6  2  0
  6  7  1  0
  7  8  1  0
  8  9  2  0
  8 10  1  0
 10 11  1  0
 11 12  1  0
 12 13  1  0
 12 14  1  0
 14 15  1  0
 15 16  1  0
 16 17  2  0
 16 18  1  0
 18 19  2  0
 19 20  1  0
 20 21  2  0
 21 22  1  0
  6  2  1  0
 22 18  1  0
  1 23  1  0
  1 24  1  0
  1 25  1  0
  3 26  1  0
  5 27  1  0
  7 28  1  0
  7 29  1  0
 10 30  1  0
 11 31  1  0
 11 32  1  0
 12 33  1  0
 13 34  1  0
 14 35  1  0
 14 36  1  0
 15 37  1  0
 19 38  1  0
 21 39  1  0
 22 40  1  0
M  END
>  <Energy>  (418) 
1106.4251340435994

>  <compound_id>  (418) 
14282

>  <target_id>  (418) 
1

>  <reference_id>  (418) 
63

>  <inspiration_ids>  (418) 
[115, 63]

>  <energy_score>  (418) 
1076.404633604689

>  <distance_score>  (418) 
10.754265332613329

>  <path>  (418) 
/opt/xchem-fragalysis-2/maxwin/BulkDock/SCRATCH/511013/C14282-P63/C14282-P63.minimised.mol

>  <scratch_subdir>  (418) 
/opt/xchem-fragalysis-2/maxwin/BulkDock/SCRATCH/511013/C14282-P63

>  <fragmenstein_runtime>  (418) 
17.727515935897827

>  <fragmenstein_outcome>  (418) 
too moved

>  <fragmenstein_mode>  (418) 
expansion

>  <fragmenstein_error>  (418) 


$$$$
C14283-P115
     RDKit          3D

 42 43  0  0  0  0  0  0  0  0999 V2000
   -8.7365  -23.0520   27.8664 C   0  0  0  0  0  0  0  0  0  0  0  0
   -7.8087  -21.5839   27.4818 C   0  0  0  0  0  0  0  0  0  0  0  0
   -8.9834  -20.4421   27.3787 N   0  0  0  0  0  0  0  0  0  0  0  0
   -8.5298  -19.2706   27.6964 C   0  0  0  0  0  0  0  0  0  0  0  0
   -7.5534  -19.6444   26.9936 N   0  0  0  0  0  0  0  0  0  0  0  0
   -6.6659  -20.6688   27.5136 C   0  0  0  0  0  0  0  0  0  0  0  0
   -5.3646  -19.4807   26.8106 C   0  0  0  0  0  0  0  0  0  0  0  0
   -5.5296  -19.4113   25.6456 O   0  0  0  0  0  0  0  0  0  0  0  0
   -3.6492  -18.4272   27.3463 N   0  0  0  0  0  0  0  0  0  0  0  0
   -3.4676  -16.8042   27.7967 C   0  0  0  0  0  0  0  0  0  0  0  0
   -2.2456  -17.4853   26.1643 C   0  0  0  0  0  0  0  0  0  0  0  0
   -1.9867  -15.7485   24.8562 C   0  0  0  0  0  0  0  0  0  0  0  0
   -0.3972  -14.3997   24.3960 C   0  0  0  0  0  0  0  0  0  0  0  0
    1.3905  -13.4453   23.7750 N   0  0  0  0  0  0  0  0  0  0  0  0
    0.5677  -14.1515   24.4689 C   0  0  0  0  0  0  0  0  0  0  0  0
    1.3063  -11.8002   22.7527 C   0  0  0  0  0  0  0  0  0  0  0  0
    0.3999  -11.1124   22.4635 O   0  0  0  0  0  0  0  0  0  0  0  0
    2.7867  -11.2131   21.9312 C   0  0  0  0  0  0  0  0  0  0  0  0
    2.5172  -10.3849   20.7664 C   0  0  0  0  0  0  0  0  0  0  0  0
    3.5939   -9.8431   20.1154 N   0  0  0  0  0  0  0  0  0  0  0  0
    4.5832  -10.2512   20.8446 C   0  0  0  0  0  0  0  0  0  0  0  0
    4.1449  -10.9862   21.9234 N   0  0  0  0  0  0  0  0  0  0  0  0
   -9.7458  -22.6766   28.1481 H   0  0  0  0  0  0  0  0  0  0  0  0
   -8.6912  -23.8311   28.6064 H   0  0  0  0  0  0  0  0  0  0  0  0
   -8.9228  -23.6448   26.9680 H   0  0  0  0  0  0  0  0  0  0  0  0
   -9.9580  -20.7045   27.4500 H   0  0  0  0  0  0  0  0  0  0  0  0
   -8.8949  -18.3024   27.9999 H   0  0  0  0  0  0  0  0  0  0  0  0
   -2.6496  -16.0294   27.6504 H   0  0  0  0  0  0  0  0  0  0  0  0
   -3.9139  -16.4711   28.7483 H   0  0  0  0  0  0  0  0  0  0  0  0
   -2.5531  -17.2553   28.0066 H   0  0  0  0  0  0  0  0  0  0  0  0
   -1.3743  -17.6053   26.8137 H   0  0  0  0  0  0  0  0  0  0  0  0
   -3.0585  -16.9060   25.9008 H   0  0  0  0  0  0  0  0  0  0  0  0
   -2.3264  -15.0054   25.6007 H   0  0  0  0  0  0  0  0  0  0  0  0
   -2.8094  -15.6295   24.1538 H   0  0  0  0  0  0  0  0  0  0  0  0
   -0.8066  -14.4375   23.3045 H   0  0  0  0  0  0  0  0  0  0  0  0
   -1.1208  -13.6671   25.0590 H   0  0  0  0  0  0  0  0  0  0  0  0
    1.3061  -13.3960   25.1967 H   0  0  0  0  0  0  0  0  0  0  0  0
    1.2470  -14.7386   23.6873 H   0  0  0  0  0  0  0  0  0  0  0  0
    1.0227  -14.1451   25.6822 H   0  0  0  0  0  0  0  0  0  0  0  0
    1.5167  -10.1668   20.4097 H   0  0  0  0  0  0  0  0  0  0  0  0
    5.6291  -10.0236   20.6918 H   0  0  0  0  0  0  0  0  0  0  0  0
    4.8016  -11.0874   22.6546 H   0  0  0  0  0  0  0  0  0  0  0  0
  1  2  1  0
  2  3  1  0
  3  4  1  0
  4  5  2  0
  5  6  1  0
  6  7  1  0
  7  8  2  0
  7  9  1  0
  9 10  1  0
  9 11  1  0
 11 12  1  0
 12 13  1  0
 13 14  1  0
 14 15  1  0
 14 16  1  0
 16 17  2  0
 16 18  1  0
 18 19  2  0
 19 20  1  0
 20 21  2  0
 21 22  1  0
  6  2  2  0
 22 18  1  0
  1 23  1  0
  1 24  1  0
  1 25  1  0
  3 26  1  0
  4 27  1  0
 10 28  1  0
 10 29  1  0
 10 30  1  0
 11 31  1  0
 11 32  1  0
 12 33  1  0
 12 34  1  0
 13 35  1  0
 13 36  1  0
 15 37  1  0
 15 38  1  0
 15 39  1  0
 19 40  1  0
 21 41  1  0
 22 42  1  0
M  END
>  <Energy>  (419) 
2079.7516499724347

>  <compound_id>  (419) 
14283

>  <target_id>  (419) 
1

>  <reference_id>  (419) 
115

>  <inspiration_ids>  (419) 
[115, 63]

>  <energy_score>  (419) 
2027.7998942510412

>  <distance_score>  (419) 
11.48127332830394

>  <path>  (419) 
/opt/xchem-fragalysis-2/maxwin/BulkDock/SCRATCH/511013/C14283-P115/C14283-P115.minimised.mol

>  <scratch_subdir>  (419) 
/opt/xchem-fragalysis-2/maxwin/BulkDock/SCRATCH/511013/C14283-P115

>  <fragmenstein_runtime>  (419) 
19.82335066795349

>  <fragmenstein_outcome>  (419) 
too moved

>  <fragmenstein_mode>  (419) 
expansion

>  <fragmenstein_error>  (419) 


$$$$
C14283-P63
     RDKit          3D

 42 43  0  0  0  0  0  0  0  0999 V2000
   -2.2758  -16.5923   27.2047 C   0  0  0  0  0  0  0  0  0  0  0  0
   -2.0038  -14.8916   26.9938 C   0  0  0  0  0  0  0  0  0  0  0  0
   -2.7411  -14.1539   26.1780 N   0  0  0  0  0  0  0  0  0  0  0  0
   -3.0572  -12.7969   26.2229 C   0  0  0  0  0  0  0  0  0  0  0  0
   -2.1443  -12.6195   25.4280 N   0  0  0  0  0  0  0  0  0  0  0  0
   -1.8017  -13.9692   25.4460 C   0  0  0  0  0  0  0  0  0  0  0  0
   -1.0408  -14.7658   24.5773 C   0  0  0  0  0  0  0  0  0  0  0  0
   -1.3955  -15.8379   24.4546 O   0  0  0  0  0  0  0  0  0  0  0  0
    0.0605  -14.1248   24.1453 N   0  0  0  0  0  0  0  0  0  0  0  0
   -0.1768  -13.6116   22.9621 C   0  0  0  0  0  0  0  0  0  0  0  0
    1.4212  -14.5748   23.3806 C   0  0  0  0  0  0  0  0  0  0  0  0
    2.8557  -13.1188   23.4165 C   0  0  0  0  0  0  0  0  0  0  0  0
    3.2513  -12.0005   21.8956 C   0  0  0  0  0  0  0  0  0  0  0  0
    4.4041  -10.3742   21.9789 N   0  0  0  0  0  0  0  0  0  0  0  0
    3.7064  -11.3759   21.5517 C   0  0  0  0  0  0  0  0  0  0  0  0
    4.4565   -8.9573   21.2043 C   0  0  0  0  0  0  0  0  0  0  0  0
    3.8727   -8.5438   20.2935 O   0  0  0  0  0  0  0  0  0  0  0  0
    5.3728   -8.0127   21.8242 C   0  0  0  0  0  0  0  0  0  0  0  0
    6.4802   -8.0851   22.6384 C   0  0  0  0  0  0  0  0  0  0  0  0
    6.9818   -6.8212   22.9224 N   0  0  0  0  0  0  0  0  0  0  0  0
    6.1649   -5.9830   22.3239 C   0  0  0  0  0  0  0  0  0  0  0  0
    5.2499   -6.6542   21.5762 N   0  0  0  0  0  0  0  0  0  0  0  0
   -3.1162  -16.6528   27.8649 H   0  0  0  0  0  0  0  0  0  0  0  0
   -1.3917  -17.1559   27.4733 H   0  0  0  0  0  0  0  0  0  0  0  0
   -2.5418  -17.0281   26.2500 H   0  0  0  0  0  0  0  0  0  0  0  0
   -2.9906  -15.0144   25.4423 H   0  0  0  0  0  0  0  0  0  0  0  0
   -3.7337  -12.1103   26.7536 H   0  0  0  0  0  0  0  0  0  0  0  0
   -0.8790  -14.4705   22.6872 H   0  0  0  0  0  0  0  0  0  0  0  0
   -0.1932  -12.5709   22.6684 H   0  0  0  0  0  0  0  0  0  0  0  0
    0.0798  -14.2710   22.1600 H   0  0  0  0  0  0  0  0  0  0  0  0
    2.2993  -15.2053   23.5394 H   0  0  0  0  0  0  0  0  0  0  0  0
    1.4559  -13.6785   24.1168 H   0  0  0  0  0  0  0  0  0  0  0  0
    3.6013  -13.5910   24.0234 H   0  0  0  0  0  0  0  0  0  0  0  0
    2.4360  -12.3122   24.0287 H   0  0  0  0  0  0  0  0  0  0  0  0
    3.4462  -12.9962   21.1011 H   0  0  0  0  0  0  0  0  0  0  0  0
    2.0716  -11.5775   22.0039 H   0  0  0  0  0  0  0  0  0  0  0  0
    3.6526  -11.3508   20.2587 H   0  0  0  0  0  0  0  0  0  0  0  0
    2.9217  -10.4735   21.0996 H   0  0  0  0  0  0  0  0  0  0  0  0
    4.7894  -11.6914   21.0302 H   0  0  0  0  0  0  0  0  0  0  0  0
    6.9488   -8.9760   23.0364 H   0  0  0  0  0  0  0  0  0  0  0  0
    6.2110   -4.9032   22.3619 H   0  0  0  0  0  0  0  0  0  0  0  0
    4.5318   -6.2568   20.9852 H   0  0  0  0  0  0  0  0  0  0  0  0
  1  2  1  0
  2  3  1  0
  3  4  1  0
  4  5  2  0
  5  6  1  0
  6  7  1  0
  7  8  2  0
  7  9  1  0
  9 10  1  0
  9 11  1  0
 11 12  1  0
 12 13  1  0
 13 14  1  0
 14 15  1  0
 14 16  1  0
 16 17  2  0
 16 18  1  0
 18 19  2  0
 19 20  1  0
 20 21  2  0
 21 22  1  0
  6  2  2  0
 22 18  1  0
  1 23  1  0
  1 24  1  0
  1 25  1  0
  3 26  1  0
  4 27  1  0
 10 28  1  0
 10 29  1  0
 10 30  1  0
 11 31  1  0
 11 32  1  0
 12 33  1  0
 12 34  1  0
 13 35  1  0
 13 36  1  0
 15 37  1  0
 15 38  1  0
 15 39  1  0
 19 40  1  0
 21 41  1  0
 22 42  1  0
M  END
>  <Energy>  (420) 
1462.1154638896776

>  <compound_id>  (420) 
14283

>  <target_id>  (420) 
1

>  <reference_id>  (420) 
63

>  <inspiration_ids>  (420) 
[115, 63]

>  <energy_score>  (420) 
1410.16370816827

>  <distance_score>  (420) 
12.918145486362823

>  <path>  (420) 
/opt/xchem-fragalysis-2/maxwin/BulkDock/SCRATCH/511013/C14283-P63/C14283-P63.minimised.mol

>  <scratch_subdir>  (420) 
/opt/xchem-fragalysis-2/maxwin/BulkDock/SCRATCH/511013/C14283-P63

>  <fragmenstein_runtime>  (420) 
29.34121584892273

>  <fragmenstein_outcome>  (420) 
too moved

>  <fragmenstein_mode>  (420) 
expansion

>  <fragmenstein_error>  (420) 


$$$$
C14284-P115
     RDKit          3D

 42 43  0  0  0  0  0  0  0  0999 V2000
   -4.7362  -23.4033   27.9766 C   0  0  0  0  0  0  0  0  0  0  0  0
   -5.3438  -22.0971   27.5247 C   0  0  0  0  0  0  0  0  0  0  0  0
   -6.6184  -21.9446   27.7234 N   0  0  0  0  0  0  0  0  0  0  0  0
   -7.0083  -22.8027   26.8471 C   0  0  0  0  0  0  0  0  0  0  0  0
   -6.0129  -22.8742   25.8773 C   0  0  0  0  0  0  0  0  0  0  0  0
   -5.0744  -21.4667   26.2432 N   0  0  0  0  0  0  0  0  0  0  0  0
   -3.9990  -20.0339   25.4200 C   0  0  0  0  0  0  0  0  0  0  0  0
   -2.4223  -18.8454   26.4285 C   0  0  0  0  0  0  0  0  0  0  0  0
   -2.9056  -18.1912   27.2815 O   0  0  0  0  0  0  0  0  0  0  0  0
   -0.5715  -18.5595   26.3259 N   0  0  0  0  0  0  0  0  0  0  0  0
    0.6964  -17.5214   27.4169 C   0  0  0  0  0  0  0  0  0  0  0  0
    1.8619  -15.8522   27.6854 C   0  0  0  0  0  0  0  0  0  0  0  0
    1.5578  -14.1381   26.6615 C   0  0  0  0  0  0  0  0  0  0  0  0
    3.7771  -15.1996   27.3873 C   0  0  0  0  0  0  0  0  0  0  0  0
    4.7549  -13.5434   27.5664 N   0  0  0  0  0  0  0  0  0  0  0  0
    5.8732  -12.9362   26.7049 C   0  0  0  0  0  0  0  0  0  0  0  0
    6.3585  -13.3237   25.6806 O   0  0  0  0  0  0  0  0  0  0  0  0
    6.4547  -11.6246   27.1064 C   0  0  0  0  0  0  0  0  0  0  0  0
    7.3944  -10.9172   26.3372 C   0  0  0  0  0  0  0  0  0  0  0  0
    7.5744   -9.6326   26.7724 N   0  0  0  0  0  0  0  0  0  0  0  0
    6.8337   -9.5571   27.8506 C   0  0  0  0  0  0  0  0  0  0  0  0
    6.1722  -10.7366   28.1156 N   0  0  0  0  0  0  0  0  0  0  0  0
   -4.2008  -23.8579   27.1945 H   0  0  0  0  0  0  0  0  0  0  0  0
   -4.1019  -23.6921   28.8089 H   0  0  0  0  0  0  0  0  0  0  0  0
   -5.5942  -23.9290   28.3701 H   0  0  0  0  0  0  0  0  0  0  0  0
   -8.0066  -23.1841   26.8904 H   0  0  0  0  0  0  0  0  0  0  0  0
   -5.9406  -23.3433   24.8866 H   0  0  0  0  0  0  0  0  0  0  0  0
   -3.7916  -20.5457   24.4566 H   0  0  0  0  0  0  0  0  0  0  0  0
   -5.0257  -19.6817   25.1887 H   0  0  0  0  0  0  0  0  0  0  0  0
   -0.2366  -19.0646   25.5468 H   0  0  0  0  0  0  0  0  0  0  0  0
    0.6164  -17.9134   28.3877 H   0  0  0  0  0  0  0  0  0  0  0  0
    1.6014  -17.9784   27.0305 H   0  0  0  0  0  0  0  0  0  0  0  0
    1.5760  -15.8201   28.7254 H   0  0  0  0  0  0  0  0  0  0  0  0
    0.6168  -13.6281   26.7685 H   0  0  0  0  0  0  0  0  0  0  0  0
    2.3872  -13.6728   27.1254 H   0  0  0  0  0  0  0  0  0  0  0  0
    1.7611  -13.6767   25.7120 H   0  0  0  0  0  0  0  0  0  0  0  0
    4.0912  -15.3564   26.3531 H   0  0  0  0  0  0  0  0  0  0  0  0
    4.2047  -15.9599   27.9904 H   0  0  0  0  0  0  0  0  0  0  0  0
    4.6532  -12.9982   28.4068 H   0  0  0  0  0  0  0  0  0  0  0  0
    7.8839  -11.2735   25.4376 H   0  0  0  0  0  0  0  0  0  0  0  0
    6.7329   -8.6921   28.4936 H   0  0  0  0  0  0  0  0  0  0  0  0
    5.5451  -10.8885   28.8973 H   0  0  0  0  0  0  0  0  0  0  0  0
  1  2  1  0
  2  3  2  0
  3  4  1  0
  4  5  2  0
  5  6  1  0
  6  7  1  0
  7  8  1  0
  8  9  2  0
  8 10  1  0
 10 11  1  0
 11 12  1  0
 12 13  1  0
 12 14  1  0
 14 15  1  0
 15 16  1  0
 16 17  2  0
 16 18  1  0
 18 19  2  0
 19 20  1  0
 20 21  2  0
 21 22  1  0
  6  2  1  0
 22 18  1  0
  1 23  1  0
  1 24  1  0
  1 25  1  0
  4 26  1  0
  5 27  1  0
  7 28  1  0
  7 29  1  0
 10 30  1  0
 11 31  1  0
 11 32  1  0
 12 33  1  0
 13 34  1  0
 13 35  1  0
 13 36  1  0
 14 37  1  0
 14 38  1  0
 15 39  1  0
 19 40  1  0
 21 41  1  0
 22 42  1  0
M  END
>  <Energy>  (421) 
927.01336657646573

>  <compound_id>  (421) 
14284

>  <target_id>  (421) 
1

>  <reference_id>  (421) 
115

>  <inspiration_ids>  (421) 
[115, 63]

>  <energy_score>  (421) 
937.8939084171807

>  <distance_score>  (421) 
12.453324280201041

>  <path>  (421) 
/opt/xchem-fragalysis-2/maxwin/BulkDock/SCRATCH/511013/C14284-P115/C14284-P115.minimised.mol

>  <scratch_subdir>  (421) 
/opt/xchem-fragalysis-2/maxwin/BulkDock/SCRATCH/511013/C14284-P115

>  <fragmenstein_runtime>  (421) 
21.717821836471558

>  <fragmenstein_outcome>  (421) 
too moved

>  <fragmenstein_mode>  (421) 
expansion

>  <fragmenstein_error>  (421) 


$$$$
C14284-P63
     RDKit          3D

 42 43  0  0  0  0  0  0  0  0999 V2000
   -4.6588  -23.2804   28.0183 C   0  0  0  0  0  0  0  0  0  0  0  0
   -5.2144  -21.8689   27.5465 C   0  0  0  0  0  0  0  0  0  0  0  0
   -6.4604  -21.6353   27.7995 N   0  0  0  0  0  0  0  0  0  0  0  0
   -6.8312  -22.6229   27.0937 C   0  0  0  0  0  0  0  0  0  0  0  0
   -5.8431  -22.6592   26.0819 C   0  0  0  0  0  0  0  0  0  0  0  0
   -4.9165  -21.0745   26.1479 N   0  0  0  0  0  0  0  0  0  0  0  0
   -3.7245  -19.6910   25.2812 C   0  0  0  0  0  0  0  0  0  0  0  0
   -2.2830  -18.0482   25.5390 C   0  0  0  0  0  0  0  0  0  0  0  0
   -1.2933  -18.3920   26.1669 O   0  0  0  0  0  0  0  0  0  0  0  0
   -2.3938  -16.3145   24.7288 N   0  0  0  0  0  0  0  0  0  0  0  0
   -1.0444  -14.8440   24.5288 C   0  0  0  0  0  0  0  0  0  0  0  0
    0.8869  -14.1100   23.9879 C   0  0  0  0  0  0  0  0  0  0  0  0
    2.7819  -14.5412   23.4125 C   0  0  0  0  0  0  0  0  0  0  0  0
    2.1803  -12.5256   23.9245 C   0  0  0  0  0  0  0  0  0  0  0  0
    2.4621  -11.5547   22.5516 N   0  0  0  0  0  0  0  0  0  0  0  0
    3.7738  -10.7694   22.0699 C   0  0  0  0  0  0  0  0  0  0  0  0
    4.8938  -10.7564   22.5298 O   0  0  0  0  0  0  0  0  0  0  0  0
    3.6739   -9.7974   20.9534 C   0  0  0  0  0  0  0  0  0  0  0  0
    4.6644   -9.4646   20.0294 C   0  0  0  0  0  0  0  0  0  0  0  0
    4.3430   -8.3468   19.2986 N   0  0  0  0  0  0  0  0  0  0  0  0
    3.1818   -7.9690   19.7768 C   0  0  0  0  0  0  0  0  0  0  0  0
    2.7332   -8.8158   20.7583 N   0  0  0  0  0  0  0  0  0  0  0  0
   -5.5471  -23.7831   28.3964 H   0  0  0  0  0  0  0  0  0  0  0  0
   -4.0643  -23.6461   28.8617 H   0  0  0  0  0  0  0  0  0  0  0  0
   -4.0827  -23.7271   27.2670 H   0  0  0  0  0  0  0  0  0  0  0  0
   -7.8155  -23.0007   27.2347 H   0  0  0  0  0  0  0  0  0  0  0  0
   -5.8291  -23.2319   25.1300 H   0  0  0  0  0  0  0  0  0  0  0  0
   -3.5177  -20.3333   24.3968 H   0  0  0  0  0  0  0  0  0  0  0  0
   -2.9156  -19.6664   26.1874 H   0  0  0  0  0  0  0  0  0  0  0  0
   -3.3083  -16.1940   24.3363 H   0  0  0  0  0  0  0  0  0  0  0  0
   -1.5414  -14.0947   25.1894 H   0  0  0  0  0  0  0  0  0  0  0  0
   -1.2686  -14.8688   23.4689 H   0  0  0  0  0  0  0  0  0  0  0  0
    0.9272  -13.8521   25.1318 H   0  0  0  0  0  0  0  0  0  0  0  0
    3.2627  -15.5081   23.3913 H   0  0  0  0  0  0  0  0  0  0  0  0
    3.5442  -14.2700   24.1847 H   0  0  0  0  0  0  0  0  0  0  0  0
    3.1126  -14.0965   22.4959 H   0  0  0  0  0  0  0  0  0  0  0  0
    3.1942  -12.7232   24.1475 H   0  0  0  0  0  0  0  0  0  0  0  0
    1.8255  -11.8737   24.6784 H   0  0  0  0  0  0  0  0  0  0  0  0
    1.6822  -11.2743   21.9969 H   0  0  0  0  0  0  0  0  0  0  0  0
    5.6138   -9.9680   19.8948 H   0  0  0  0  0  0  0  0  0  0  0  0
    2.6187   -7.1006   19.4626 H   0  0  0  0  0  0  0  0  0  0  0  0
    1.9052   -8.7008   21.3275 H   0  0  0  0  0  0  0  0  0  0  0  0
  1  2  1  0
  2  3  2  0
  3  4  1  0
  4  5  2  0
  5  6  1  0
  6  7  1  0
  7  8  1  0
  8  9  2  0
  8 10  1  0
 10 11  1  0
 11 12  1  0
 12 13  1  0
 12 14  1  0
 14 15  1  0
 15 16  1  0
 16 17  2  0
 16 18  1  0
 18 19  2  0
 19 20  1  0
 20 21  2  0
 21 22  1  0
  6  2  1  0
 22 18  1  0
  1 23  1  0
  1 24  1  0
  1 25  1  0
  4 26  1  0
  5 27  1  0
  7 28  1  0
  7 29  1  0
 10 30  1  0
 11 31  1  0
 11 32  1  0
 12 33  1  0
 13 34  1  0
 13 35  1  0
 13 36  1  0
 14 37  1  0
 14 38  1  0
 15 39  1  0
 19 40  1  0
 21 41  1  0
 22 42  1  0
M  END
>  <Energy>  (422) 
1175.7258575186966

>  <compound_id>  (422) 
14284

>  <target_id>  (422) 
1

>  <reference_id>  (422) 
63

>  <inspiration_ids>  (422) 
[115, 63]

>  <energy_score>  (422) 
1186.6063993594414

>  <distance_score>  (422) 
10.374425756317823

>  <path>  (422) 
/opt/xchem-fragalysis-2/maxwin/BulkDock/SCRATCH/511013/C14284-P63/C14284-P63.minimised.mol

>  <scratch_subdir>  (422) 
/opt/xchem-fragalysis-2/maxwin/BulkDock/SCRATCH/511013/C14284-P63

>  <fragmenstein_runtime>  (422) 
32.610963582992554

>  <fragmenstein_outcome>  (422) 
too moved

>  <fragmenstein_mode>  (422) 
expansion

>  <fragmenstein_error>  (422) 


$$$$
C14285-P115
     RDKit          3D

 42 43  0  0  0  0  0  0  0  0999 V2000
    1.6004  -24.6024   26.1755 C   0  0  0  0  0  0  0  0  0  0  0  0
    3.1170  -24.5147   26.2356 C   0  0  0  0  0  0  0  0  0  0  0  0
    3.8679  -25.6781   26.2010 C   0  0  0  0  0  0  0  0  0  0  0  0
    5.1959  -25.4349   26.2237 N   0  0  0  0  0  0  0  0  0  0  0  0
    5.3123  -24.1309   26.2012 C   0  0  0  0  0  0  0  0  0  0  0  0
    4.1068  -23.4701   26.3135 N   0  0  0  0  0  0  0  0  0  0  0  0
    4.1517  -22.0536   26.9859 C   0  0  0  0  0  0  0  0  0  0  0  0
    4.6302  -20.6300   25.9404 C   0  0  0  0  0  0  0  0  0  0  0  0
    5.4972  -20.9512   25.2071 O   0  0  0  0  0  0  0  0  0  0  0  0
    3.7601  -19.1594   26.0241 N   0  0  0  0  0  0  0  0  0  0  0  0
    3.7791  -17.6931   24.9690 C   0  0  0  0  0  0  0  0  0  0  0  0
    4.3669  -15.7763   24.3726 C   0  0  0  0  0  0  0  0  0  0  0  0
    4.4450  -14.8799   25.6680 C   0  0  0  0  0  0  0  0  0  0  0  0
    3.3001  -14.3729   23.4675 C   0  0  0  0  0  0  0  0  0  0  0  0
    3.3087  -12.7002   22.7224 N   0  0  0  0  0  0  0  0  0  0  0  0
    3.9096  -12.1872   21.3901 C   0  0  0  0  0  0  0  0  0  0  0  0
    4.4812  -12.7812   20.5140 O   0  0  0  0  0  0  0  0  0  0  0  0
    3.9263  -10.7322   21.1092 C   0  0  0  0  0  0  0  0  0  0  0  0
    5.0073  -10.0631   20.5127 C   0  0  0  0  0  0  0  0  0  0  0  0
    4.7801   -8.7226   20.3272 N   0  0  0  0  0  0  0  0  0  0  0  0
    3.5463   -8.5600   20.7327 C   0  0  0  0  0  0  0  0  0  0  0  0
    2.9949   -9.7367   21.1761 N   0  0  0  0  0  0  0  0  0  0  0  0
    1.2932  -25.6251   26.4345 H   0  0  0  0  0  0  0  0  0  0  0  0
    1.2214  -24.4393   25.1649 H   0  0  0  0  0  0  0  0  0  0  0  0
    1.0674  -23.9715   26.8812 H   0  0  0  0  0  0  0  0  0  0  0  0
    3.4960  -26.6940   26.1530 H   0  0  0  0  0  0  0  0  0  0  0  0
    6.2458  -23.5840   26.1552 H   0  0  0  0  0  0  0  0  0  0  0  0
    3.1239  -22.1396   27.3218 H   0  0  0  0  0  0  0  0  0  0  0  0
    4.8140  -22.2148   27.8285 H   0  0  0  0  0  0  0  0  0  0  0  0
    3.1494  -19.1618   26.8149 H   0  0  0  0  0  0  0  0  0  0  0  0
    3.2554  -17.3790   25.8988 H   0  0  0  0  0  0  0  0  0  0  0  0
    3.0685  -18.0416   24.2408 H   0  0  0  0  0  0  0  0  0  0  0  0
    5.3176  -15.9496   23.9464 H   0  0  0  0  0  0  0  0  0  0  0  0
    4.3116  -15.4342   26.5925 H   0  0  0  0  0  0  0  0  0  0  0  0
    3.6047  -14.2638   25.8902 H   0  0  0  0  0  0  0  0  0  0  0  0
    5.1916  -14.1075   25.6100 H   0  0  0  0  0  0  0  0  0  0  0  0
    3.1998  -13.7206   24.3188 H   0  0  0  0  0  0  0  0  0  0  0  0
    2.3297  -14.7124   23.2814 H   0  0  0  0  0  0  0  0  0  0  0  0
    2.8264  -11.9481   23.1822 H   0  0  0  0  0  0  0  0  0  0  0  0
    5.9474  -10.5145   20.2173 H   0  0  0  0  0  0  0  0  0  0  0  0
    2.9902   -7.6326   20.7343 H   0  0  0  0  0  0  0  0  0  0  0  0
    2.0682   -9.8386   21.5731 H   0  0  0  0  0  0  0  0  0  0  0  0
  1  2  1  0
  2  3  2  0
  3  4  1  0
  4  5  2  0
  5  6  1  0
  6  7  1  0
  7  8  1  0
  8  9  2  0
  8 10  1  0
 10 11  1  0
 11 12  1  0
 12 13  1  0
 12 14  1  0
 14 15  1  0
 15 16  1  0
 16 17  2  0
 16 18  1  0
 18 19  2  0
 19 20  1  0
 20 21  2  0
 21 22  1  0
  6  2  1  0
 22 18  1  0
  1 23  1  0
  1 24  1  0
  1 25  1  0
  3 26  1  0
  5 27  1  0
  7 28  1  0
  7 29  1  0
 10 30  1  0
 11 31  1  0
 11 32  1  0
 12 33  1  0
 13 34  1  0
 13 35  1  0
 13 36  1  0
 14 37  1  0
 14 38  1  0
 15 39  1  0
 19 40  1  0
 21 41  1  0
 22 42  1  0
M  END
>  <Energy>  (423) 
416.41716557202835

>  <compound_id>  (423) 
14285

>  <target_id>  (423) 
1

>  <reference_id>  (423) 
115

>  <inspiration_ids>  (423) 
[115, 63]

>  <energy_score>  (423) 
418.99241452836077

>  <distance_score>  (423) 
13.923354422596343

>  <path>  (423) 
/opt/xchem-fragalysis-2/maxwin/BulkDock/SCRATCH/511013/C14285-P115/C14285-P115.minimised.mol

>  <scratch_subdir>  (423) 
/opt/xchem-fragalysis-2/maxwin/BulkDock/SCRATCH/511013/C14285-P115

>  <fragmenstein_runtime>  (423) 
30.681029796600342

>  <fragmenstein_outcome>  (423) 
too moved

>  <fragmenstein_mode>  (423) 
expansion

>  <fragmenstein_error>  (423) 


$$$$
C14285-P63
     RDKit          3D

 42 43  0  0  0  0  0  0  0  0999 V2000
   -2.5612  -22.0700   23.2978 C   0  0  0  0  0  0  0  0  0  0  0  0
   -3.7077  -21.2820   23.7846 C   0  0  0  0  0  0  0  0  0  0  0  0
   -5.0003  -21.6216   23.4591 C   0  0  0  0  0  0  0  0  0  0  0  0
   -5.8363  -20.7893   24.0587 N   0  0  0  0  0  0  0  0  0  0  0  0
   -5.1491  -20.2155   25.0177 C   0  0  0  0  0  0  0  0  0  0  0  0
   -3.8117  -20.0510   24.6743 N   0  0  0  0  0  0  0  0  0  0  0  0
   -2.3710  -19.1338   25.6626 C   0  0  0  0  0  0  0  0  0  0  0  0
   -0.5936  -18.4676   26.0703 C   0  0  0  0  0  0  0  0  0  0  0  0
   -0.5585  -17.8891   27.1356 O   0  0  0  0  0  0  0  0  0  0  0  0
    0.7700  -18.7628   24.9515 N   0  0  0  0  0  0  0  0  0  0  0  0
    2.5663  -18.2067   25.0371 C   0  0  0  0  0  0  0  0  0  0  0  0
    3.2557  -18.0948   23.7213 C   0  0  0  0  0  0  0  0  0  0  0  0
    4.1829  -16.5767   23.7850 C   0  0  0  0  0  0  0  0  0  0  0  0
    3.2762  -19.2541   22.2499 C   0  0  0  0  0  0  0  0  0  0  0  0
    3.9808  -19.2948   20.5786 N   0  0  0  0  0  0  0  0  0  0  0  0
    5.2811  -18.7215   20.0324 C   0  0  0  0  0  0  0  0  0  0  0  0
    6.1819  -18.1819   20.5959 O   0  0  0  0  0  0  0  0  0  0  0  0
    5.5064  -18.6827   18.5774 C   0  0  0  0  0  0  0  0  0  0  0  0
    4.8233  -18.9254   17.4063 C   0  0  0  0  0  0  0  0  0  0  0  0
    5.3785  -18.2354   16.3346 N   0  0  0  0  0  0  0  0  0  0  0  0
    6.4076  -17.5828   16.8182 C   0  0  0  0  0  0  0  0  0  0  0  0
    6.5726  -17.8769   18.1328 N   0  0  0  0  0  0  0  0  0  0  0  0
   -2.5919  -23.0919   23.6913 H   0  0  0  0  0  0  0  0  0  0  0  0
   -1.6044  -21.6489   23.5542 H   0  0  0  0  0  0  0  0  0  0  0  0
   -2.6202  -22.1677   22.2103 H   0  0  0  0  0  0  0  0  0  0  0  0
   -5.3378  -22.4016   22.7889 H   0  0  0  0  0  0  0  0  0  0  0  0
   -5.6008  -19.8512   25.9257 H   0  0  0  0  0  0  0  0  0  0  0  0
   -2.1267  -19.7833   24.8686 H   0  0  0  0  0  0  0  0  0  0  0  0
   -2.4280  -19.5983   26.6092 H   0  0  0  0  0  0  0  0  0  0  0  0
    0.4573  -19.3478   24.1724 H   0  0  0  0  0  0  0  0  0  0  0  0
    3.3263  -18.8425   25.6070 H   0  0  0  0  0  0  0  0  0  0  0  0
    2.7316  -17.5448   25.9088 H   0  0  0  0  0  0  0  0  0  0  0  0
    3.5409  -19.1110   24.1002 H   0  0  0  0  0  0  0  0  0  0  0  0
    5.2369  -16.3036   24.0146 H   0  0  0  0  0  0  0  0  0  0  0  0
    3.7360  -15.6228   23.4693 H   0  0  0  0  0  0  0  0  0  0  0  0
    4.2428  -16.7401   24.8142 H   0  0  0  0  0  0  0  0  0  0  0  0
    2.3991  -19.8978   22.1633 H   0  0  0  0  0  0  0  0  0  0  0  0
    4.2267  -19.4335   22.6017 H   0  0  0  0  0  0  0  0  0  0  0  0
    3.3961  -19.6123   19.7988 H   0  0  0  0  0  0  0  0  0  0  0  0
    3.8986  -19.4716   17.2738 H   0  0  0  0  0  0  0  0  0  0  0  0
    7.0565  -16.9107   16.2734 H   0  0  0  0  0  0  0  0  0  0  0  0
    7.2368  -17.4615   18.7737 H   0  0  0  0  0  0  0  0  0  0  0  0
  1  2  1  0
  2  3  2  0
  3  4  1  0
  4  5  2  0
  5  6  1  0
  6  7  1  0
  7  8  1  0
  8  9  2  0
  8 10  1  0
 10 11  1  0
 11 12  1  0
 12 13  1  0
 12 14  1  0
 14 15  1  0
 15 16  1  0
 16 17  2  0
 16 18  1  0
 18 19  2  0
 19 20  1  0
 20 21  2  0
 21 22  1  0
  6  2  1  0
 22 18  1  0
  1 23  1  0
  1 24  1  0
  1 25  1  0
  3 26  1  0
  5 27  1  0
  7 28  1  0
  7 29  1  0
 10 30  1  0
 11 31  1  0
 11 32  1  0
 12 33  1  0
 13 34  1  0
 13 35  1  0
 13 36  1  0
 14 37  1  0
 14 38  1  0
 15 39  1  0
 19 40  1  0
 21 41  1  0
 22 42  1  0
M  END
>  <Energy>  (424) 
554.61776661755982

>  <compound_id>  (424) 
14285

>  <target_id>  (424) 
1

>  <reference_id>  (424) 
63

>  <inspiration_ids>  (424) 
[115, 63]

>  <energy_score>  (424) 
557.1930155739025

>  <distance_score>  (424) 
14.865221285324447

>  <path>  (424) 
/opt/xchem-fragalysis-2/maxwin/BulkDock/SCRATCH/511013/C14285-P63/C14285-P63.minimised.mol

>  <scratch_subdir>  (424) 
/opt/xchem-fragalysis-2/maxwin/BulkDock/SCRATCH/511013/C14285-P63

>  <fragmenstein_runtime>  (424) 
47.450714349746704

>  <fragmenstein_outcome>  (424) 
too moved

>  <fragmenstein_mode>  (424) 
expansion

>  <fragmenstein_error>  (424) 


$$$$
C14287-P115
     RDKit          3D

 29 30  0  0  0  0  0  0  0  0999 V2000
    9.7842   -8.8484   19.6166 O   0  0  0  0  0  0  0  0  0  0  0  0
    9.2528   -7.8356   19.9637 C   0  0  0  0  0  0  0  0  0  0  0  0
   10.2077   -7.0499   21.0008 O   0  0  0  0  0  0  0  0  0  0  0  0
    7.3687   -7.3662   19.4023 C   0  0  0  0  0  0  0  0  0  0  0  0
    6.2368   -7.8824   19.7104 C   0  0  0  0  0  0  0  0  0  0  0  0
    5.0938   -8.9085   18.7192 N   0  0  0  0  0  0  0  0  0  0  0  0
    5.6691  -10.8508   18.8238 C   0  0  0  0  0  0  0  0  0  0  0  0
    4.5382  -12.6385   19.0698 C   0  0  0  0  0  0  0  0  0  0  0  0
    3.2044  -14.0923   18.8289 N   0  0  0  0  0  0  0  0  0  0  0  0
    2.1812  -15.0807   20.0791 C   0  0  0  0  0  0  0  0  0  0  0  0
    2.4615  -14.8303   21.1510 O   0  0  0  0  0  0  0  0  0  0  0  0
    0.6304  -16.3193   20.0928 C   0  0  0  0  0  0  0  0  0  0  0  0
   -1.0042  -16.3315   19.9227 C   0  0  0  0  0  0  0  0  0  0  0  0
   -1.6664  -17.5272   19.7643 N   0  0  0  0  0  0  0  0  0  0  0  0
   -0.8251  -18.3369   20.2934 C   0  0  0  0  0  0  0  0  0  0  0  0
    0.2388  -17.6350   20.7858 N   0  0  0  0  0  0  0  0  0  0  0  0
    5.4851   -7.2872   18.0804 C   0  0  0  0  0  0  0  0  0  0  0  0
    6.7122   -6.6626   18.2987 N   0  0  0  0  0  0  0  0  0  0  0  0
   11.0220   -7.5923   21.0490 H   0  0  0  0  0  0  0  0  0  0  0  0
    6.0637   -7.6931   20.7415 H   0  0  0  0  0  0  0  0  0  0  0  0
    6.6263  -10.8046   18.3692 H   0  0  0  0  0  0  0  0  0  0  0  0
    6.0523  -10.9528   19.8518 H   0  0  0  0  0  0  0  0  0  0  0  0
    5.3684  -13.3028   19.3065 H   0  0  0  0  0  0  0  0  0  0  0  0
    4.0478  -12.3704   18.1150 H   0  0  0  0  0  0  0  0  0  0  0  0
    2.8484  -14.2986   17.9002 H   0  0  0  0  0  0  0  0  0  0  0  0
   -1.5979  -15.4754   19.5995 H   0  0  0  0  0  0  0  0  0  0  0  0
   -0.9498  -19.3970   20.4659 H   0  0  0  0  0  0  0  0  0  0  0  0
    0.8383  -18.1906   21.3646 H   0  0  0  0  0  0  0  0  0  0  0  0
    4.6598   -6.8319   17.5847 H   0  0  0  0  0  0  0  0  0  0  0  0
  1  2  2  0
  2  3  1  0
  2  4  1  0
  4  5  2  0
  5  6  1  0
  6  7  1  0
  7  8  1  0
  8  9  1  0
  9 10  1  0
 10 11  2  0
 10 12  1  0
 12 13  2  0
 13 14  1  0
 14 15  2  0
 15 16  1  0
  6 17  1  0
 17 18  2  0
 18  4  1  0
 16 12  1  0
  3 19  1  0
  5 20  1  0
  7 21  1  0
  7 22  1  0
  8 23  1  0
  8 24  1  0
  9 25  1  0
 13 26  1  0
 15 27  1  0
 16 28  1  0
 17 29  1  0
M  END
>  <Energy>  (425) 
1001.1229617124169

>  <compound_id>  (425) 
14287

>  <target_id>  (425) 
1

>  <reference_id>  (425) 
115

>  <inspiration_ids>  (425) 
[115, 63]

>  <energy_score>  (425) 
990.638528672344

>  <distance_score>  (425) 
13.312330794370064

>  <path>  (425) 
/opt/xchem-fragalysis-2/maxwin/BulkDock/SCRATCH/511013/C14287-P115/C14287-P115.minimised.mol

>  <scratch_subdir>  (425) 
/opt/xchem-fragalysis-2/maxwin/BulkDock/SCRATCH/511013/C14287-P115

>  <fragmenstein_runtime>  (425) 
14.067142963409424

>  <fragmenstein_outcome>  (425) 
too moved

>  <fragmenstein_mode>  (425) 
expansion

>  <fragmenstein_error>  (425) 


$$$$
C14287-P63
     RDKit          3D

 29 30  0  0  0  0  0  0  0  0999 V2000
    6.0687   -5.9962   17.6875 O   0  0  0  0  0  0  0  0  0  0  0  0
    4.9861   -6.3340   17.2337 C   0  0  0  0  0  0  0  0  0  0  0  0
    4.5776   -5.8151   16.0442 O   0  0  0  0  0  0  0  0  0  0  0  0
    4.1582   -7.4130   17.9377 C   0  0  0  0  0  0  0  0  0  0  0  0
    2.8317   -8.5397   17.7779 C   0  0  0  0  0  0  0  0  0  0  0  0
    3.3637  -10.0314   17.5449 N   0  0  0  0  0  0  0  0  0  0  0  0
    3.1535  -11.9781   17.7555 C   0  0  0  0  0  0  0  0  0  0  0  0
    1.8324  -13.7111   18.0072 C   0  0  0  0  0  0  0  0  0  0  0  0
   -0.0927  -13.3147   17.8233 N   0  0  0  0  0  0  0  0  0  0  0  0
   -1.5061  -14.2468   18.1992 C   0  0  0  0  0  0  0  0  0  0  0  0
   -1.6123  -15.3976   18.5878 O   0  0  0  0  0  0  0  0  0  0  0  0
   -2.8173  -13.6069   18.1793 C   0  0  0  0  0  0  0  0  0  0  0  0
   -3.2744  -12.4223   18.7182 C   0  0  0  0  0  0  0  0  0  0  0  0
   -4.5774  -12.5461   19.1796 N   0  0  0  0  0  0  0  0  0  0  0  0
   -4.9368  -13.7797   18.9134 C   0  0  0  0  0  0  0  0  0  0  0  0
   -3.9487  -14.4333   18.2414 N   0  0  0  0  0  0  0  0  0  0  0  0
    4.8007   -9.3887   18.1763 C   0  0  0  0  0  0  0  0  0  0  0  0
    5.0538   -8.1643   18.5264 N   0  0  0  0  0  0  0  0  0  0  0  0
    5.2899   -5.1979   15.8189 H   0  0  0  0  0  0  0  0  0  0  0  0
    1.8591   -8.3989   17.3451 H   0  0  0  0  0  0  0  0  0  0  0  0
    4.0781  -12.3025   18.1843 H   0  0  0  0  0  0  0  0  0  0  0  0
    3.2509  -11.7567   16.6697 H   0  0  0  0  0  0  0  0  0  0  0  0
    2.2780  -14.3803   18.7622 H   0  0  0  0  0  0  0  0  0  0  0  0
    1.8740  -14.4272   17.2142 H   0  0  0  0  0  0  0  0  0  0  0  0
   -0.3472  -12.3924   17.6157 H   0  0  0  0  0  0  0  0  0  0  0  0
   -2.6987  -11.5328   18.9445 H   0  0  0  0  0  0  0  0  0  0  0  0
   -5.8763  -14.2472   19.1764 H   0  0  0  0  0  0  0  0  0  0  0  0
   -3.9060  -15.4313   18.0784 H   0  0  0  0  0  0  0  0  0  0  0  0
    5.5134  -10.2091   18.4044 H   0  0  0  0  0  0  0  0  0  0  0  0
  1  2  2  0
  2  3  1  0
  2  4  1  0
  4  5  2  0
  5  6  1  0
  6  7  1  0
  7  8  1  0
  8  9  1  0
  9 10  1  0
 10 11  2  0
 10 12  1  0
 12 13  2  0
 13 14  1  0
 14 15  2  0
 15 16  1  0
  6 17  1  0
 17 18  2  0
 18  4  1  0
 16 12  1  0
  3 19  1  0
  5 20  1  0
  7 21  1  0
  7 22  1  0
  8 23  1  0
  8 24  1  0
  9 25  1  0
 13 26  1  0
 15 27  1  0
 16 28  1  0
 17 29  1  0
M  END
>  <Energy>  (426) 
538.67718707419635

>  <compound_id>  (426) 
14287

>  <target_id>  (426) 
1

>  <reference_id>  (426) 
63

>  <inspiration_ids>  (426) 
[115, 63]

>  <energy_score>  (426) 
528.1927540341266

>  <distance_score>  (426) 
14.769785342494808

>  <path>  (426) 
/opt/xchem-fragalysis-2/maxwin/BulkDock/SCRATCH/511013/C14287-P63/C14287-P63.minimised.mol

>  <scratch_subdir>  (426) 
/opt/xchem-fragalysis-2/maxwin/BulkDock/SCRATCH/511013/C14287-P63

>  <fragmenstein_runtime>  (426) 
22.845909595489502

>  <fragmenstein_outcome>  (426) 
too moved

>  <fragmenstein_mode>  (426) 
expansion

>  <fragmenstein_error>  (426) 


$$$$
C14288-P115
     RDKit          3D

 26 27  0  0  0  0  0  0  0  0999 V2000
   -0.1891  -20.0724   20.0709 O   0  0  0  0  0  0  0  0  0  0  0  0
   -0.7514  -19.5427   21.0181 C   0  0  0  0  0  0  0  0  0  0  0  0
   -1.0186  -20.2971   22.1148 O   0  0  0  0  0  0  0  0  0  0  0  0
   -1.1601  -18.1436   21.1070 C   0  0  0  0  0  0  0  0  0  0  0  0
   -0.5920  -17.1453   20.2426 N   0  0  0  0  0  0  0  0  0  0  0  0
   -1.5004  -16.2060   20.2660 C   0  0  0  0  0  0  0  0  0  0  0  0
   -2.0328  -16.1916   21.5136 N   0  0  0  0  0  0  0  0  0  0  0  0
   -2.1042  -17.5643   21.9661 C   0  0  0  0  0  0  0  0  0  0  0  0
   -3.1245  -17.9805   23.0152 C   0  0  0  0  0  0  0  0  0  0  0  0
   -3.9193  -17.1274   23.1697 O   0  0  0  0  0  0  0  0  0  0  0  0
   -3.0539  -19.4370   23.6313 N   0  0  0  0  0  0  0  0  0  0  0  0
   -4.0220  -20.1673   24.4973 C   0  0  0  0  0  0  0  0  0  0  0  0
   -3.9103  -21.1559   25.7021 C   0  0  0  0  0  0  0  0  0  0  0  0
   -4.4198  -22.4508   25.9196 C   0  0  0  0  0  0  0  0  0  0  0  0
   -4.3899  -22.8294   27.2457 N   0  0  0  0  0  0  0  0  0  0  0  0
   -3.7763  -21.8389   27.8363 C   0  0  0  0  0  0  0  0  0  0  0  0
   -3.6148  -20.7743   26.9955 N   0  0  0  0  0  0  0  0  0  0  0  0
   -0.6148  -21.1518   21.8413 H   0  0  0  0  0  0  0  0  0  0  0  0
   -1.7868  -15.5042   19.4935 H   0  0  0  0  0  0  0  0  0  0  0  0
   -2.7183  -15.5420   21.8555 H   0  0  0  0  0  0  0  0  0  0  0  0
   -2.1841  -19.8850   23.3493 H   0  0  0  0  0  0  0  0  0  0  0  0
   -4.6605  -19.3539   24.8624 H   0  0  0  0  0  0  0  0  0  0  0  0
   -4.5774  -20.7294   23.7371 H   0  0  0  0  0  0  0  0  0  0  0  0
   -4.8472  -23.1100   25.1730 H   0  0  0  0  0  0  0  0  0  0  0  0
   -3.4249  -21.7897   28.8578 H   0  0  0  0  0  0  0  0  0  0  0  0
   -3.2480  -19.8722   27.2670 H   0  0  0  0  0  0  0  0  0  0  0  0
  1  2  2  0
  2  3  1  0
  2  4  1  0
  4  5  1  0
  5  6  2  0
  6  7  1  0
  7  8  1  0
  8  9  1  0
  9 10  2  0
  9 11  1  0
 11 12  1  0
 12 13  1  0
 13 14  2  0
 14 15  1  0
 15 16  2  0
 16 17  1  0
  8  4  2  0
 17 13  1  0
  3 18  1  0
  6 19  1  0
  7 20  1  0
 11 21  1  0
 12 22  1  0
 12 23  1  0
 14 24  1  0
 16 25  1  0
 17 26  1  0
M  END
>  <Energy>  (427) 
14.90277342485534

>  <compound_id>  (427) 
14288

>  <target_id>  (427) 
1

>  <reference_id>  (427) 
115

>  <inspiration_ids>  (427) 
[115, 63]

>  <energy_score>  (427) 
21.683604145813547

>  <distance_score>  (427) 
16.74229270056072

>  <path>  (427) 
/opt/xchem-fragalysis-2/maxwin/BulkDock/SCRATCH/511013/C14288-P115/C14288-P115.minimised.mol

>  <scratch_subdir>  (427) 
/opt/xchem-fragalysis-2/maxwin/BulkDock/SCRATCH/511013/C14288-P115

>  <fragmenstein_runtime>  (427) 
8.582028865814209

>  <fragmenstein_outcome>  (427) 
too moved

>  <fragmenstein_mode>  (427) 
expansion

>  <fragmenstein_error>  (427) 


$$$$
C14288-P63
     RDKit          3D

 26 27  0  0  0  0  0  0  0  0999 V2000
    0.0938  -15.5763   30.4481 O   0  0  0  0  0  0  0  0  0  0  0  0
    0.7535  -14.6389   30.0196 C   0  0  0  0  0  0  0  0  0  0  0  0
    1.8076  -14.0935   30.6788 O   0  0  0  0  0  0  0  0  0  0  0  0
    0.5154  -13.9837   28.7448 C   0  0  0  0  0  0  0  0  0  0  0  0
    1.3682  -12.8662   28.3136 N   0  0  0  0  0  0  0  0  0  0  0  0
    0.8670  -12.5243   27.1638 C   0  0  0  0  0  0  0  0  0  0  0  0
   -0.0649  -13.4223   26.7538 N   0  0  0  0  0  0  0  0  0  0  0  0
   -0.4829  -14.3031   27.8201 C   0  0  0  0  0  0  0  0  0  0  0  0
   -1.7054  -15.2633   27.6168 C   0  0  0  0  0  0  0  0  0  0  0  0
   -2.2188  -15.0480   26.5746 O   0  0  0  0  0  0  0  0  0  0  0  0
   -2.0297  -16.3843   28.7200 N   0  0  0  0  0  0  0  0  0  0  0  0
   -3.0356  -17.5619   28.6877 C   0  0  0  0  0  0  0  0  0  0  0  0
   -3.6441  -18.4289   29.8690 C   0  0  0  0  0  0  0  0  0  0  0  0
   -4.7796  -18.3008   30.6794 C   0  0  0  0  0  0  0  0  0  0  0  0
   -4.9167  -19.3333   31.5950 N   0  0  0  0  0  0  0  0  0  0  0  0
   -3.9452  -20.1583   31.2981 C   0  0  0  0  0  0  0  0  0  0  0  0
   -3.2669  -19.7428   30.1770 N   0  0  0  0  0  0  0  0  0  0  0  0
    2.1701  -13.3816   30.0992 H   0  0  0  0  0  0  0  0  0  0  0  0
    1.1243  -11.7009   26.5624 H   0  0  0  0  0  0  0  0  0  0  0  0
   -0.4856  -13.4584   25.8348 H   0  0  0  0  0  0  0  0  0  0  0  0
   -1.3363  -16.3397   29.4686 H   0  0  0  0  0  0  0  0  0  0  0  0
   -2.5587  -18.2768   28.0042 H   0  0  0  0  0  0  0  0  0  0  0  0
   -3.8936  -17.1599   28.1334 H   0  0  0  0  0  0  0  0  0  0  0  0
   -5.4748  -17.4710   30.6850 H   0  0  0  0  0  0  0  0  0  0  0  0
   -3.6806  -21.0590   31.8328 H   0  0  0  0  0  0  0  0  0  0  0  0
   -2.4905  -20.2329   29.7588 H   0  0  0  0  0  0  0  0  0  0  0  0
  1  2  2  0
  2  3  1  0
  2  4  1  0
  4  5  1  0
  5  6  2  0
  6  7  1  0
  7  8  1  0
  8  9  1  0
  9 10  2  0
  9 11  1  0
 11 12  1  0
 12 13  1  0
 13 14  2  0
 14 15  1  0
 15 16  2  0
 16 17  1  0
  8  4  2  0
 17 13  1  0
  3 18  1  0
  6 19  1  0
  7 20  1  0
 11 21  1  0
 12 22  1  0
 12 23  1  0
 14 24  1  0
 16 25  1  0
 17 26  1  0
M  END
>  <Energy>  (428) 
1.2133355882066952

>  <compound_id>  (428) 
14288

>  <target_id>  (428) 
1

>  <reference_id>  (428) 
63

>  <inspiration_ids>  (428) 
[115, 63]

>  <energy_score>  (428) 
7.994166309163461

>  <distance_score>  (428) 
16.586538371321424

>  <path>  (428) 
/opt/xchem-fragalysis-2/maxwin/BulkDock/SCRATCH/511013/C14288-P63/C14288-P63.minimised.mol

>  <scratch_subdir>  (428) 
/opt/xchem-fragalysis-2/maxwin/BulkDock/SCRATCH/511013/C14288-P63

>  <fragmenstein_runtime>  (428) 
12.305220365524292

>  <fragmenstein_outcome>  (428) 
too moved

>  <fragmenstein_mode>  (428) 
expansion

>  <fragmenstein_error>  (428) 


$$$$
C14291-P115
     RDKit          3D

 40 42  0  0  0  0  0  0  0  0999 V2000
    6.0392  -20.0647   14.5396 C   0  0  0  0  0  0  0  0  0  0  0  0
    5.2920  -18.9121   13.8898 C   0  0  0  0  0  0  0  0  0  0  0  0
    5.7980  -18.3721   12.9503 O   0  0  0  0  0  0  0  0  0  0  0  0
    4.0195  -18.7055   14.5145 N   0  0  0  0  0  0  0  0  0  0  0  0
    2.9091  -17.8488   14.1486 C   0  0  0  0  0  0  0  0  0  0  0  0
    2.8646  -16.3582   14.6870 C   0  0  0  0  0  0  0  0  0  0  0  0
    4.0053  -15.3431   14.5757 C   0  0  0  0  0  0  0  0  0  0  0  0
    5.0098  -15.1564   13.6463 C   0  0  0  0  0  0  0  0  0  0  0  0
    5.6476  -13.9843   13.9856 N   0  0  0  0  0  0  0  0  0  0  0  0
    5.0263  -13.4833   15.0906 C   0  0  0  0  0  0  0  0  0  0  0  0
    4.0420  -14.2703   15.4709 N   0  0  0  0  0  0  0  0  0  0  0  0
    1.5021  -18.7221   14.2196 C   0  0  0  0  0  0  0  0  0  0  0  0
    0.5701  -18.2398   13.6085 O   0  0  0  0  0  0  0  0  0  0  0  0
    1.6103  -20.0125   14.9334 N   0  0  0  0  0  0  0  0  0  0  0  0
    0.6241  -21.1922   15.0401 C   0  0  0  0  0  0  0  0  0  0  0  0
   -0.1840  -20.5323   16.1480 C   0  0  0  0  0  0  0  0  0  0  0  0
   -0.9529  -21.4992   17.2110 C   0  0  0  0  0  0  0  0  0  0  0  0
   -2.2775  -21.3821   17.6165 C   0  0  0  0  0  0  0  0  0  0  0  0
   -2.5993  -22.3057   18.5913 N   0  0  0  0  0  0  0  0  0  0  0  0
   -1.4969  -22.9912   18.7814 C   0  0  0  0  0  0  0  0  0  0  0  0
   -0.4794  -22.5501   17.9665 N   0  0  0  0  0  0  0  0  0  0  0  0
    1.1761  -19.8860   16.4726 C   0  0  0  0  0  0  0  0  0  0  0  0
    5.4270  -20.6368   15.2406 H   0  0  0  0  0  0  0  0  0  0  0  0
    6.3682  -20.7534   13.7550 H   0  0  0  0  0  0  0  0  0  0  0  0
    6.9149  -19.6726   15.0639 H   0  0  0  0  0  0  0  0  0  0  0  0
    3.8890  -19.4028   15.2373 H   0  0  0  0  0  0  0  0  0  0  0  0
    3.0473  -17.7281   13.0628 H   0  0  0  0  0  0  0  0  0  0  0  0
    2.5524  -16.3972   15.7295 H   0  0  0  0  0  0  0  0  0  0  0  0
    2.0127  -15.8824   14.1789 H   0  0  0  0  0  0  0  0  0  0  0  0
    5.3064  -15.7272   12.7766 H   0  0  0  0  0  0  0  0  0  0  0  0
    6.4269  -13.5644   13.4978 H   0  0  0  0  0  0  0  0  0  0  0  0
    5.3265  -12.5611   15.5713 H   0  0  0  0  0  0  0  0  0  0  0  0
    1.1579  -22.1163   15.2950 H   0  0  0  0  0  0  0  0  0  0  0  0
    0.0829  -21.3432   14.1006 H   0  0  0  0  0  0  0  0  0  0  0  0
   -0.9094  -19.8178   15.7382 H   0  0  0  0  0  0  0  0  0  0  0  0
   -3.0100  -20.6618   17.2738 H   0  0  0  0  0  0  0  0  0  0  0  0
   -1.3630  -23.8035   19.4828 H   0  0  0  0  0  0  0  0  0  0  0  0
    0.4639  -22.9098   17.9673 H   0  0  0  0  0  0  0  0  0  0  0  0
    1.1826  -18.8577   16.8292 H   0  0  0  0  0  0  0  0  0  0  0  0
    1.8678  -20.4771   17.0874 H   0  0  0  0  0  0  0  0  0  0  0  0
  1  2  1  0
  2  3  2  0
  2  4  1  0
  4  5  1  0
  5  6  1  0
  6  7  1  0
  7  8  2  0
  8  9  1  0
  9 10  1  0
 10 11  2  0
  5 12  1  0
 12 13  2  0
 12 14  1  0
 14 15  1  0
 15 16  1  0
 16 17  1  0
 17 18  2  0
 18 19  1  0
 19 20  2  0
 20 21  1  0
 16 22  1  0
 11  7  1  0
 22 14  1  0
 21 17  1  0
  1 23  1  0
  1 24  1  0
  1 25  1  0
  4 26  1  0
  5 27  1  0
  6 28  1  0
  6 29  1  0
  8 30  1  0
  9 31  1  0
 10 32  1  0
 15 33  1  0
 15 34  1  0
 16 35  1  0
 18 36  1  0
 20 37  1  0
 21 38  1  0
 22 39  1  0
 22 40  1  0
M  END
>  <Energy>  (429) 
72.832527505650432

>  <compound_id>  (429) 
14291

>  <target_id>  (429) 
1

>  <reference_id>  (429) 
115

>  <inspiration_ids>  (429) 
[115, 63]

>  <energy_score>  (429) 
7.5595635049799625

>  <distance_score>  (429) 
15.883118263921132

>  <path>  (429) 
/opt/xchem-fragalysis-2/maxwin/BulkDock/SCRATCH/511013/C14291-P115/C14291-P115.minimised.mol

>  <scratch_subdir>  (429) 
/opt/xchem-fragalysis-2/maxwin/BulkDock/SCRATCH/511013/C14291-P115

>  <fragmenstein_runtime>  (429) 
32.35514521598816

>  <fragmenstein_outcome>  (429) 
too moved

>  <fragmenstein_mode>  (429) 
expansion

>  <fragmenstein_error>  (429) 


$$$$
C14291-P63
     RDKit          3D

 40 42  0  0  0  0  0  0  0  0999 V2000
    2.0386   -6.8351   22.0835 C   0  0  0  0  0  0  0  0  0  0  0  0
    3.5161   -7.0364   22.3588 C   0  0  0  0  0  0  0  0  0  0  0  0
    4.2222   -6.0893   22.5449 O   0  0  0  0  0  0  0  0  0  0  0  0
    3.8210   -8.4408   22.3171 N   0  0  0  0  0  0  0  0  0  0  0  0
    5.0936   -9.1766   22.5887 C   0  0  0  0  0  0  0  0  0  0  0  0
    6.2244   -8.3626   21.7693 C   0  0  0  0  0  0  0  0  0  0  0  0
    7.6372   -8.8701   21.6918 C   0  0  0  0  0  0  0  0  0  0  0  0
    8.2883   -9.3805   20.5808 C   0  0  0  0  0  0  0  0  0  0  0  0
    9.5862   -9.5447   20.9573 N   0  0  0  0  0  0  0  0  0  0  0  0
    9.6798   -9.1712   22.2661 C   0  0  0  0  0  0  0  0  0  0  0  0
    8.5287   -8.7364   22.7355 N   0  0  0  0  0  0  0  0  0  0  0  0
    5.1367  -10.7402   22.1537 C   0  0  0  0  0  0  0  0  0  0  0  0
    6.2223  -10.9998   21.6525 O   0  0  0  0  0  0  0  0  0  0  0  0
    3.7507  -11.7592   22.2938 N   0  0  0  0  0  0  0  0  0  0  0  0
    3.5029  -13.2460   21.6988 C   0  0  0  0  0  0  0  0  0  0  0  0
    3.2211  -14.3709   23.2043 C   0  0  0  0  0  0  0  0  0  0  0  0
    4.1396  -16.1472   23.8081 C   0  0  0  0  0  0  0  0  0  0  0  0
    3.3134  -17.5630   23.7687 C   0  0  0  0  0  0  0  0  0  0  0  0
    2.6844  -18.2920   24.8735 N   0  0  0  0  0  0  0  0  0  0  0  0
    3.0061  -17.6339   25.9126 C   0  0  0  0  0  0  0  0  0  0  0  0
    3.9973  -17.2181   25.1638 N   0  0  0  0  0  0  0  0  0  0  0  0
    3.2806  -12.9185   23.6774 C   0  0  0  0  0  0  0  0  0  0  0  0
    1.8623   -5.7949   21.7934 H   0  0  0  0  0  0  0  0  0  0  0  0
    1.4657   -7.0534   22.9882 H   0  0  0  0  0  0  0  0  0  0  0  0
    1.7024   -7.4750   21.2625 H   0  0  0  0  0  0  0  0  0  0  0  0
    2.9490   -8.9688   22.2178 H   0  0  0  0  0  0  0  0  0  0  0  0
    5.4333   -9.0836   23.6201 H   0  0  0  0  0  0  0  0  0  0  0  0
    6.2893   -7.3594   22.2080 H   0  0  0  0  0  0  0  0  0  0  0  0
    5.8647   -8.2159   20.7411 H   0  0  0  0  0  0  0  0  0  0  0  0
    7.9360   -9.6128   19.5864 H   0  0  0  0  0  0  0  0  0  0  0  0
   10.3336   -9.9099   20.3850 H   0  0  0  0  0  0  0  0  0  0  0  0
   10.6067   -9.2300   22.8201 H   0  0  0  0  0  0  0  0  0  0  0  0
    3.0218  -13.5820   20.8048 H   0  0  0  0  0  0  0  0  0  0  0  0
    4.4251  -13.1711   21.0421 H   0  0  0  0  0  0  0  0  0  0  0  0
    2.1997  -14.6061   23.3496 H   0  0  0  0  0  0  0  0  0  0  0  0
    3.4667  -18.4325   23.0981 H   0  0  0  0  0  0  0  0  0  0  0  0
    2.7562  -17.5181   26.9495 H   0  0  0  0  0  0  0  0  0  0  0  0
    4.4252  -18.0916   25.0371 H   0  0  0  0  0  0  0  0  0  0  0  0
    2.3293  -12.4778   23.9830 H   0  0  0  0  0  0  0  0  0  0  0  0
    3.8316  -13.0376   24.5550 H   0  0  0  0  0  0  0  0  0  0  0  0
  1  2  1  0
  2  3  2  0
  2  4  1  0
  4  5  1  0
  5  6  1  0
  6  7  1  0
  7  8  2  0
  8  9  1  0
  9 10  1  0
 10 11  2  0
  5 12  1  0
 12 13  2  0
 12 14  1  0
 14 15  1  0
 15 16  1  0
 16 17  1  0
 17 18  2  0
 18 19  1  0
 19 20  2  0
 20 21  1  0
 16 22  1  0
 11  7  1  0
 22 14  1  0
 21 17  1  0
  1 23  1  0
  1 24  1  0
  1 25  1  0
  4 26  1  0
  5 27  1  0
  6 28  1  0
  6 29  1  0
  8 30  1  0
  9 31  1  0
 10 32  1  0
 15 33  1  0
 15 34  1  0
 16 35  1  0
 18 36  1  0
 20 37  1  0
 21 38  1  0
 22 39  1  0
 22 40  1  0
M  END
>  <Energy>  (430) 
559.20840510024505

>  <compound_id>  (430) 
14291

>  <target_id>  (430) 
1

>  <reference_id>  (430) 
63

>  <inspiration_ids>  (430) 
[115, 63]

>  <energy_score>  (430) 
493.9354410995616

>  <distance_score>  (430) 
14.130756095887277

>  <path>  (430) 
/opt/xchem-fragalysis-2/maxwin/BulkDock/SCRATCH/511013/C14291-P63/C14291-P63.minimised.mol

>  <scratch_subdir>  (430) 
/opt/xchem-fragalysis-2/maxwin/BulkDock/SCRATCH/511013/C14291-P63

>  <fragmenstein_runtime>  (430) 
29.578232526779175

>  <fragmenstein_outcome>  (430) 
too moved

>  <fragmenstein_mode>  (430) 
expansion

>  <fragmenstein_error>  (430) 


$$$$
C14292-P115
     RDKit          3D

 39 40  0  0  0  0  0  0  0  0999 V2000
    4.9455   -9.4423   18.3441 C   0  0  0  0  0  0  0  0  0  0  0  0
    5.8524  -10.9576   19.1874 C   0  0  0  0  0  0  0  0  0  0  0  0
    5.5208  -11.4247   20.4603 N   0  0  0  0  0  0  0  0  0  0  0  0
    4.1981  -12.4789   20.2774 C   0  0  0  0  0  0  0  0  0  0  0  0
    4.4290  -13.4422   21.0612 C   0  0  0  0  0  0  0  0  0  0  0  0
    5.5972  -13.6434   21.0630 O   0  0  0  0  0  0  0  0  0  0  0  0
    3.2686  -14.3868   22.2186 N   0  0  0  0  0  0  0  0  0  0  0  0
    3.0962  -13.5732   23.6035 C   0  0  0  0  0  0  0  0  0  0  0  0
    3.6301  -15.8464   23.4307 C   0  0  0  0  0  0  0  0  0  0  0  0
    3.1208  -17.7525   24.1807 C   0  0  0  0  0  0  0  0  0  0  0  0
    2.4655  -19.2514   25.1243 N   0  0  0  0  0  0  0  0  0  0  0  0
    2.7108  -18.3848   26.3013 C   0  0  0  0  0  0  0  0  0  0  0  0
    1.1028  -19.8170   25.2027 C   0  0  0  0  0  0  0  0  0  0  0  0
    0.0626  -19.4083   24.7643 O   0  0  0  0  0  0  0  0  0  0  0  0
    0.9409  -21.0199   26.0267 C   0  0  0  0  0  0  0  0  0  0  0  0
   -0.2682  -21.5169   26.5221 C   0  0  0  0  0  0  0  0  0  0  0  0
   -0.0938  -22.6144   27.3229 N   0  0  0  0  0  0  0  0  0  0  0  0
    1.1996  -22.8308   27.2896 C   0  0  0  0  0  0  0  0  0  0  0  0
    1.8607  -21.9041   26.5202 N   0  0  0  0  0  0  0  0  0  0  0  0
    4.3384  -12.8031   18.9786 C   0  0  0  0  0  0  0  0  0  0  0  0
    5.6801  -12.3003   18.9986 N   0  0  0  0  0  0  0  0  0  0  0  0
    5.1909   -8.3877   18.5811 H   0  0  0  0  0  0  0  0  0  0  0  0
    3.8851   -9.1293   18.5124 H   0  0  0  0  0  0  0  0  0  0  0  0
    4.3702   -9.8737   17.5352 H   0  0  0  0  0  0  0  0  0  0  0  0
    3.3038  -12.5713   23.2479 H   0  0  0  0  0  0  0  0  0  0  0  0
    3.6998  -13.8738   24.4515 H   0  0  0  0  0  0  0  0  0  0  0  0
    2.1134  -13.3830   24.0055 H   0  0  0  0  0  0  0  0  0  0  0  0
    4.4763  -15.5258   24.0513 H   0  0  0  0  0  0  0  0  0  0  0  0
    2.6621  -15.4891   23.5735 H   0  0  0  0  0  0  0  0  0  0  0  0
    3.3275  -18.3925   23.3343 H   0  0  0  0  0  0  0  0  0  0  0  0
    3.8230  -17.5884   24.9342 H   0  0  0  0  0  0  0  0  0  0  0  0
    3.1469  -17.4156   26.4767 H   0  0  0  0  0  0  0  0  0  0  0  0
    1.8199  -18.3912   26.9553 H   0  0  0  0  0  0  0  0  0  0  0  0
    3.2930  -19.0792   26.9263 H   0  0  0  0  0  0  0  0  0  0  0  0
   -1.2551  -21.1063   26.3452 H   0  0  0  0  0  0  0  0  0  0  0  0
    1.7217  -23.6354   27.7902 H   0  0  0  0  0  0  0  0  0  0  0  0
    2.8528  -21.8810   26.3291 H   0  0  0  0  0  0  0  0  0  0  0  0
    4.0267  -13.7405   18.5146 H   0  0  0  0  0  0  0  0  0  0  0  0
    6.1936  -12.7784   19.7060 H   0  0  0  0  0  0  0  0  0  0  0  0
  1  2  1  0
  2  3  2  0
  3  4  1  0
  4  5  1  0
  5  6  2  0
  5  7  1  0
  7  8  1  0
  7  9  1  0
  9 10  1  0
 10 11  1  0
 11 12  1  0
 11 13  1  0
 13 14  2  0
 13 15  1  0
 15 16  2  0
 16 17  1  0
 17 18  2  0
 18 19  1  0
  4 20  2  0
 20 21  1  0
 21  2  1  0
 19 15  1  0
  1 22  1  0
  1 23  1  0
  1 24  1  0
  8 25  1  0
  8 26  1  0
  8 27  1  0
  9 28  1  0
  9 29  1  0
 10 30  1  0
 10 31  1  0
 12 32  1  0
 12 33  1  0
 12 34  1  0
 16 35  1  0
 18 36  1  0
 19 37  1  0
 20 38  1  0
 21 39  1  0
M  END
>  <Energy>  (431) 
841.68381473777094

>  <compound_id>  (431) 
14292

>  <target_id>  (431) 
1

>  <reference_id>  (431) 
115

>  <inspiration_ids>  (431) 
[115, 63]

>  <energy_score>  (431) 
793.8439976248674

>  <distance_score>  (431) 
12.931155791321114

>  <path>  (431) 
/opt/xchem-fragalysis-2/maxwin/BulkDock/SCRATCH/511013/C14292-P115/C14292-P115.minimised.mol

>  <scratch_subdir>  (431) 
/opt/xchem-fragalysis-2/maxwin/BulkDock/SCRATCH/511013/C14292-P115

>  <fragmenstein_runtime>  (431) 
19.783222198486328

>  <fragmenstein_outcome>  (431) 
too moved

>  <fragmenstein_mode>  (431) 
expansion

>  <fragmenstein_error>  (431) 


$$$$
C14292-P63
     RDKit          3D

 39 40  0  0  0  0  0  0  0  0999 V2000
    8.4170  -10.5728   19.0979 C   0  0  0  0  0  0  0  0  0  0  0  0
    6.9060  -10.9478   19.6490 C   0  0  0  0  0  0  0  0  0  0  0  0
    6.0916  -11.1316   20.7705 N   0  0  0  0  0  0  0  0  0  0  0  0
    4.9380  -11.9628   20.3349 C   0  0  0  0  0  0  0  0  0  0  0  0
    4.5178  -12.9221   21.1217 C   0  0  0  0  0  0  0  0  0  0  0  0
    5.3032  -13.8033   21.0958 O   0  0  0  0  0  0  0  0  0  0  0  0
    3.1321  -12.7191   22.0773 N   0  0  0  0  0  0  0  0  0  0  0  0
    3.4060  -12.1019   23.1407 C   0  0  0  0  0  0  0  0  0  0  0  0
    2.2414  -13.9541   23.4131 C   0  0  0  0  0  0  0  0  0  0  0  0
    0.0403  -14.0107   23.3812 C   0  0  0  0  0  0  0  0  0  0  0  0
   -1.1381  -15.0346   24.6018 N   0  0  0  0  0  0  0  0  0  0  0  0
   -1.2419  -13.7009   25.3010 C   0  0  0  0  0  0  0  0  0  0  0  0
   -2.4985  -15.6022   24.4488 C   0  0  0  0  0  0  0  0  0  0  0  0
   -3.2943  -15.4893   23.5463 O   0  0  0  0  0  0  0  0  0  0  0  0
   -2.8190  -16.7939   25.9203 C   0  0  0  0  0  0  0  0  0  0  0  0
   -1.9598  -17.8516   26.5086 C   0  0  0  0  0  0  0  0  0  0  0  0
   -2.4190  -18.6194   27.5573 N   0  0  0  0  0  0  0  0  0  0  0  0
   -3.6688  -18.3255   27.6466 C   0  0  0  0  0  0  0  0  0  0  0  0
   -4.0048  -17.4437   26.6755 N   0  0  0  0  0  0  0  0  0  0  0  0
    5.4695  -12.3059   19.1915 C   0  0  0  0  0  0  0  0  0  0  0  0
    6.6081  -12.2165   19.8771 N   0  0  0  0  0  0  0  0  0  0  0  0
    9.1442  -11.3360   19.4081 H   0  0  0  0  0  0  0  0  0  0  0  0
    8.8998   -9.6377   19.3076 H   0  0  0  0  0  0  0  0  0  0  0  0
    8.4527  -10.5592   17.9990 H   0  0  0  0  0  0  0  0  0  0  0  0
    3.7628  -12.7068   23.9336 H   0  0  0  0  0  0  0  0  0  0  0  0
    2.4714  -11.6962   23.4744 H   0  0  0  0  0  0  0  0  0  0  0  0
    3.9952  -11.3172   22.6409 H   0  0  0  0  0  0  0  0  0  0  0  0
    2.2223  -13.2514   24.2865 H   0  0  0  0  0  0  0  0  0  0  0  0
    2.9570  -14.7788   23.3954 H   0  0  0  0  0  0  0  0  0  0  0  0
   -0.2561  -13.0958   22.9239 H   0  0  0  0  0  0  0  0  0  0  0  0
   -0.1989  -14.5302   22.4387 H   0  0  0  0  0  0  0  0  0  0  0  0
   -0.3635  -13.2619   25.8608 H   0  0  0  0  0  0  0  0  0  0  0  0
   -2.0628  -12.9432   25.2787 H   0  0  0  0  0  0  0  0  0  0  0  0
   -2.0080  -14.1851   25.9580 H   0  0  0  0  0  0  0  0  0  0  0  0
   -0.9359  -18.0768   26.2497 H   0  0  0  0  0  0  0  0  0  0  0  0
   -4.3908  -18.7657   28.3219 H   0  0  0  0  0  0  0  0  0  0  0  0
   -4.9723  -17.3551   26.3984 H   0  0  0  0  0  0  0  0  0  0  0  0
    5.4140  -11.6870   18.3388 H   0  0  0  0  0  0  0  0  0  0  0  0
    6.8124  -12.6669   20.7623 H   0  0  0  0  0  0  0  0  0  0  0  0
  1  2  1  0
  2  3  2  0
  3  4  1  0
  4  5  1  0
  5  6  2  0
  5  7  1  0
  7  8  1  0
  7  9  1  0
  9 10  1  0
 10 11  1  0
 11 12  1  0
 11 13  1  0
 13 14  2  0
 13 15  1  0
 15 16  2  0
 16 17  1  0
 17 18  2  0
 18 19  1  0
  4 20  2  0
 20 21  1  0
 21  2  1  0
 19 15  1  0
  1 22  1  0
  1 23  1  0
  1 24  1  0
  8 25  1  0
  8 26  1  0
  8 27  1  0
  9 28  1  0
  9 29  1  0
 10 30  1  0
 10 31  1  0
 12 32  1  0
 12 33  1  0
 12 34  1  0
 16 35  1  0
 18 36  1  0
 19 37  1  0
 20 38  1  0
 21 39  1  0
M  END
>  <Energy>  (432) 
815.9790476703505

>  <compound_id>  (432) 
14292

>  <target_id>  (432) 
1

>  <reference_id>  (432) 
63

>  <inspiration_ids>  (432) 
[115, 63]

>  <energy_score>  (432) 
768.1392305574591

>  <distance_score>  (432) 
12.448366588371863

>  <path>  (432) 
/opt/xchem-fragalysis-2/maxwin/BulkDock/SCRATCH/511013/C14292-P63/C14292-P63.minimised.mol

>  <scratch_subdir>  (432) 
/opt/xchem-fragalysis-2/maxwin/BulkDock/SCRATCH/511013/C14292-P63

>  <fragmenstein_runtime>  (432) 
21.943470001220703

>  <fragmenstein_outcome>  (432) 
too moved

>  <fragmenstein_mode>  (432) 
expansion

>  <fragmenstein_error>  (432) 


$$$$
C14293-P115
     RDKit          3D

 43 44  0  0  0  0  0  0  0  0999 V2000
    1.2310  -14.1647   17.1946 C   0  0  0  0  0  0  0  0  0  0  0  0
    2.0147  -15.0698   18.6000 C   0  0  0  0  0  0  0  0  0  0  0  0
    0.5890  -16.2226   19.5006 N   0  0  0  0  0  0  0  0  0  0  0  0
   -1.2552  -16.0839   19.4917 C   0  0  0  0  0  0  0  0  0  0  0  0
   -1.8456  -15.1660   18.9981 O   0  0  0  0  0  0  0  0  0  0  0  0
   -2.4205  -17.3484   20.0178 C   0  0  0  0  0  0  0  0  0  0  0  0
   -2.1391  -18.1804   18.7115 C   0  0  0  0  0  0  0  0  0  0  0  0
   -4.0661  -18.0372   19.5242 N   0  0  0  0  0  0  0  0  0  0  0  0
   -4.3250  -19.4772   19.4225 C   0  0  0  0  0  0  0  0  0  0  0  0
   -5.6253  -19.7012   19.0642 C   0  0  0  0  0  0  0  0  0  0  0  0
   -6.3113  -18.5653   19.2410 N   0  0  0  0  0  0  0  0  0  0  0  0
   -5.4308  -17.7827   19.8272 C   0  0  0  0  0  0  0  0  0  0  0  0
    3.5377  -14.7850   17.6983 C   0  0  0  0  0  0  0  0  0  0  0  0
    3.6923  -15.1357   16.1105 C   0  0  0  0  0  0  0  0  0  0  0  0
    3.6113  -14.0280   15.2108 O   0  0  0  0  0  0  0  0  0  0  0  0
    4.5924  -13.8539   18.2007 N   0  0  0  0  0  0  0  0  0  0  0  0
    5.1888  -12.6738   17.5936 C   0  0  0  0  0  0  0  0  0  0  0  0
    5.0405  -12.1993   16.5056 O   0  0  0  0  0  0  0  0  0  0  0  0
    6.1217  -11.9501   18.4417 C   0  0  0  0  0  0  0  0  0  0  0  0
    6.2618  -11.8322   19.8016 C   0  0  0  0  0  0  0  0  0  0  0  0
    7.2856  -10.9978   20.1548 N   0  0  0  0  0  0  0  0  0  0  0  0
    7.7733  -10.5723   19.0164 C   0  0  0  0  0  0  0  0  0  0  0  0
    7.0954  -11.0915   17.9528 N   0  0  0  0  0  0  0  0  0  0  0  0
    0.9833  -14.7522   16.2888 H   0  0  0  0  0  0  0  0  0  0  0  0
    1.8406  -13.6172   16.4738 H   0  0  0  0  0  0  0  0  0  0  0  0
    0.3481  -13.6110   17.5112 H   0  0  0  0  0  0  0  0  0  0  0  0
    2.4091  -14.5702   19.4839 H   0  0  0  0  0  0  0  0  0  0  0  0
    0.8517  -17.0197   20.0355 H   0  0  0  0  0  0  0  0  0  0  0  0
   -1.9825  -18.0033   20.7353 H   0  0  0  0  0  0  0  0  0  0  0  0
   -1.1619  -18.1368   18.2663 H   0  0  0  0  0  0  0  0  0  0  0  0
   -2.2210  -19.1990   18.9982 H   0  0  0  0  0  0  0  0  0  0  0  0
   -2.8744  -18.1967   17.8923 H   0  0  0  0  0  0  0  0  0  0  0  0
   -3.5969  -20.1811   19.7550 H   0  0  0  0  0  0  0  0  0  0  0  0
   -6.1107  -20.6375   18.8263 H   0  0  0  0  0  0  0  0  0  0  0  0
   -5.7679  -17.1398   20.6167 H   0  0  0  0  0  0  0  0  0  0  0  0
    3.1664  -13.8040   17.4684 H   0  0  0  0  0  0  0  0  0  0  0  0
    2.9069  -15.8284   15.7898 H   0  0  0  0  0  0  0  0  0  0  0  0
    4.6581  -15.5962   15.8966 H   0  0  0  0  0  0  0  0  0  0  0  0
    4.2675  -13.3520   15.4831 H   0  0  0  0  0  0  0  0  0  0  0  0
    4.8850  -13.9119   19.1747 H   0  0  0  0  0  0  0  0  0  0  0  0
    5.6430  -12.3119   20.5371 H   0  0  0  0  0  0  0  0  0  0  0  0
    8.6040   -9.8983   18.9137 H   0  0  0  0  0  0  0  0  0  0  0  0
    7.2674  -10.9009   16.9712 H   0  0  0  0  0  0  0  0  0  0  0  0
  1  2  1  0
  2  3  1  0
  3  4  1  0
  4  5  2  0
  4  6  1  0
  6  7  1  0
  6  8  1  0
  8  9  1  0
  9 10  2  0
 10 11  1  0
 11 12  2  0
  2 13  1  0
 13 14  1  0
 14 15  1  0
 13 16  1  0
 16 17  1  0
 17 18  2  0
 17 19  1  0
 19 20  2  0
 20 21  1  0
 21 22  2  0
 22 23  1  0
 12  8  1  0
 23 19  1  0
  1 24  1  0
  1 25  1  0
  1 26  1  0
  2 27  1  0
  3 28  1  0
  6 29  1  0
  7 30  1  0
  7 31  1  0
  7 32  1  0
  9 33  1  0
 10 34  1  0
 12 35  1  0
 13 36  1  0
 14 37  1  0
 14 38  1  0
 15 39  1  0
 16 40  1  0
 20 41  1  0
 22 42  1  0
 23 43  1  0
M  END
>  <Energy>  (433) 
520.3400216187714

>  <compound_id>  (433) 
14293

>  <target_id>  (433) 
1

>  <reference_id>  (433) 
115

>  <inspiration_ids>  (433) 
[115, 63]

>  <energy_score>  (433) 
499.98564117229125

>  <distance_score>  (433) 
13.117529941680573

>  <path>  (433) 
/opt/xchem-fragalysis-2/maxwin/BulkDock/SCRATCH/511013/C14293-P115/C14293-P115.minimised.mol

>  <scratch_subdir>  (433) 
/opt/xchem-fragalysis-2/maxwin/BulkDock/SCRATCH/511013/C14293-P115

>  <fragmenstein_runtime>  (433) 
26.364485025405884

>  <fragmenstein_outcome>  (433) 
too moved

>  <fragmenstein_mode>  (433) 
expansion

>  <fragmenstein_error>  (433) 


$$$$
C14293-P63
     RDKit          3D

 43 44  0  0  0  0  0  0  0  0999 V2000
   -1.1037  -16.1221   19.9835 C   0  0  0  0  0  0  0  0  0  0  0  0
    0.6164  -16.3931   20.7438 C   0  0  0  0  0  0  0  0  0  0  0  0
   -0.4254  -17.8847   21.5352 N   0  0  0  0  0  0  0  0  0  0  0  0
   -0.2937  -18.8340   23.1680 C   0  0  0  0  0  0  0  0  0  0  0  0
    0.5748  -18.7924   24.1085 O   0  0  0  0  0  0  0  0  0  0  0  0
   -1.4580  -19.7353   23.5896 C   0  0  0  0  0  0  0  0  0  0  0  0
   -1.6717  -18.7077   25.5045 C   0  0  0  0  0  0  0  0  0  0  0  0
   -2.7877  -20.2462   23.4273 N   0  0  0  0  0  0  0  0  0  0  0  0
   -3.8017  -19.7458   24.7340 C   0  0  0  0  0  0  0  0  0  0  0  0
   -4.8652  -20.2097   25.2298 C   0  0  0  0  0  0  0  0  0  0  0  0
   -4.4394  -21.2226   24.6331 N   0  0  0  0  0  0  0  0  0  0  0  0
   -3.2275  -21.0980   24.1356 C   0  0  0  0  0  0  0  0  0  0  0  0
    2.1833  -15.0048   20.2001 C   0  0  0  0  0  0  0  0  0  0  0  0
    3.2775  -13.6380   21.0975 C   0  0  0  0  0  0  0  0  0  0  0  0
    4.5178  -13.0259   20.5152 O   0  0  0  0  0  0  0  0  0  0  0  0
    3.0566  -14.7225   18.5202 N   0  0  0  0  0  0  0  0  0  0  0  0
    3.7942  -13.4971   17.9614 C   0  0  0  0  0  0  0  0  0  0  0  0
    3.9302  -12.3880   18.4180 O   0  0  0  0  0  0  0  0  0  0  0  0
    4.3713  -13.5584   16.6182 C   0  0  0  0  0  0  0  0  0  0  0  0
    5.1732  -12.5365   16.0826 C   0  0  0  0  0  0  0  0  0  0  0  0
    5.5552  -12.7851   14.7974 N   0  0  0  0  0  0  0  0  0  0  0  0
    5.0015  -13.9374   14.5228 C   0  0  0  0  0  0  0  0  0  0  0  0
    4.2803  -14.4375   15.5805 N   0  0  0  0  0  0  0  0  0  0  0  0
   -1.8481  -15.6061   20.5619 H   0  0  0  0  0  0  0  0  0  0  0  0
   -1.5552  -17.0639   19.6488 H   0  0  0  0  0  0  0  0  0  0  0  0
   -1.2054  -15.4162   19.1600 H   0  0  0  0  0  0  0  0  0  0  0  0
    0.7359  -16.9642   19.8350 H   0  0  0  0  0  0  0  0  0  0  0  0
   -1.1988  -18.2220   20.9839 H   0  0  0  0  0  0  0  0  0  0  0  0
   -0.9508  -20.7510   23.4969 H   0  0  0  0  0  0  0  0  0  0  0  0
   -1.8932  -19.2994   26.4210 H   0  0  0  0  0  0  0  0  0  0  0  0
   -0.7024  -18.3415   25.9674 H   0  0  0  0  0  0  0  0  0  0  0  0
   -2.1876  -17.7397   25.4778 H   0  0  0  0  0  0  0  0  0  0  0  0
   -3.1472  -19.4609   25.4322 H   0  0  0  0  0  0  0  0  0  0  0  0
   -5.4585  -20.0131   26.1050 H   0  0  0  0  0  0  0  0  0  0  0  0
   -2.2494  -21.5286   24.2908 H   0  0  0  0  0  0  0  0  0  0  0  0
    1.8911  -15.2143   19.1042 H   0  0  0  0  0  0  0  0  0  0  0  0
    3.3488  -14.3157   21.9547 H   0  0  0  0  0  0  0  0  0  0  0  0
    3.1757  -12.8332   21.8364 H   0  0  0  0  0  0  0  0  0  0  0  0
    4.7637  -12.2209   20.9729 H   0  0  0  0  0  0  0  0  0  0  0  0
    3.2135  -15.5021   17.9221 H   0  0  0  0  0  0  0  0  0  0  0  0
    5.4822  -11.6282   16.5887 H   0  0  0  0  0  0  0  0  0  0  0  0
    5.0752  -14.4632   13.5799 H   0  0  0  0  0  0  0  0  0  0  0  0
    3.7511  -15.2949   15.5599 H   0  0  0  0  0  0  0  0  0  0  0  0
  1  2  1  0
  2  3  1  0
  3  4  1  0
  4  5  2  0
  4  6  1  0
  6  7  1  0
  6  8  1  0
  8  9  1  0
  9 10  2  0
 10 11  1  0
 11 12  2  0
  2 13  1  0
 13 14  1  0
 14 15  1  0
 13 16  1  0
 16 17  1  0
 17 18  2  0
 17 19  1  0
 19 20  2  0
 20 21  1  0
 21 22  2  0
 22 23  1  0
 12  8  1  0
 23 19  1  0
  1 24  1  0
  1 25  1  0
  1 26  1  0
  2 27  1  0
  3 28  1  0
  6 29  1  0
  7 30  1  0
  7 31  1  0
  7 32  1  0
  9 33  1  0
 10 34  1  0
 12 35  1  0
 13 36  1  0
 14 37  1  0
 14 38  1  0
 15 39  1  0
 16 40  1  0
 20 41  1  0
 22 42  1  0
 23 43  1  0
M  END
>  <Energy>  (434) 
1149.5896734666367

>  <compound_id>  (434) 
14293

>  <target_id>  (434) 
1

>  <reference_id>  (434) 
63

>  <inspiration_ids>  (434) 
[115, 63]

>  <energy_score>  (434) 
1129.2352930201414

>  <distance_score>  (434) 
12.602506025543773

>  <path>  (434) 
/opt/xchem-fragalysis-2/maxwin/BulkDock/SCRATCH/511013/C14293-P63/C14293-P63.minimised.mol

>  <scratch_subdir>  (434) 
/opt/xchem-fragalysis-2/maxwin/BulkDock/SCRATCH/511013/C14293-P63

>  <fragmenstein_runtime>  (434) 
31.476147890090942

>  <fragmenstein_outcome>  (434) 
too moved

>  <fragmenstein_mode>  (434) 
expansion

>  <fragmenstein_error>  (434) 


$$$$
C14296-P115
     RDKit          3D

 40 41  0  0  0  0  0  0  0  0999 V2000
    1.4861  -13.2050   25.8094 C   0  0  0  0  0  0  0  0  0  0  0  0
    1.5368  -13.3891   24.2059 C   0  0  0  0  0  0  0  0  0  0  0  0
    2.6496  -12.1223   22.9417 C   0  0  0  0  0  0  0  0  0  0  0  0
    3.4312  -10.4166   23.1817 N   0  0  0  0  0  0  0  0  0  0  0  0
    5.1272   -9.9455   23.8101 C   0  0  0  0  0  0  0  0  0  0  0  0
    6.0667  -10.7421   24.0295 O   0  0  0  0  0  0  0  0  0  0  0  0
    5.5959   -8.1936   24.4743 C   0  0  0  0  0  0  0  0  0  0  0  0
    6.8899   -7.9677   25.0170 C   0  0  0  0  0  0  0  0  0  0  0  0
    7.0868   -6.6708   25.3985 N   0  0  0  0  0  0  0  0  0  0  0  0
    5.9138   -6.1230   25.2267 C   0  0  0  0  0  0  0  0  0  0  0  0
    4.9938   -7.0088   24.7232 N   0  0  0  0  0  0  0  0  0  0  0  0
   -0.4659  -14.2743   24.2235 C   0  0  0  0  0  0  0  0  0  0  0  0
   -1.9243  -14.8995   25.5454 N   0  0  0  0  0  0  0  0  0  0  0  0
   -2.4606  -16.6925   26.1216 C   0  0  0  0  0  0  0  0  0  0  0  0
   -2.0101  -17.7417   25.6291 O   0  0  0  0  0  0  0  0  0  0  0  0
   -3.5592  -17.1052   27.6304 C   0  0  0  0  0  0  0  0  0  0  0  0
   -4.9303  -17.2711   27.9399 O   0  0  0  0  0  0  0  0  0  0  0  0
   -2.9271  -18.3953   28.3614 C   0  0  0  0  0  0  0  0  0  0  0  0
   -1.8885  -18.4691   29.2667 C   0  0  0  0  0  0  0  0  0  0  0  0
   -1.9682  -19.7175   29.8247 N   0  0  0  0  0  0  0  0  0  0  0  0
   -3.0252  -20.3658   29.2621 C   0  0  0  0  0  0  0  0  0  0  0  0
   -3.6509  -19.5988   28.4041 N   0  0  0  0  0  0  0  0  0  0  0  0
    0.6086  -13.5082   26.3080 H   0  0  0  0  0  0  0  0  0  0  0  0
    2.1857  -13.7843   26.4053 H   0  0  0  0  0  0  0  0  0  0  0  0
    1.3144  -12.1586   26.0675 H   0  0  0  0  0  0  0  0  0  0  0  0
    2.1654  -14.1361   23.6144 H   0  0  0  0  0  0  0  0  0  0  0  0
    3.3542  -12.6571   22.3248 H   0  0  0  0  0  0  0  0  0  0  0  0
    1.6564  -11.7496   22.6981 H   0  0  0  0  0  0  0  0  0  0  0  0
    2.8783   -9.5603   23.0058 H   0  0  0  0  0  0  0  0  0  0  0  0
    7.6823   -8.7041   25.0704 H   0  0  0  0  0  0  0  0  0  0  0  0
    5.6561   -5.1015   25.4695 H   0  0  0  0  0  0  0  0  0  0  0  0
    4.0147   -6.8339   24.6006 H   0  0  0  0  0  0  0  0  0  0  0  0
   -0.7750  -14.5089   23.2102 H   0  0  0  0  0  0  0  0  0  0  0  0
    0.2755  -14.8480   24.5767 H   0  0  0  0  0  0  0  0  0  0  0  0
   -2.4751  -14.2170   26.0242 H   0  0  0  0  0  0  0  0  0  0  0  0
   -3.1575  -16.3635   28.3400 H   0  0  0  0  0  0  0  0  0  0  0  0
   -5.0552  -18.2327   27.7689 H   0  0  0  0  0  0  0  0  0  0  0  0
   -1.1605  -17.7403   29.5923 H   0  0  0  0  0  0  0  0  0  0  0  0
   -1.3671  -20.0868   30.5469 H   0  0  0  0  0  0  0  0  0  0  0  0
   -3.2884  -21.3757   29.5308 H   0  0  0  0  0  0  0  0  0  0  0  0
  1  2  1  0
  2  3  1  0
  3  4  1  0
  4  5  1  0
  5  6  2  0
  5  7  1  0
  7  8  2  0
  8  9  1  0
  9 10  2  0
 10 11  1  0
  2 12  1  0
 12 13  1  0
 13 14  1  0
 14 15  2  0
 14 16  1  0
 16 17  1  0
 16 18  1  0
 18 19  2  0
 19 20  1  0
 20 21  1  0
 21 22  2  0
 11  7  1  0
 22 18  1  0
  1 23  1  0
  1 24  1  0
  1 25  1  0
  2 26  1  0
  3 27  1  0
  3 28  1  0
  4 29  1  0
  8 30  1  0
 10 31  1  0
 11 32  1  0
 12 33  1  0
 12 34  1  0
 13 35  1  0
 16 36  1  0
 17 37  1  0
 19 38  1  0
 20 39  1  0
 21 40  1  0
M  END
>  <Energy>  (435) 
780.08407984986593

>  <compound_id>  (435) 
14296

>  <target_id>  (435) 
1

>  <reference_id>  (435) 
115

>  <inspiration_ids>  (435) 
[115, 63]

>  <energy_score>  (435) 
729.5096322184332

>  <distance_score>  (435) 
11.639011103226336

>  <path>  (435) 
/opt/xchem-fragalysis-2/maxwin/BulkDock/SCRATCH/511013/C14296-P115/C14296-P115.minimised.mol

>  <scratch_subdir>  (435) 
/opt/xchem-fragalysis-2/maxwin/BulkDock/SCRATCH/511013/C14296-P115

>  <fragmenstein_runtime>  (435) 
24.764426231384277

>  <fragmenstein_outcome>  (435) 
too moved

>  <fragmenstein_mode>  (435) 
expansion

>  <fragmenstein_error>  (435) 


$$$$
C14296-P63
     RDKit          3D

 40 41  0  0  0  0  0  0  0  0999 V2000
    3.5793  -14.9569   23.5195 C   0  0  0  0  0  0  0  0  0  0  0  0
    4.2899  -16.2264   24.2049 C   0  0  0  0  0  0  0  0  0  0  0  0
    4.8269  -14.8266   25.5001 C   0  0  0  0  0  0  0  0  0  0  0  0
    5.7228  -13.2858   25.7235 N   0  0  0  0  0  0  0  0  0  0  0  0
    7.1634  -13.0159   26.1514 C   0  0  0  0  0  0  0  0  0  0  0  0
    8.0216  -13.7736   26.5200 O   0  0  0  0  0  0  0  0  0  0  0  0
    7.5926  -11.6217   25.9890 C   0  0  0  0  0  0  0  0  0  0  0  0
    7.4033  -10.7363   24.9412 C   0  0  0  0  0  0  0  0  0  0  0  0
    8.2053   -9.6220   25.0277 N   0  0  0  0  0  0  0  0  0  0  0  0
    8.9416   -9.8287   26.0885 C   0  0  0  0  0  0  0  0  0  0  0  0
    8.6272  -11.0204   26.6852 N   0  0  0  0  0  0  0  0  0  0  0  0
    2.9949  -17.8798   24.6537 C   0  0  0  0  0  0  0  0  0  0  0  0
    1.1408  -18.6198   24.9402 N   0  0  0  0  0  0  0  0  0  0  0  0
   -0.0536  -18.4009   26.3768 C   0  0  0  0  0  0  0  0  0  0  0  0
    0.2239  -17.7228   27.3448 O   0  0  0  0  0  0  0  0  0  0  0  0
   -1.6966  -19.2395   26.6654 C   0  0  0  0  0  0  0  0  0  0  0  0
   -2.6591  -20.0272   25.9556 O   0  0  0  0  0  0  0  0  0  0  0  0
   -2.4050  -18.8178   28.0396 C   0  0  0  0  0  0  0  0  0  0  0  0
   -2.5582  -17.6262   28.7094 C   0  0  0  0  0  0  0  0  0  0  0  0
   -3.3693  -17.9000   29.7822 N   0  0  0  0  0  0  0  0  0  0  0  0
   -3.6819  -19.2270   29.7547 C   0  0  0  0  0  0  0  0  0  0  0  0
   -3.1306  -19.8167   28.7227 N   0  0  0  0  0  0  0  0  0  0  0  0
    3.5361  -14.8432   22.4812 H   0  0  0  0  0  0  0  0  0  0  0  0
    3.6202  -13.9947   24.0352 H   0  0  0  0  0  0  0  0  0  0  0  0
    2.5317  -14.9317   23.4698 H   0  0  0  0  0  0  0  0  0  0  0  0
    5.3341  -16.4473   24.0906 H   0  0  0  0  0  0  0  0  0  0  0  0
    5.8089  -15.2436   25.5202 H   0  0  0  0  0  0  0  0  0  0  0  0
    4.2288  -14.9057   26.4066 H   0  0  0  0  0  0  0  0  0  0  0  0
    5.2579  -12.4137   25.5564 H   0  0  0  0  0  0  0  0  0  0  0  0
    6.7629  -10.8836   24.0844 H   0  0  0  0  0  0  0  0  0  0  0  0
    9.7199   -9.1785   26.4657 H   0  0  0  0  0  0  0  0  0  0  0  0
    9.1186  -11.4492   27.4583 H   0  0  0  0  0  0  0  0  0  0  0  0
    3.2681  -17.9612   25.7060 H   0  0  0  0  0  0  0  0  0  0  0  0
    3.2936  -18.8002   24.1527 H   0  0  0  0  0  0  0  0  0  0  0  0
    0.6800  -19.1523   24.2030 H   0  0  0  0  0  0  0  0  0  0  0  0
   -1.2448  -20.0302   27.2744 H   0  0  0  0  0  0  0  0  0  0  0  0
   -3.5107  -19.6169   26.2032 H   0  0  0  0  0  0  0  0  0  0  0  0
   -2.1804  -16.6329   28.5149 H   0  0  0  0  0  0  0  0  0  0  0  0
   -3.6745  -17.2343   30.4778 H   0  0  0  0  0  0  0  0  0  0  0  0
   -4.3047  -19.6944   30.5039 H   0  0  0  0  0  0  0  0  0  0  0  0
  1  2  1  0
  2  3  1  0
  3  4  1  0
  4  5  1  0
  5  6  2  0
  5  7  1  0
  7  8  2  0
  8  9  1  0
  9 10  2  0
 10 11  1  0
  2 12  1  0
 12 13  1  0
 13 14  1  0
 14 15  2  0
 14 16  1  0
 16 17  1  0
 16 18  1  0
 18 19  2  0
 19 20  1  0
 20 21  1  0
 21 22  2  0
 11  7  1  0
 22 18  1  0
  1 23  1  0
  1 24  1  0
  1 25  1  0
  2 26  1  0
  3 27  1  0
  3 28  1  0
  4 29  1  0
  8 30  1  0
 10 31  1  0
 11 32  1  0
 12 33  1  0
 12 34  1  0
 13 35  1  0
 16 36  1  0
 17 37  1  0
 19 38  1  0
 20 39  1  0
 21 40  1  0
M  END
>  <Energy>  (436) 
547.07171901082449

>  <compound_id>  (436) 
14296

>  <target_id>  (436) 
1

>  <reference_id>  (436) 
63

>  <inspiration_ids>  (436) 
[115, 63]

>  <energy_score>  (436) 
496.49727137939703

>  <distance_score>  (436) 
12.654375160501116

>  <path>  (436) 
/opt/xchem-fragalysis-2/maxwin/BulkDock/SCRATCH/511013/C14296-P63/C14296-P63.minimised.mol

>  <scratch_subdir>  (436) 
/opt/xchem-fragalysis-2/maxwin/BulkDock/SCRATCH/511013/C14296-P63

>  <fragmenstein_runtime>  (436) 
28.076732397079468

>  <fragmenstein_outcome>  (436) 
too moved

>  <fragmenstein_mode>  (436) 
expansion

>  <fragmenstein_error>  (436) 


$$$$
C14297-P115
     RDKit          3D

 45 46  0  0  0  0  0  0  0  0999 V2000
   -4.7609  -16.6234   19.2317 C   0  0  0  0  0  0  0  0  0  0  0  0
   -5.2100  -15.7703   20.3090 N   0  0  0  0  0  0  0  0  0  0  0  0
   -6.1355  -16.1126   21.2650 C   0  0  0  0  0  0  0  0  0  0  0  0
   -6.2989  -14.9781   22.0176 C   0  0  0  0  0  0  0  0  0  0  0  0
   -5.4812  -13.9649   21.5588 N   0  0  0  0  0  0  0  0  0  0  0  0
   -4.8228  -14.4492   20.5024 C   0  0  0  0  0  0  0  0  0  0  0  0
   -3.8011  -13.6859   19.6912 C   0  0  0  0  0  0  0  0  0  0  0  0
   -3.2214  -14.2576   18.8157 O   0  0  0  0  0  0  0  0  0  0  0  0
   -3.6704  -12.3379   20.1773 N   0  0  0  0  0  0  0  0  0  0  0  0
   -2.7224  -11.2713   19.8221 C   0  0  0  0  0  0  0  0  0  0  0  0
   -2.3549  -10.9416   18.3332 C   0  0  0  0  0  0  0  0  0  0  0  0
   -1.1357  -10.0600   18.2677 N   0  0  0  0  0  0  0  0  0  0  0  0
    0.0040  -10.0848   17.3806 C   0  0  0  0  0  0  0  0  0  0  0  0
    0.3063  -10.8613   16.5229 O   0  0  0  0  0  0  0  0  0  0  0  0
    0.9465   -8.9551   17.5598 C   0  0  0  0  0  0  0  0  0  0  0  0
    0.9991   -7.7990   18.3223 C   0  0  0  0  0  0  0  0  0  0  0  0
    2.1328   -7.0479   18.0695 N   0  0  0  0  0  0  0  0  0  0  0  0
    2.8013   -7.7303   17.1724 C   0  0  0  0  0  0  0  0  0  0  0  0
    2.1393   -8.8771   16.8410 N   0  0  0  0  0  0  0  0  0  0  0  0
   -3.5218  -10.3178   17.4808 C   0  0  0  0  0  0  0  0  0  0  0  0
   -3.9825   -8.9606   18.0476 C   0  0  0  0  0  0  0  0  0  0  0  0
   -4.7438  -11.2554   17.4259 C   0  0  0  0  0  0  0  0  0  0  0  0
   -3.0591  -10.0982   16.0219 C   0  0  0  0  0  0  0  0  0  0  0  0
   -5.0011  -16.1412   18.2809 H   0  0  0  0  0  0  0  0  0  0  0  0
   -3.6846  -16.7811   19.3346 H   0  0  0  0  0  0  0  0  0  0  0  0
   -5.2807  -17.5834   19.2898 H   0  0  0  0  0  0  0  0  0  0  0  0
   -6.5948  -17.0915   21.3038 H   0  0  0  0  0  0  0  0  0  0  0  0
   -6.9638  -14.8244   22.8576 H   0  0  0  0  0  0  0  0  0  0  0  0
   -4.3869  -12.1690   20.8822 H   0  0  0  0  0  0  0  0  0  0  0  0
   -1.7929  -11.5540   20.3235 H   0  0  0  0  0  0  0  0  0  0  0  0
   -3.0678  -10.3669   20.3337 H   0  0  0  0  0  0  0  0  0  0  0  0
   -2.0521  -11.8794   17.8498 H   0  0  0  0  0  0  0  0  0  0  0  0
   -1.1113   -9.2089   18.8113 H   0  0  0  0  0  0  0  0  0  0  0  0
    0.2738   -7.4454   19.0425 H   0  0  0  0  0  0  0  0  0  0  0  0
    3.7497   -7.4548   16.7309 H   0  0  0  0  0  0  0  0  0  0  0  0
    2.4357   -9.5757   16.1719 H   0  0  0  0  0  0  0  0  0  0  0  0
   -4.7654   -8.5199   17.4191 H   0  0  0  0  0  0  0  0  0  0  0  0
   -3.1594   -8.2398   18.0928 H   0  0  0  0  0  0  0  0  0  0  0  0
   -4.3988   -9.0618   19.0548 H   0  0  0  0  0  0  0  0  0  0  0  0
   -5.2449  -11.3331   18.3948 H   0  0  0  0  0  0  0  0  0  0  0  0
   -4.4574  -12.2600   17.0973 H   0  0  0  0  0  0  0  0  0  0  0  0
   -5.4956  -10.8831   16.7196 H   0  0  0  0  0  0  0  0  0  0  0  0
   -2.6639  -11.0244   15.5900 H   0  0  0  0  0  0  0  0  0  0  0  0
   -2.2841   -9.3285   15.9498 H   0  0  0  0  0  0  0  0  0  0  0  0
   -3.8901   -9.7667   15.3880 H   0  0  0  0  0  0  0  0  0  0  0  0
  1  2  1  0
  2  3  1  0
  3  4  2  0
  4  5  1  0
  5  6  2  0
  6  7  1  0
  7  8  2  0
  7  9  1  0
  9 10  1  0
 10 11  1  0
 11 12  1  0
 12 13  1  0
 13 14  2  0
 13 15  1  0
 15 16  2  0
 16 17  1  0
 17 18  2  0
 18 19  1  0
 11 20  1  0
 20 21  1  0
 20 22  1  0
 20 23  1  0
  6  2  1  0
 19 15  1  0
  1 24  1  0
  1 25  1  0
  1 26  1  0
  3 27  1  0
  4 28  1  0
  9 29  1  0
 10 30  1  0
 10 31  1  0
 11 32  1  0
 12 33  1  0
 16 34  1  0
 18 35  1  0
 19 36  1  0
 21 37  1  0
 21 38  1  0
 21 39  1  0
 22 40  1  0
 22 41  1  0
 22 42  1  0
 23 43  1  0
 23 44  1  0
 23 45  1  0
M  END
>  <Energy>  (437) 
2.4681744810612716

>  <compound_id>  (437) 
14297

>  <target_id>  (437) 
1

>  <reference_id>  (437) 
115

>  <inspiration_ids>  (437) 
[115, 63]

>  <energy_score>  (437) 
-34.006474720749566

>  <distance_score>  (437) 
14.052248868778486

>  <path>  (437) 
/opt/xchem-fragalysis-2/maxwin/BulkDock/SCRATCH/511013/C14297-P115/C14297-P115.minimised.mol

>  <scratch_subdir>  (437) 
/opt/xchem-fragalysis-2/maxwin/BulkDock/SCRATCH/511013/C14297-P115

>  <fragmenstein_runtime>  (437) 
34.134361743927

>  <fragmenstein_outcome>  (437) 
too moved

>  <fragmenstein_mode>  (437) 
expansion

>  <fragmenstein_error>  (437) 


$$$$
C14297-P63
     RDKit          3D

 45 46  0  0  0  0  0  0  0  0999 V2000
   -2.1017  -23.6173   27.4849 C   0  0  0  0  0  0  0  0  0  0  0  0
   -1.0889  -22.2345   28.2019 N   0  0  0  0  0  0  0  0  0  0  0  0
   -1.2888  -22.3334   29.5515 C   0  0  0  0  0  0  0  0  0  0  0  0
   -1.5401  -21.0836   29.8472 C   0  0  0  0  0  0  0  0  0  0  0  0
   -0.7874  -20.3612   28.9811 N   0  0  0  0  0  0  0  0  0  0  0  0
   -1.1377  -20.4531   27.5974 C   0  0  0  0  0  0  0  0  0  0  0  0
    0.4021  -20.3097   26.7345 C   0  0  0  0  0  0  0  0  0  0  0  0
    1.3058  -21.6053   27.2474 O   0  0  0  0  0  0  0  0  0  0  0  0
    0.9465  -18.6279   25.4983 N   0  0  0  0  0  0  0  0  0  0  0  0
    2.9438  -17.6983   24.5495 C   0  0  0  0  0  0  0  0  0  0  0  0
    4.3242  -15.8552   23.4798 C   0  0  0  0  0  0  0  0  0  0  0  0
    5.2024  -14.5372   21.6045 N   0  0  0  0  0  0  0  0  0  0  0  0
    6.3957  -12.9247   21.3493 C   0  0  0  0  0  0  0  0  0  0  0  0
    6.9746  -12.0664   22.2269 O   0  0  0  0  0  0  0  0  0  0  0  0
    6.6255  -12.5069   19.9544 C   0  0  0  0  0  0  0  0  0  0  0  0
    5.8165  -12.4365   18.8409 C   0  0  0  0  0  0  0  0  0  0  0  0
    6.3997  -11.6844   17.8382 N   0  0  0  0  0  0  0  0  0  0  0  0
    7.5539  -11.2883   18.3167 C   0  0  0  0  0  0  0  0  0  0  0  0
    7.7174  -11.7213   19.5975 N   0  0  0  0  0  0  0  0  0  0  0  0
    4.0020  -17.1345   23.0327 C   0  0  0  0  0  0  0  0  0  0  0  0
    5.3088  -17.9762   21.6249 C   0  0  0  0  0  0  0  0  0  0  0  0
    3.4277  -19.0040   23.0647 C   0  0  0  0  0  0  0  0  0  0  0  0
    3.3512  -15.2021   23.2584 C   0  0  0  0  0  0  0  0  0  0  0  0
   -2.0817  -24.7368   27.4748 H   0  0  0  0  0  0  0  0  0  0  0  0
   -1.6839  -23.6937   26.4670 H   0  0  0  0  0  0  0  0  0  0  0  0
   -3.2434  -23.6733   27.6593 H   0  0  0  0  0  0  0  0  0  0  0  0
   -1.6008  -23.2532   30.0051 H   0  0  0  0  0  0  0  0  0  0  0  0
   -2.0145  -20.8185   30.7895 H   0  0  0  0  0  0  0  0  0  0  0  0
    0.1198  -18.0741   25.3146 H   0  0  0  0  0  0  0  0  0  0  0  0
    2.1826  -17.1708   24.3714 H   0  0  0  0  0  0  0  0  0  0  0  0
    3.3698  -17.6829   25.5607 H   0  0  0  0  0  0  0  0  0  0  0  0
    5.1949  -15.8393   24.1715 H   0  0  0  0  0  0  0  0  0  0  0  0
    5.0886  -14.8999   20.7902 H   0  0  0  0  0  0  0  0  0  0  0  0
    4.8258  -12.8564   18.7153 H   0  0  0  0  0  0  0  0  0  0  0  0
    8.2926  -10.6963   17.7932 H   0  0  0  0  0  0  0  0  0  0  0  0
    8.4682  -11.4630   20.2221 H   0  0  0  0  0  0  0  0  0  0  0  0
    6.1968  -18.1402   22.1960 H   0  0  0  0  0  0  0  0  0  0  0  0
    4.7689  -18.7927   21.2159 H   0  0  0  0  0  0  0  0  0  0  0  0
    5.6723  -17.5384   20.6606 H   0  0  0  0  0  0  0  0  0  0  0  0
    3.3885  -19.5476   24.0268 H   0  0  0  0  0  0  0  0  0  0  0  0
    2.8786  -19.3682   22.1646 H   0  0  0  0  0  0  0  0  0  0  0  0
    4.2862  -19.4186   22.7274 H   0  0  0  0  0  0  0  0  0  0  0  0
    2.3024  -15.0273   23.4580 H   0  0  0  0  0  0  0  0  0  0  0  0
    3.6740  -14.3811   24.1062 H   0  0  0  0  0  0  0  0  0  0  0  0
    3.2582  -14.5584   22.3444 H   0  0  0  0  0  0  0  0  0  0  0  0
  1  2  1  0
  2  3  1  0
  3  4  2  0
  4  5  1  0
  5  6  2  0
  6  7  1  0
  7  8  2  0
  7  9  1  0
  9 10  1  0
 10 11  1  0
 11 12  1  0
 12 13  1  0
 13 14  2  0
 13 15  1  0
 15 16  2  0
 16 17  1  0
 17 18  2  0
 18 19  1  0
 11 20  1  0
 20 21  1  0
 20 22  1  0
 20 23  1  0
  6  2  1  0
 19 15  1  0
  1 24  1  0
  1 25  1  0
  1 26  1  0
  3 27  1  0
  4 28  1  0
  9 29  1  0
 10 30  1  0
 10 31  1  0
 11 32  1  0
 12 33  1  0
 16 34  1  0
 18 35  1  0
 19 36  1  0
 21 37  1  0
 21 38  1  0
 21 39  1  0
 22 40  1  0
 22 41  1  0
 22 42  1  0
 23 43  1  0
 23 44  1  0
 23 45  1  0
M  END
>  <Energy>  (438) 
2941.2349049903451

>  <compound_id>  (438) 
14297

>  <target_id>  (438) 
1

>  <reference_id>  (438) 
63

>  <inspiration_ids>  (438) 
[115, 63]

>  <energy_score>  (438) 
2904.7602557884966

>  <distance_score>  (438) 
11.467694709241437

>  <path>  (438) 
/opt/xchem-fragalysis-2/maxwin/BulkDock/SCRATCH/511013/C14297-P63/C14297-P63.minimised.mol

>  <scratch_subdir>  (438) 
/opt/xchem-fragalysis-2/maxwin/BulkDock/SCRATCH/511013/C14297-P63

>  <fragmenstein_runtime>  (438) 
24.546623945236206

>  <fragmenstein_outcome>  (438) 
too moved

>  <fragmenstein_mode>  (438) 
expansion

>  <fragmenstein_error>  (438) 


$$$$
C14298-P115
     RDKit          3D

 45 46  0  0  0  0  0  0  0  0999 V2000
   -2.9233  -20.7375   20.6966 C   0  0  0  0  0  0  0  0  0  0  0  0
   -2.1884  -20.8035   22.4695 C   0  0  0  0  0  0  0  0  0  0  0  0
   -2.0758  -20.0436   23.4600 N   0  0  0  0  0  0  0  0  0  0  0  0
   -1.2863  -18.6627   21.9352 C   0  0  0  0  0  0  0  0  0  0  0  0
    0.0089  -17.2918   20.7691 C   0  0  0  0  0  0  0  0  0  0  0  0
    1.2483  -15.6473   20.5385 N   0  0  0  0  0  0  0  0  0  0  0  0
    2.4675  -15.0915   19.0948 C   0  0  0  0  0  0  0  0  0  0  0  0
    2.5375  -15.7149   18.0532 O   0  0  0  0  0  0  0  0  0  0  0  0
    3.8584  -13.6522   19.0865 C   0  0  0  0  0  0  0  0  0  0  0  0
    5.3233  -13.9167   18.3371 C   0  0  0  0  0  0  0  0  0  0  0  0
    6.2183  -12.6636   18.1334 C   0  0  0  0  0  0  0  0  0  0  0  0
    5.9907  -11.4635   17.4673 C   0  0  0  0  0  0  0  0  0  0  0  0
    7.0131  -10.5631   17.6435 N   0  0  0  0  0  0  0  0  0  0  0  0
    7.9560  -11.2546   18.2300 C   0  0  0  0  0  0  0  0  0  0  0  0
    7.5459  -12.5342   18.5010 N   0  0  0  0  0  0  0  0  0  0  0  0
    8.4311  -13.5583   18.9937 C   0  0  0  0  0  0  0  0  0  0  0  0
   -3.8104  -20.0879   24.5235 C   0  0  0  0  0  0  0  0  0  0  0  0
   -4.5193  -19.2513   24.1452 O   0  0  0  0  0  0  0  0  0  0  0  0
   -4.6916  -20.9733   25.8406 C   0  0  0  0  0  0  0  0  0  0  0  0
   -5.6111  -20.0003   26.7582 C   0  0  0  0  0  0  0  0  0  0  0  0
   -6.5318  -20.7262   27.5500 N   0  0  0  0  0  0  0  0  0  0  0  0
   -6.3999  -22.0836   27.4056 C   0  0  0  0  0  0  0  0  0  0  0  0
   -5.4226  -22.3433   26.5302 N   0  0  0  0  0  0  0  0  0  0  0  0
   -2.4180  -21.5517   20.2031 H   0  0  0  0  0  0  0  0  0  0  0  0
   -2.7311  -19.8324   20.0841 H   0  0  0  0  0  0  0  0  0  0  0  0
   -4.0167  -20.7990   20.6348 H   0  0  0  0  0  0  0  0  0  0  0  0
   -3.1338  -20.9777   22.8010 H   0  0  0  0  0  0  0  0  0  0  0  0
   -1.5569  -21.6349   22.8443 H   0  0  0  0  0  0  0  0  0  0  0  0
   -1.9134  -18.1861   21.1295 H   0  0  0  0  0  0  0  0  0  0  0  0
   -0.3401  -18.4848   22.3978 H   0  0  0  0  0  0  0  0  0  0  0  0
    0.1750  -17.6476   19.7739 H   0  0  0  0  0  0  0  0  0  0  0  0
   -0.8412  -16.6467   20.5140 H   0  0  0  0  0  0  0  0  0  0  0  0
    1.2673  -14.9684   21.2582 H   0  0  0  0  0  0  0  0  0  0  0  0
    3.6706  -12.7616   18.4867 H   0  0  0  0  0  0  0  0  0  0  0  0
    4.0800  -13.1934   20.0811 H   0  0  0  0  0  0  0  0  0  0  0  0
    5.8841  -14.6818   18.8730 H   0  0  0  0  0  0  0  0  0  0  0  0
    5.1411  -14.3598   17.3528 H   0  0  0  0  0  0  0  0  0  0  0  0
    5.0974  -11.1770   16.9277 H   0  0  0  0  0  0  0  0  0  0  0  0
    8.9508  -10.9015   18.4602 H   0  0  0  0  0  0  0  0  0  0  0  0
    8.0920  -14.5400   18.6580 H   0  0  0  0  0  0  0  0  0  0  0  0
    8.4464  -13.4989   20.0835 H   0  0  0  0  0  0  0  0  0  0  0  0
    9.4361  -13.3804   18.6000 H   0  0  0  0  0  0  0  0  0  0  0  0
   -5.7627  -18.9390   26.8042 H   0  0  0  0  0  0  0  0  0  0  0  0
   -7.2181  -22.7347   27.6185 H   0  0  0  0  0  0  0  0  0  0  0  0
   -5.6838  -23.1255   25.9459 H   0  0  0  0  0  0  0  0  0  0  0  0
  1  2  1  0
  2  3  1  0
  3  4  1  0
  4  5  1  0
  5  6  1  0
  6  7  1  0
  7  8  2  0
  7  9  1  0
  9 10  1  0
 10 11  1  0
 11 12  2  0
 12 13  1  0
 13 14  2  0
 14 15  1  0
 15 16  1  0
  3 17  1  0
 17 18  2  0
 17 19  1  0
 19 20  2  0
 20 21  1  0
 21 22  2  0
 22 23  1  0
 15 11  1  0
 23 19  1  0
  1 24  1  0
  1 25  1  0
  1 26  1  0
  2 27  1  0
  2 28  1  0
  4 29  1  0
  4 30  1  0
  5 31  1  0
  5 32  1  0
  6 33  1  0
  9 34  1  0
  9 35  1  0
 10 36  1  0
 10 37  1  0
 12 38  1  0
 14 39  1  0
 16 40  1  0
 16 41  1  0
 16 42  1  0
 20 43  1  0
 22 44  1  0
 23 45  1  0
M  END
>  <Energy>  (439) 
1199.6488067933594

>  <compound_id>  (439) 
14298

>  <target_id>  (439) 
1

>  <reference_id>  (439) 
115

>  <inspiration_ids>  (439) 
[115, 63]

>  <energy_score>  (439) 
1192.5513134793146

>  <distance_score>  (439) 
10.469205838551664

>  <path>  (439) 
/opt/xchem-fragalysis-2/maxwin/BulkDock/SCRATCH/511013/C14298-P115/C14298-P115.minimised.mol

>  <scratch_subdir>  (439) 
/opt/xchem-fragalysis-2/maxwin/BulkDock/SCRATCH/511013/C14298-P115

>  <fragmenstein_runtime>  (439) 
26.270750522613525

>  <fragmenstein_outcome>  (439) 
too moved

>  <fragmenstein_mode>  (439) 
expansion

>  <fragmenstein_error>  (439) 


$$$$
C14298-P63
     RDKit          3D

 45 46  0  0  0  0  0  0  0  0999 V2000
    5.3736  -22.0800   16.1670 C   0  0  0  0  0  0  0  0  0  0  0  0
    4.3893  -22.0026   14.9970 C   0  0  0  0  0  0  0  0  0  0  0  0
    3.1223  -21.2035   15.2834 N   0  0  0  0  0  0  0  0  0  0  0  0
    3.9770  -20.0355   14.6037 C   0  0  0  0  0  0  0  0  0  0  0  0
    3.2514  -18.6385   14.7259 C   0  0  0  0  0  0  0  0  0  0  0  0
    3.9772  -17.3459   14.4549 N   0  0  0  0  0  0  0  0  0  0  0  0
    5.3348  -16.9150   14.7988 C   0  0  0  0  0  0  0  0  0  0  0  0
    6.2387  -17.5156   15.3140 O   0  0  0  0  0  0  0  0  0  0  0  0
    5.5203  -15.3551   14.4875 C   0  0  0  0  0  0  0  0  0  0  0  0
    6.7621  -14.6601   15.1593 C   0  0  0  0  0  0  0  0  0  0  0  0
    6.8580  -13.1370   15.0924 C   0  0  0  0  0  0  0  0  0  0  0  0
    6.3165  -12.1594   15.9155 C   0  0  0  0  0  0  0  0  0  0  0  0
    6.7378  -10.8987   15.5724 N   0  0  0  0  0  0  0  0  0  0  0  0
    7.5680  -11.0804   14.5737 C   0  0  0  0  0  0  0  0  0  0  0  0
    7.6732  -12.4066   14.2456 N   0  0  0  0  0  0  0  0  0  0  0  0
    8.5134  -12.9338   13.1988 C   0  0  0  0  0  0  0  0  0  0  0  0
    1.9638  -21.9253   14.8049 C   0  0  0  0  0  0  0  0  0  0  0  0
    1.4094  -21.8891   13.7389 O   0  0  0  0  0  0  0  0  0  0  0  0
    1.3657  -22.8411   15.8268 C   0  0  0  0  0  0  0  0  0  0  0  0
    0.2696  -23.6984   15.6865 C   0  0  0  0  0  0  0  0  0  0  0  0
   -0.1085  -24.3063   16.8616 N   0  0  0  0  0  0  0  0  0  0  0  0
    0.8195  -23.9492   17.7089 C   0  0  0  0  0  0  0  0  0  0  0  0
    1.6973  -23.0477   17.1474 N   0  0  0  0  0  0  0  0  0  0  0  0
    6.0571  -22.9232   16.0195 H   0  0  0  0  0  0  0  0  0  0  0  0
    4.8467  -22.2364   17.1124 H   0  0  0  0  0  0  0  0  0  0  0  0
    5.9922  -21.1857   16.2594 H   0  0  0  0  0  0  0  0  0  0  0  0
    4.0316  -23.0424   14.9145 H   0  0  0  0  0  0  0  0  0  0  0  0
    4.8750  -21.8954   14.0125 H   0  0  0  0  0  0  0  0  0  0  0  0
    4.0445  -20.2100   13.5190 H   0  0  0  0  0  0  0  0  0  0  0  0
    4.9577  -19.8848   15.0601 H   0  0  0  0  0  0  0  0  0  0  0  0
    2.3948  -18.6397   14.0414 H   0  0  0  0  0  0  0  0  0  0  0  0
    2.8286  -18.5430   15.7292 H   0  0  0  0  0  0  0  0  0  0  0  0
    3.4539  -16.5484   14.1056 H   0  0  0  0  0  0  0  0  0  0  0  0
    4.6114  -14.8416   14.8102 H   0  0  0  0  0  0  0  0  0  0  0  0
    5.5953  -15.2484   13.3991 H   0  0  0  0  0  0  0  0  0  0  0  0
    6.7652  -14.9385   16.2219 H   0  0  0  0  0  0  0  0  0  0  0  0
    7.6730  -15.1038   14.7395 H   0  0  0  0  0  0  0  0  0  0  0  0
    5.6556  -12.3090   16.7603 H   0  0  0  0  0  0  0  0  0  0  0  0
    8.1109  -10.2986   14.0614 H   0  0  0  0  0  0  0  0  0  0  0  0
    9.3412  -13.4757   13.6628 H   0  0  0  0  0  0  0  0  0  0  0  0
    7.9159  -13.6023   12.5739 H   0  0  0  0  0  0  0  0  0  0  0  0
    8.8999  -12.1119   12.5905 H   0  0  0  0  0  0  0  0  0  0  0  0
   -0.2885  -23.8677   14.7725 H   0  0  0  0  0  0  0  0  0  0  0  0
    0.9087  -24.2726   18.7378 H   0  0  0  0  0  0  0  0  0  0  0  0
    2.4648  -22.6185   17.6536 H   0  0  0  0  0  0  0  0  0  0  0  0
  1  2  1  0
  2  3  1  0
  3  4  1  0
  4  5  1  0
  5  6  1  0
  6  7  1  0
  7  8  2  0
  7  9  1  0
  9 10  1  0
 10 11  1  0
 11 12  2  0
 12 13  1  0
 13 14  2  0
 14 15  1  0
 15 16  1  0
  3 17  1  0
 17 18  2  0
 17 19  1  0
 19 20  2  0
 20 21  1  0
 21 22  2  0
 22 23  1  0
 15 11  1  0
 23 19  1  0
  1 24  1  0
  1 25  1  0
  1 26  1  0
  2 27  1  0
  2 28  1  0
  4 29  1  0
  4 30  1  0
  5 31  1  0
  5 32  1  0
  6 33  1  0
  9 34  1  0
  9 35  1  0
 10 36  1  0
 10 37  1  0
 12 38  1  0
 14 39  1  0
 16 40  1  0
 16 41  1  0
 16 42  1  0
 20 43  1  0
 22 44  1  0
 23 45  1  0
M  END
>  <Energy>  (440) 
57.97750158742604

>  <compound_id>  (440) 
14298

>  <target_id>  (440) 
1

>  <reference_id>  (440) 
63

>  <inspiration_ids>  (440) 
[115, 63]

>  <energy_score>  (440) 
50.88000827340045

>  <distance_score>  (440) 
15.41574172538396

>  <path>  (440) 
/opt/xchem-fragalysis-2/maxwin/BulkDock/SCRATCH/511013/C14298-P63/C14298-P63.minimised.mol

>  <scratch_subdir>  (440) 
/opt/xchem-fragalysis-2/maxwin/BulkDock/SCRATCH/511013/C14298-P63

>  <fragmenstein_runtime>  (440) 
38.95148801803589

>  <fragmenstein_outcome>  (440) 
too moved

>  <fragmenstein_mode>  (440) 
expansion

>  <fragmenstein_error>  (440) 


$$$$
C14299-P115
     RDKit          3D

 34 35  0  0  0  0  0  0  0  0999 V2000
    8.5030  -12.0628   16.6653 O   0  0  0  0  0  0  0  0  0  0  0  0
    8.7214  -11.0948   17.3302 C   0  0  0  0  0  0  0  0  0  0  0  0
    7.8446  -10.6203   18.8149 N   0  0  0  0  0  0  0  0  0  0  0  0
    6.2946  -11.3946   19.6677 C   0  0  0  0  0  0  0  0  0  0  0  0
    5.0918  -12.6361   20.7226 C   0  0  0  0  0  0  0  0  0  0  0  0
    4.5683  -13.2076   19.3106 C   0  0  0  0  0  0  0  0  0  0  0  0
    3.5525  -14.0695   18.7019 O   0  0  0  0  0  0  0  0  0  0  0  0
    3.4485  -13.0402   21.6328 N   0  0  0  0  0  0  0  0  0  0  0  0
    3.0075  -13.1380   23.4388 C   0  0  0  0  0  0  0  0  0  0  0  0
    3.8158  -12.8391   24.1664 O   0  0  0  0  0  0  0  0  0  0  0  0
    1.5099  -13.4663   24.3545 C   0  0  0  0  0  0  0  0  0  0  0  0
    1.1789  -13.3344   26.0102 C   0  0  0  0  0  0  0  0  0  0  0  0
   -0.2835  -13.0966   26.5719 N   0  0  0  0  0  0  0  0  0  0  0  0
   -1.1529  -13.5204   25.6315 C   0  0  0  0  0  0  0  0  0  0  0  0
   -0.1188  -14.2399   24.3265 N   0  0  0  0  0  0  0  0  0  0  0  0
    9.8384  -10.4544   16.8357 C   0  0  0  0  0  0  0  0  0  0  0  0
    9.8202  -10.1690   15.4713 C   0  0  0  0  0  0  0  0  0  0  0  0
   10.8450  -10.7897   14.8248 N   0  0  0  0  0  0  0  0  0  0  0  0
   11.6259  -11.2639   15.7530 C   0  0  0  0  0  0  0  0  0  0  0  0
   11.0657  -11.0962   16.9828 N   0  0  0  0  0  0  0  0  0  0  0  0
    8.1690   -9.7338   19.1215 H   0  0  0  0  0  0  0  0  0  0  0  0
    5.9141  -11.6110   18.7149 H   0  0  0  0  0  0  0  0  0  0  0  0
    6.9981  -12.0938   20.0815 H   0  0  0  0  0  0  0  0  0  0  0  0
    4.8835  -11.6739   21.1709 H   0  0  0  0  0  0  0  0  0  0  0  0
    4.3463  -12.4092   18.6720 H   0  0  0  0  0  0  0  0  0  0  0  0
    5.4707  -13.7493   19.1124 H   0  0  0  0  0  0  0  0  0  0  0  0
    3.4600  -13.8797   17.7523 H   0  0  0  0  0  0  0  0  0  0  0  0
    2.7047  -13.4039   21.1109 H   0  0  0  0  0  0  0  0  0  0  0  0
    1.8755  -13.4803   26.8205 H   0  0  0  0  0  0  0  0  0  0  0  0
   -2.2046  -13.7637   25.6123 H   0  0  0  0  0  0  0  0  0  0  0  0
   -0.4930  -14.1375   23.4201 H   0  0  0  0  0  0  0  0  0  0  0  0
    8.9690   -9.8222   14.8999 H   0  0  0  0  0  0  0  0  0  0  0  0
   12.5633  -11.7826   15.5943 H   0  0  0  0  0  0  0  0  0  0  0  0
   11.3269  -11.6678   17.7698 H   0  0  0  0  0  0  0  0  0  0  0  0
  1  2  2  0
  2  3  1  0
  3  4  1  0
  4  5  1  0
  5  6  1  0
  6  7  1  0
  5  8  1  0
  8  9  1  0
  9 10  2  0
  9 11  1  0
 11 12  2  0
 12 13  1  0
 13 14  2  0
 14 15  1  0
  2 16  1  0
 16 17  2  0
 17 18  1  0
 18 19  2  0
 19 20  1  0
 15 11  1  0
 20 16  1  0
  3 21  1  0
  4 22  1  0
  4 23  1  0
  5 24  1  0
  6 25  1  0
  6 26  1  0
  7 27  1  0
  8 28  1  0
 12 29  1  0
 14 30  1  0
 15 31  1  0
 17 32  1  0
 19 33  1  0
 20 34  1  0
M  END
>  <Energy>  (441) 
701.21044543691539

>  <compound_id>  (441) 
14299

>  <target_id>  (441) 
1

>  <reference_id>  (441) 
115

>  <inspiration_ids>  (441) 
[115, 63]

>  <energy_score>  (441) 
705.2621857441522

>  <distance_score>  (441) 
13.677235107756788

>  <path>  (441) 
/opt/xchem-fragalysis-2/maxwin/BulkDock/SCRATCH/511013/C14299-P115/C14299-P115.minimised.mol

>  <scratch_subdir>  (441) 
/opt/xchem-fragalysis-2/maxwin/BulkDock/SCRATCH/511013/C14299-P115

>  <fragmenstein_runtime>  (441) 
18.530635118484497

>  <fragmenstein_outcome>  (441) 
too moved

>  <fragmenstein_mode>  (441) 
expansion

>  <fragmenstein_error>  (441) 


$$$$
C14299-P63
     RDKit          3D

 34 35  0  0  0  0  0  0  0  0999 V2000
    2.5308  -14.6936   21.2523 O   0  0  0  0  0  0  0  0  0  0  0  0
    2.2009  -15.0634   20.1831 C   0  0  0  0  0  0  0  0  0  0  0  0
    0.9300  -16.1893   19.8230 N   0  0  0  0  0  0  0  0  0  0  0  0
   -0.0613  -16.8943   20.7266 C   0  0  0  0  0  0  0  0  0  0  0  0
   -0.2592  -18.5634   20.6289 C   0  0  0  0  0  0  0  0  0  0  0  0
   -0.6172  -18.9846   19.1875 C   0  0  0  0  0  0  0  0  0  0  0  0
   -0.7312  -20.3978   19.0335 O   0  0  0  0  0  0  0  0  0  0  0  0
   -1.1082  -19.2641   21.6359 N   0  0  0  0  0  0  0  0  0  0  0  0
   -2.4048  -19.8783   21.5169 C   0  0  0  0  0  0  0  0  0  0  0  0
   -3.1685  -19.9143   20.5969 O   0  0  0  0  0  0  0  0  0  0  0  0
   -2.8635  -20.5430   22.7617 C   0  0  0  0  0  0  0  0  0  0  0  0
   -2.3099  -20.8167   24.0047 C   0  0  0  0  0  0  0  0  0  0  0  0
   -3.2081  -21.4188   24.8615 N   0  0  0  0  0  0  0  0  0  0  0  0
   -4.2969  -21.5866   24.1521 C   0  0  0  0  0  0  0  0  0  0  0  0
   -4.1378  -21.0911   22.8888 N   0  0  0  0  0  0  0  0  0  0  0  0
    3.0889  -14.2733   19.0154 C   0  0  0  0  0  0  0  0  0  0  0  0
    4.2367  -14.5038   18.3389 C   0  0  0  0  0  0  0  0  0  0  0  0
    5.4637  -13.8207   19.0539 N   0  0  0  0  0  0  0  0  0  0  0  0
    5.2162  -12.8169   19.7794 C   0  0  0  0  0  0  0  0  0  0  0  0
    3.9656  -13.0905   20.0055 N   0  0  0  0  0  0  0  0  0  0  0  0
    0.9309  -16.3757   18.8950 H   0  0  0  0  0  0  0  0  0  0  0  0
   -1.0176  -16.5716   20.2916 H   0  0  0  0  0  0  0  0  0  0  0  0
   -0.0338  -16.4295   21.6646 H   0  0  0  0  0  0  0  0  0  0  0  0
    0.6761  -19.0680   20.8623 H   0  0  0  0  0  0  0  0  0  0  0  0
   -1.5560  -18.5275   18.8616 H   0  0  0  0  0  0  0  0  0  0  0  0
    0.1799  -18.6750   18.5099 H   0  0  0  0  0  0  0  0  0  0  0  0
   -1.6353  -20.6306   19.3182 H   0  0  0  0  0  0  0  0  0  0  0  0
   -0.7092  -19.5060   22.5340 H   0  0  0  0  0  0  0  0  0  0  0  0
   -1.3031  -20.6108   24.3457 H   0  0  0  0  0  0  0  0  0  0  0  0
   -5.2145  -22.0540   24.4865 H   0  0  0  0  0  0  0  0  0  0  0  0
   -4.8271  -21.1004   22.1484 H   0  0  0  0  0  0  0  0  0  0  0  0
    4.4508  -15.2983   17.6726 H   0  0  0  0  0  0  0  0  0  0  0  0
    5.8725  -12.1266   20.2780 H   0  0  0  0  0  0  0  0  0  0  0  0
    3.5837  -13.1285   20.9380 H   0  0  0  0  0  0  0  0  0  0  0  0
  1  2  2  0
  2  3  1  0
  3  4  1  0
  4  5  1  0
  5  6  1  0
  6  7  1  0
  5  8  1  0
  8  9  1  0
  9 10  2  0
  9 11  1  0
 11 12  2  0
 12 13  1  0
 13 14  2  0
 14 15  1  0
  2 16  1  0
 16 17  2  0
 17 18  1  0
 18 19  2  0
 19 20  1  0
 15 11  1  0
 20 16  1  0
  3 21  1  0
  4 22  1  0
  4 23  1  0
  5 24  1  0
  6 25  1  0
  6 26  1  0
  7 27  1  0
  8 28  1  0
 12 29  1  0
 14 30  1  0
 15 31  1  0
 17 32  1  0
 19 33  1  0
 20 34  1  0
M  END
>  <Energy>  (442) 
148.48321776895435

>  <compound_id>  (442) 
14299

>  <target_id>  (442) 
1

>  <reference_id>  (442) 
63

>  <inspiration_ids>  (442) 
[115, 63]

>  <energy_score>  (442) 
152.53495807621823

>  <distance_score>  (442) 
13.56380849603523

>  <path>  (442) 
/opt/xchem-fragalysis-2/maxwin/BulkDock/SCRATCH/511013/C14299-P63/C14299-P63.minimised.mol

>  <scratch_subdir>  (442) 
/opt/xchem-fragalysis-2/maxwin/BulkDock/SCRATCH/511013/C14299-P63

>  <fragmenstein_runtime>  (442) 
15.92775583267212

>  <fragmenstein_outcome>  (442) 
too moved

>  <fragmenstein_mode>  (442) 
expansion

>  <fragmenstein_error>  (442) 


$$$$
C14300-P115
     RDKit          3D

 49 51  0  0  0  0  0  0  0  0999 V2000
    5.2201  -19.9904   27.1238 O   0  0  0  0  0  0  0  0  0  0  0  0
    4.6775  -20.3075   26.1184 C   0  0  0  0  0  0  0  0  0  0  0  0
    4.8349  -21.8777   25.8919 C   0  0  0  0  0  0  0  0  0  0  0  0
    4.1797  -23.2381   26.1648 N   0  0  0  0  0  0  0  0  0  0  0  0
    4.1337  -24.3050   25.2900 C   0  0  0  0  0  0  0  0  0  0  0  0
    4.0391  -25.4531   26.0330 C   0  0  0  0  0  0  0  0  0  0  0  0
    4.1487  -25.1796   27.3498 N   0  0  0  0  0  0  0  0  0  0  0  0
    4.3747  -23.8856   27.3796 C   0  0  0  0  0  0  0  0  0  0  0  0
    3.9021  -19.5078   25.1773 N   0  0  0  0  0  0  0  0  0  0  0  0
    3.5893  -17.8051   25.1211 C   0  0  0  0  0  0  0  0  0  0  0  0
    4.4154  -16.0108   24.5306 C   0  0  0  0  0  0  0  0  0  0  0  0
    4.1174  -15.1414   23.4894 N   0  0  0  0  0  0  0  0  0  0  0  0
    3.2394  -13.6701   23.4564 C   0  0  0  0  0  0  0  0  0  0  0  0
    2.6069  -13.1243   24.3189 O   0  0  0  0  0  0  0  0  0  0  0  0
    3.3804  -12.5979   21.8600 C   0  0  0  0  0  0  0  0  0  0  0  0
    4.3456  -11.3797   21.3742 C   0  0  0  0  0  0  0  0  0  0  0  0
    5.4007  -11.3288   20.4613 C   0  0  0  0  0  0  0  0  0  0  0  0
    5.8756  -10.0475   20.2852 N   0  0  0  0  0  0  0  0  0  0  0  0
    5.0383   -9.2890   20.9526 C   0  0  0  0  0  0  0  0  0  0  0  0
    4.0795  -10.0366   21.5865 N   0  0  0  0  0  0  0  0  0  0  0  0
    5.3316  -14.8731   25.4520 C   0  0  0  0  0  0  0  0  0  0  0  0
    7.2491  -15.1983   25.9251 C   0  0  0  0  0  0  0  0  0  0  0  0
    7.9498  -13.6308   26.3054 C   0  0  0  0  0  0  0  0  0  0  0  0
    7.0779  -12.5642   25.8318 C   0  0  0  0  0  0  0  0  0  0  0  0
    5.6986  -13.1615   25.9333 C   0  0  0  0  0  0  0  0  0  0  0  0
    4.9542  -21.9040   26.9658 H   0  0  0  0  0  0  0  0  0  0  0  0
    5.8493  -22.1157   25.5431 H   0  0  0  0  0  0  0  0  0  0  0  0
    4.2270  -24.1939   24.2234 H   0  0  0  0  0  0  0  0  0  0  0  0
    3.9920  -26.4678   25.6653 H   0  0  0  0  0  0  0  0  0  0  0  0
    4.7185  -23.3395   28.2487 H   0  0  0  0  0  0  0  0  0  0  0  0
    3.6545  -20.0811   24.3841 H   0  0  0  0  0  0  0  0  0  0  0  0
    3.1355  -17.6467   26.1141 H   0  0  0  0  0  0  0  0  0  0  0  0
    2.8289  -17.9636   24.3964 H   0  0  0  0  0  0  0  0  0  0  0  0
    5.2852  -16.4588   24.0681 H   0  0  0  0  0  0  0  0  0  0  0  0
    4.4485  -15.3472   22.6263 H   0  0  0  0  0  0  0  0  0  0  0  0
    3.3427  -13.2119   20.9639 H   0  0  0  0  0  0  0  0  0  0  0  0
    2.5671  -11.8797   22.0427 H   0  0  0  0  0  0  0  0  0  0  0  0
    5.8451  -12.1668   19.9378 H   0  0  0  0  0  0  0  0  0  0  0  0
    5.0526   -8.2081   20.9982 H   0  0  0  0  0  0  0  0  0  0  0  0
    3.2628   -9.6829   22.0745 H   0  0  0  0  0  0  0  0  0  0  0  0
    4.5176  -14.9105   26.2304 H   0  0  0  0  0  0  0  0  0  0  0  0
    7.4961  -16.0514   26.5241 H   0  0  0  0  0  0  0  0  0  0  0  0
    8.0021  -15.5023   25.1926 H   0  0  0  0  0  0  0  0  0  0  0  0
    8.1873  -13.5231   27.3640 H   0  0  0  0  0  0  0  0  0  0  0  0
    8.8791  -13.4867   25.7389 H   0  0  0  0  0  0  0  0  0  0  0  0
    7.3289  -12.2706   24.8047 H   0  0  0  0  0  0  0  0  0  0  0  0
    7.1740  -11.6562   26.4383 H   0  0  0  0  0  0  0  0  0  0  0  0
    5.2995  -12.4410   25.2900 H   0  0  0  0  0  0  0  0  0  0  0  0
    5.4287  -13.0362   26.9924 H   0  0  0  0  0  0  0  0  0  0  0  0
  1  2  2  0
  2  3  1  0
  3  4  1  0
  4  5  1  0
  5  6  2  0
  6  7  1  0
  7  8  2  0
  2  9  1  0
  9 10  1  0
 10 11  1  0
 11 12  1  0
 12 13  1  0
 13 14  2  0
 13 15  1  0
 15 16  1  0
 16 17  2  0
 17 18  1  0
 18 19  2  0
 19 20  1  0
 11 21  1  0
 21 22  1  0
 22 23  1  0
 23 24  1  0
 24 25  1  0
  8  4  1  0
 20 16  1  0
 25 21  1  0
  3 26  1  0
  3 27  1  0
  5 28  1  0
  6 29  1  0
  8 30  1  0
  9 31  1  0
 10 32  1  0
 10 33  1  0
 11 34  1  0
 12 35  1  0
 15 36  1  0
 15 37  1  0
 17 38  1  0
 19 39  1  0
 20 40  1  0
 21 41  1  0
 22 42  1  0
 22 43  1  0
 23 44  1  0
 23 45  1  0
 24 46  1  0
 24 47  1  0
 25 48  1  0
 25 49  1  0
M  END
>  <Energy>  (443) 
533.83981570637661

>  <compound_id>  (443) 
14300

>  <target_id>  (443) 
1

>  <reference_id>  (443) 
115

>  <inspiration_ids>  (443) 
[115, 63]

>  <energy_score>  (443) 
458.87308876481256

>  <distance_score>  (443) 
14.219938552151227

>  <path>  (443) 
/opt/xchem-fragalysis-2/maxwin/BulkDock/SCRATCH/511013/C14300-P115/C14300-P115.minimised.mol

>  <scratch_subdir>  (443) 
/opt/xchem-fragalysis-2/maxwin/BulkDock/SCRATCH/511013/C14300-P115

>  <fragmenstein_runtime>  (443) 
24.035188674926758

>  <fragmenstein_outcome>  (443) 
too moved

>  <fragmenstein_mode>  (443) 
expansion

>  <fragmenstein_error>  (443) 


$$$$
C14300-P63
     RDKit          3D

 49 51  0  0  0  0  0  0  0  0999 V2000
    3.1190  -17.1524   26.7992 O   0  0  0  0  0  0  0  0  0  0  0  0
    2.2820  -16.6954   27.5019 C   0  0  0  0  0  0  0  0  0  0  0  0
    1.1227  -17.3511   28.0572 C   0  0  0  0  0  0  0  0  0  0  0  0
   -0.2502  -18.1360   27.8734 N   0  0  0  0  0  0  0  0  0  0  0  0
   -1.0091  -19.1369   27.0719 C   0  0  0  0  0  0  0  0  0  0  0  0
   -0.9566  -20.4580   28.0880 C   0  0  0  0  0  0  0  0  0  0  0  0
   -0.4241  -20.3298   29.3487 N   0  0  0  0  0  0  0  0  0  0  0  0
    0.0129  -19.1061   29.4015 C   0  0  0  0  0  0  0  0  0  0  0  0
    2.0629  -15.3819   27.9356 N   0  0  0  0  0  0  0  0  0  0  0  0
    2.8895  -13.7984   27.4777 C   0  0  0  0  0  0  0  0  0  0  0  0
    3.2217  -12.1106   28.6665 C   0  0  0  0  0  0  0  0  0  0  0  0
    4.8887  -11.7713   28.4838 N   0  0  0  0  0  0  0  0  0  0  0  0
    5.5916  -10.5438   28.0172 C   0  0  0  0  0  0  0  0  0  0  0  0
    5.1620   -9.4563   27.7293 O   0  0  0  0  0  0  0  0  0  0  0  0
    7.1247  -10.7380   27.7612 C   0  0  0  0  0  0  0  0  0  0  0  0
    7.6364   -9.8794   26.5581 C   0  0  0  0  0  0  0  0  0  0  0  0
    8.4610  -10.1480   25.4738 C   0  0  0  0  0  0  0  0  0  0  0  0
    8.6016   -9.0549   24.6386 N   0  0  0  0  0  0  0  0  0  0  0  0
    7.8858   -8.1102   25.2031 C   0  0  0  0  0  0  0  0  0  0  0  0
    7.3040   -8.5482   26.3633 N   0  0  0  0  0  0  0  0  0  0  0  0
    2.2486  -10.5686   28.7165 C   0  0  0  0  0  0  0  0  0  0  0  0
    2.8334   -9.1530   28.7119 C   0  0  0  0  0  0  0  0  0  0  0  0
    1.7075   -8.2080   29.1458 C   0  0  0  0  0  0  0  0  0  0  0  0
    0.8250   -9.0420   30.0449 C   0  0  0  0  0  0  0  0  0  0  0  0
    1.5661  -10.3637   30.1371 C   0  0  0  0  0  0  0  0  0  0  0  0
    1.3846  -18.0381   27.2823 H   0  0  0  0  0  0  0  0  0  0  0  0
    1.2569  -17.1728   29.1294 H   0  0  0  0  0  0  0  0  0  0  0  0
   -1.6945  -18.8375   26.2943 H   0  0  0  0  0  0  0  0  0  0  0  0
   -1.1172  -21.4999   28.0381 H   0  0  0  0  0  0  0  0  0  0  0  0
    0.4797  -18.5698   30.2290 H   0  0  0  0  0  0  0  0  0  0  0  0
    1.3010  -15.3821   28.5974 H   0  0  0  0  0  0  0  0  0  0  0  0
    2.1271  -13.5252   26.7221 H   0  0  0  0  0  0  0  0  0  0  0  0
    3.8499  -14.1613   27.0608 H   0  0  0  0  0  0  0  0  0  0  0  0
    2.7256  -12.1864   29.5922 H   0  0  0  0  0  0  0  0  0  0  0  0
    5.5672  -12.4742   28.7102 H   0  0  0  0  0  0  0  0  0  0  0  0
    7.6660  -10.4455   28.6664 H   0  0  0  0  0  0  0  0  0  0  0  0
    7.3289  -11.7901   27.5389 H   0  0  0  0  0  0  0  0  0  0  0  0
    8.9584  -11.0825   25.2493 H   0  0  0  0  0  0  0  0  0  0  0  0
    7.7361   -7.1048   24.8337 H   0  0  0  0  0  0  0  0  0  0  0  0
    6.6528   -8.0288   26.9416 H   0  0  0  0  0  0  0  0  0  0  0  0
    1.4538  -10.6528   27.9730 H   0  0  0  0  0  0  0  0  0  0  0  0
    3.6502   -9.0647   29.4387 H   0  0  0  0  0  0  0  0  0  0  0  0
    3.1571   -8.7981   27.7508 H   0  0  0  0  0  0  0  0  0  0  0  0
    2.1080   -7.3279   29.6592 H   0  0  0  0  0  0  0  0  0  0  0  0
    1.1381   -7.8558   28.2779 H   0  0  0  0  0  0  0  0  0  0  0  0
   -0.1611   -9.1819   29.5881 H   0  0  0  0  0  0  0  0  0  0  0  0
    0.6807   -8.5849   31.0284 H   0  0  0  0  0  0  0  0  0  0  0  0
    0.8936  -11.1411   30.4693 H   0  0  0  0  0  0  0  0  0  0  0  0
    2.3304  -10.2779   30.9208 H   0  0  0  0  0  0  0  0  0  0  0  0
  1  2  2  0
  2  3  1  0
  3  4  1  0
  4  5  1  0
  5  6  2  0
  6  7  1  0
  7  8  2  0
  2  9  1  0
  9 10  1  0
 10 11  1  0
 11 12  1  0
 12 13  1  0
 13 14  2  0
 13 15  1  0
 15 16  1  0
 16 17  2  0
 17 18  1  0
 18 19  2  0
 19 20  1  0
 11 21  1  0
 21 22  1  0
 22 23  1  0
 23 24  1  0
 24 25  1  0
  8  4  1  0
 20 16  1  0
 25 21  1  0
  3 26  1  0
  3 27  1  0
  5 28  1  0
  6 29  1  0
  8 30  1  0
  9 31  1  0
 10 32  1  0
 10 33  1  0
 11 34  1  0
 12 35  1  0
 15 36  1  0
 15 37  1  0
 17 38  1  0
 19 39  1  0
 20 40  1  0
 21 41  1  0
 22 42  1  0
 22 43  1  0
 23 44  1  0
 23 45  1  0
 24 46  1  0
 24 47  1  0
 25 48  1  0
 25 49  1  0
M  END
>  <Energy>  (444) 
470.92865192441809

>  <compound_id>  (444) 
14300

>  <target_id>  (444) 
1

>  <reference_id>  (444) 
63

>  <inspiration_ids>  (444) 
[115, 63]

>  <energy_score>  (444) 
395.961924982842

>  <distance_score>  (444) 
12.870682698391978

>  <path>  (444) 
/opt/xchem-fragalysis-2/maxwin/BulkDock/SCRATCH/511013/C14300-P63/C14300-P63.minimised.mol

>  <scratch_subdir>  (444) 
/opt/xchem-fragalysis-2/maxwin/BulkDock/SCRATCH/511013/C14300-P63

>  <fragmenstein_runtime>  (444) 
34.48259949684143

>  <fragmenstein_outcome>  (444) 
too moved

>  <fragmenstein_mode>  (444) 
expansion

>  <fragmenstein_error>  (444) 


$$$$
C14301-P115
     RDKit          3D

 26 27  0  0  0  0  0  0  0  0999 V2000
    5.6593  -12.3755   23.1757 C   0  0  0  0  0  0  0  0  0  0  0  0
    5.6957  -13.2716   24.1441 N   0  0  0  0  0  0  0  0  0  0  0  0
    6.1568  -12.2129   22.5439 C   0  0  0  0  0  0  0  0  0  0  0  0
    7.2718  -10.9013   22.4598 C   0  0  0  0  0  0  0  0  0  0  0  0
    7.6081   -9.8435   23.2826 C   0  0  0  0  0  0  0  0  0  0  0  0
    8.4722   -8.9764   22.6492 N   0  0  0  0  0  0  0  0  0  0  0  0
    8.6697   -9.4843   21.4552 C   0  0  0  0  0  0  0  0  0  0  0  0
    7.9652  -10.6429   21.2863 N   0  0  0  0  0  0  0  0  0  0  0  0
    5.1287  -12.9599   25.6264 C   0  0  0  0  0  0  0  0  0  0  0  0
    4.7361  -11.9979   26.1267 O   0  0  0  0  0  0  0  0  0  0  0  0
    5.0473  -14.1831   26.3694 N   0  0  0  0  0  0  0  0  0  0  0  0
    5.3368  -15.4947   26.0131 C   0  0  0  0  0  0  0  0  0  0  0  0
    4.9115  -16.2972   27.0542 C   0  0  0  0  0  0  0  0  0  0  0  0
    4.3816  -15.5444   28.0619 N   0  0  0  0  0  0  0  0  0  0  0  0
    4.5014  -14.3005   27.6454 C   0  0  0  0  0  0  0  0  0  0  0  0
    4.5991  -11.6492   23.2365 H   0  0  0  0  0  0  0  0  0  0  0  0
    5.7659  -11.5247   24.0976 H   0  0  0  0  0  0  0  0  0  0  0  0
    4.6466  -13.0682   22.8589 H   0  0  0  0  0  0  0  0  0  0  0  0
    5.5751  -12.2806   21.4257 H   0  0  0  0  0  0  0  0  0  0  0  0
    7.0290  -12.9871   22.1550 H   0  0  0  0  0  0  0  0  0  0  0  0
    7.2598   -9.6426   24.2890 H   0  0  0  0  0  0  0  0  0  0  0  0
    9.2946   -9.0642   20.6781 H   0  0  0  0  0  0  0  0  0  0  0  0
    7.9500  -11.1971   20.4405 H   0  0  0  0  0  0  0  0  0  0  0  0
    5.7953  -15.7214   25.0629 H   0  0  0  0  0  0  0  0  0  0  0  0
    4.9600  -17.3757   27.1297 H   0  0  0  0  0  0  0  0  0  0  0  0
    4.1970  -13.4194   28.1954 H   0  0  0  0  0  0  0  0  0  0  0  0
  1  2  1  0
  2  3  1  0
  3  4  1  0
  4  5  2  0
  5  6  1  0
  6  7  2  0
  7  8  1  0
  2  9  1  0
  9 10  2  0
  9 11  1  0
 11 12  1  0
 12 13  2  0
 13 14  1  0
 14 15  2  0
  8  4  1  0
 15 11  1  0
  1 16  1  0
  1 17  1  0
  1 18  1  0
  3 19  1  0
  3 20  1  0
  5 21  1  0
  7 22  1  0
  8 23  1  0
 12 24  1  0
 13 25  1  0
 15 26  1  0
M  END
>  <Energy>  (445) 
765.3114845069515

>  <compound_id>  (445) 
14301

>  <target_id>  (445) 
1

>  <reference_id>  (445) 
115

>  <inspiration_ids>  (445) 
[115, 63]

>  <energy_score>  (445) 
731.3908026882506

>  <distance_score>  (445) 
15.620233376597174

>  <path>  (445) 
/opt/xchem-fragalysis-2/maxwin/BulkDock/SCRATCH/511013/C14301-P115/C14301-P115.minimised.mol

>  <scratch_subdir>  (445) 
/opt/xchem-fragalysis-2/maxwin/BulkDock/SCRATCH/511013/C14301-P115

>  <fragmenstein_runtime>  (445) 
9.263611555099487

>  <fragmenstein_outcome>  (445) 
too moved

>  <fragmenstein_mode>  (445) 
expansion

>  <fragmenstein_error>  (445) 


$$$$
C14301-P63
     RDKit          3D

 26 27  0  0  0  0  0  0  0  0999 V2000
    2.0599  -12.4796   24.1638 C   0  0  0  0  0  0  0  0  0  0  0  0
    0.9915  -14.0003   23.8693 N   0  0  0  0  0  0  0  0  0  0  0  0
    2.6015  -12.8769   24.0406 C   0  0  0  0  0  0  0  0  0  0  0  0
    3.6725  -12.0047   22.7777 C   0  0  0  0  0  0  0  0  0  0  0  0
    4.3039  -12.3824   21.6030 C   0  0  0  0  0  0  0  0  0  0  0  0
    5.0248  -11.3328   21.0617 N   0  0  0  0  0  0  0  0  0  0  0  0
    4.8593  -10.3270   21.8871 C   0  0  0  0  0  0  0  0  0  0  0  0
    4.0741  -10.6831   22.9529 N   0  0  0  0  0  0  0  0  0  0  0  0
   -0.7369  -14.1108   24.6560 C   0  0  0  0  0  0  0  0  0  0  0  0
   -1.2920  -13.4116   25.4151 O   0  0  0  0  0  0  0  0  0  0  0  0
   -1.6700  -15.4874   24.4110 N   0  0  0  0  0  0  0  0  0  0  0  0
   -2.3650  -16.9062   25.4077 C   0  0  0  0  0  0  0  0  0  0  0  0
   -2.3864  -16.6771   26.8393 C   0  0  0  0  0  0  0  0  0  0  0  0
   -2.1225  -15.2815   26.8124 N   0  0  0  0  0  0  0  0  0  0  0  0
   -2.5275  -15.1462   25.3853 C   0  0  0  0  0  0  0  0  0  0  0  0
    1.7775  -11.3688   24.7194 H   0  0  0  0  0  0  0  0  0  0  0  0
    1.4615  -11.6721   23.3490 H   0  0  0  0  0  0  0  0  0  0  0  0
    1.7422  -12.5699   25.4924 H   0  0  0  0  0  0  0  0  0  0  0  0
    3.4201  -13.1967   24.9996 H   0  0  0  0  0  0  0  0  0  0  0  0
    3.1867  -13.8352   23.5262 H   0  0  0  0  0  0  0  0  0  0  0  0
    4.2685  -13.3481   21.1139 H   0  0  0  0  0  0  0  0  0  0  0  0
    5.2763   -9.3350   21.7741 H   0  0  0  0  0  0  0  0  0  0  0  0
    3.8218  -10.0743   23.7189 H   0  0  0  0  0  0  0  0  0  0  0  0
   -2.0860  -17.9067   25.2215 H   0  0  0  0  0  0  0  0  0  0  0  0
   -2.4903  -17.3649   27.6192 H   0  0  0  0  0  0  0  0  0  0  0  0
   -3.4473  -15.5040   24.8757 H   0  0  0  0  0  0  0  0  0  0  0  0
  1  2  1  0
  2  3  1  0
  3  4  1  0
  4  5  2  0
  5  6  1  0
  6  7  2  0
  7  8  1  0
  2  9  1  0
  9 10  2  0
  9 11  1  0
 11 12  1  0
 12 13  2  0
 13 14  1  0
 14 15  2  0
  8  4  1  0
 15 11  1  0
  1 16  1  0
  1 17  1  0
  1 18  1  0
  3 19  1  0
  3 20  1  0
  5 21  1  0
  7 22  1  0
  8 23  1  0
 12 24  1  0
 13 25  1  0
 15 26  1  0
M  END
>  <Energy>  (446) 
1183.7704756428343

>  <compound_id>  (446) 
14301

>  <target_id>  (446) 
1

>  <reference_id>  (446) 
63

>  <inspiration_ids>  (446) 
[115, 63]

>  <energy_score>  (446) 
1149.8497938241317

>  <distance_score>  (446) 
14.224990550433823

>  <path>  (446) 
/opt/xchem-fragalysis-2/maxwin/BulkDock/SCRATCH/511013/C14301-P63/C14301-P63.minimised.mol

>  <scratch_subdir>  (446) 
/opt/xchem-fragalysis-2/maxwin/BulkDock/SCRATCH/511013/C14301-P63

>  <fragmenstein_runtime>  (446) 
10.257237434387207

>  <fragmenstein_outcome>  (446) 
too moved

>  <fragmenstein_mode>  (446) 
expansion

>  <fragmenstein_error>  (446) 


$$$$
C14303-P115
     RDKit          3D

 43 44  0  0  0  0  0  0  0  0999 V2000
    3.4767  -19.6029   24.7049 C   0  0  0  0  0  0  0  0  0  0  0  0
    2.6050  -18.3561   24.8361 C   0  0  0  0  0  0  0  0  0  0  0  0
    0.6763  -18.3653   24.5006 C   0  0  0  0  0  0  0  0  0  0  0  0
   -0.6106  -17.6649   25.8811 N   0  0  0  0  0  0  0  0  0  0  0  0
   -0.9388  -15.8787   24.5394 C   0  0  0  0  0  0  0  0  0  0  0  0
    0.5561  -14.3188   24.0374 C   0  0  0  0  0  0  0  0  0  0  0  0
    1.9406  -12.8481   23.9909 N   0  0  0  0  0  0  0  0  0  0  0  0
    3.2179  -12.4040   22.7320 C   0  0  0  0  0  0  0  0  0  0  0  0
    3.4285  -13.0739   21.7476 O   0  0  0  0  0  0  0  0  0  0  0  0
    4.2266  -10.8854   22.6442 C   0  0  0  0  0  0  0  0  0  0  0  0
    4.2476   -9.4322   22.7994 C   0  0  0  0  0  0  0  0  0  0  0  0
    5.4785   -8.8119   22.6244 N   0  0  0  0  0  0  0  0  0  0  0  0
    6.1935   -9.6963   22.0013 C   0  0  0  0  0  0  0  0  0  0  0  0
    5.4519  -10.8147   21.7931 N   0  0  0  0  0  0  0  0  0  0  0  0
   -1.8327  -18.1750   26.2341 C   0  0  0  0  0  0  0  0  0  0  0  0
   -2.4588  -19.0145   25.7614 O   0  0  0  0  0  0  0  0  0  0  0  0
   -2.3376  -17.4842   27.6204 C   0  0  0  0  0  0  0  0  0  0  0  0
   -3.1443  -16.3114   27.4638 O   0  0  0  0  0  0  0  0  0  0  0  0
   -3.0045  -18.5044   28.5904 C   0  0  0  0  0  0  0  0  0  0  0  0
   -4.2482  -18.4291   29.2047 C   0  0  0  0  0  0  0  0  0  0  0  0
   -4.3073  -19.4888   30.0636 N   0  0  0  0  0  0  0  0  0  0  0  0
   -3.1504  -20.1960   29.9311 C   0  0  0  0  0  0  0  0  0  0  0  0
   -2.3364  -19.6255   29.0730 N   0  0  0  0  0  0  0  0  0  0  0  0
    4.2720  -19.4474   25.4165 H   0  0  0  0  0  0  0  0  0  0  0  0
    3.6215  -19.7204   23.6393 H   0  0  0  0  0  0  0  0  0  0  0  0
    3.4739  -20.6399   24.9846 H   0  0  0  0  0  0  0  0  0  0  0  0
    2.8147  -17.9339   25.8367 H   0  0  0  0  0  0  0  0  0  0  0  0
    3.1025  -17.7419   24.1027 H   0  0  0  0  0  0  0  0  0  0  0  0
    0.3505  -19.2178   23.8268 H   0  0  0  0  0  0  0  0  0  0  0  0
    0.6118  -19.0632   25.2605 H   0  0  0  0  0  0  0  0  0  0  0  0
   -1.5805  -15.0215   25.0873 H   0  0  0  0  0  0  0  0  0  0  0  0
   -2.0088  -15.7716   24.2057 H   0  0  0  0  0  0  0  0  0  0  0  0
    0.7513  -14.0737   25.0772 H   0  0  0  0  0  0  0  0  0  0  0  0
    1.3565  -14.7701   23.4345 H   0  0  0  0  0  0  0  0  0  0  0  0
    1.8812  -12.1126   24.6740 H   0  0  0  0  0  0  0  0  0  0  0  0
    3.4414   -8.7507   23.0299 H   0  0  0  0  0  0  0  0  0  0  0  0
    7.1823   -9.5693   21.5863 H   0  0  0  0  0  0  0  0  0  0  0  0
    5.6537  -11.5138   21.0841 H   0  0  0  0  0  0  0  0  0  0  0  0
   -1.4420  -17.1671   28.1682 H   0  0  0  0  0  0  0  0  0  0  0  0
   -3.9802  -16.7062   27.1672 H   0  0  0  0  0  0  0  0  0  0  0  0
   -5.0467  -17.7064   29.1297 H   0  0  0  0  0  0  0  0  0  0  0  0
   -5.0630  -19.7047   30.6965 H   0  0  0  0  0  0  0  0  0  0  0  0
   -2.9483  -21.0975   30.4926 H   0  0  0  0  0  0  0  0  0  0  0  0
  1  2  1  0
  2  3  1  0
  3  4  1  0
  4  5  1  0
  5  6  1  0
  6  7  1  0
  7  8  1  0
  8  9  2  0
  8 10  1  0
 10 11  2  0
 11 12  1  0
 12 13  2  0
 13 14  1  0
  4 15  1  0
 15 16  2  0
 15 17  1  0
 17 18  1  0
 17 19  1  0
 19 20  2  0
 20 21  1  0
 21 22  1  0
 22 23  2  0
 14 10  1  0
 23 19  1  0
  1 24  1  0
  1 25  1  0
  1 26  1  0
  2 27  1  0
  2 28  1  0
  3 29  1  0
  3 30  1  0
  5 31  1  0
  5 32  1  0
  6 33  1  0
  6 34  1  0
  7 35  1  0
 11 36  1  0
 13 37  1  0
 14 38  1  0
 17 39  1  0
 18 40  1  0
 20 41  1  0
 21 42  1  0
 22 43  1  0
M  END
>  <Energy>  (447) 
946.5952268404908

>  <compound_id>  (447) 
14303

>  <target_id>  (447) 
1

>  <reference_id>  (447) 
115

>  <inspiration_ids>  (447) 
[115, 63]

>  <energy_score>  (447) 
874.0484535251755

>  <distance_score>  (447) 
12.051334889058692

>  <path>  (447) 
/opt/xchem-fragalysis-2/maxwin/BulkDock/SCRATCH/511013/C14303-P115/C14303-P115.minimised.mol

>  <scratch_subdir>  (447) 
/opt/xchem-fragalysis-2/maxwin/BulkDock/SCRATCH/511013/C14303-P115

>  <fragmenstein_runtime>  (447) 
26.117260694503784

>  <fragmenstein_outcome>  (447) 
too moved

>  <fragmenstein_mode>  (447) 
expansion

>  <fragmenstein_error>  (447) 


$$$$
C14303-P63
     RDKit          3D

 43 44  0  0  0  0  0  0  0  0999 V2000
    2.5183  -20.4419   19.9822 C   0  0  0  0  0  0  0  0  0  0  0  0
    2.3745  -19.6585   21.5440 C   0  0  0  0  0  0  0  0  0  0  0  0
    3.4778  -19.1889   23.0758 C   0  0  0  0  0  0  0  0  0  0  0  0
    2.6680  -18.7312   24.4228 N   0  0  0  0  0  0  0  0  0  0  0  0
    3.4939  -17.0745   23.7820 C   0  0  0  0  0  0  0  0  0  0  0  0
    3.2402  -15.0279   23.4453 C   0  0  0  0  0  0  0  0  0  0  0  0
    3.3706  -13.2153   23.4995 N   0  0  0  0  0  0  0  0  0  0  0  0
    3.9197  -12.0965   22.3219 C   0  0  0  0  0  0  0  0  0  0  0  0
    4.2231  -12.3876   21.1961 O   0  0  0  0  0  0  0  0  0  0  0  0
    4.2848  -10.4544   22.6041 C   0  0  0  0  0  0  0  0  0  0  0  0
    3.8920   -9.0685   22.5925 C   0  0  0  0  0  0  0  0  0  0  0  0
    4.8929   -8.1716   22.9034 N   0  0  0  0  0  0  0  0  0  0  0  0
    5.9792   -8.8757   22.8288 C   0  0  0  0  0  0  0  0  0  0  0  0
    5.6975  -10.1438   22.4374 N   0  0  0  0  0  0  0  0  0  0  0  0
    0.9068  -18.7494   24.7914 C   0  0  0  0  0  0  0  0  0  0  0  0
    0.1890  -19.0551   23.8904 O   0  0  0  0  0  0  0  0  0  0  0  0
   -0.1917  -18.4114   26.4464 C   0  0  0  0  0  0  0  0  0  0  0  0
   -1.4229  -17.9521   25.8641 O   0  0  0  0  0  0  0  0  0  0  0  0
   -1.3392  -19.1391   27.6910 C   0  0  0  0  0  0  0  0  0  0  0  0
   -2.3416  -18.4056   28.3340 C   0  0  0  0  0  0  0  0  0  0  0  0
   -2.9375  -19.2300   29.2463 N   0  0  0  0  0  0  0  0  0  0  0  0
   -2.2121  -20.3791   29.2837 C   0  0  0  0  0  0  0  0  0  0  0  0
   -1.2565  -20.3674   28.3776 N   0  0  0  0  0  0  0  0  0  0  0  0
    3.4474  -20.9385   19.7121 H   0  0  0  0  0  0  0  0  0  0  0  0
    2.2637  -19.7991   19.1399 H   0  0  0  0  0  0  0  0  0  0  0  0
    1.8214  -21.2632   19.8560 H   0  0  0  0  0  0  0  0  0  0  0  0
    1.7180  -20.2579   22.1179 H   0  0  0  0  0  0  0  0  0  0  0  0
    1.6081  -18.9644   21.3268 H   0  0  0  0  0  0  0  0  0  0  0  0
    4.3571  -18.9807   22.5132 H   0  0  0  0  0  0  0  0  0  0  0  0
    3.6638  -20.0509   23.6767 H   0  0  0  0  0  0  0  0  0  0  0  0
    4.5276  -16.7087   23.8932 H   0  0  0  0  0  0  0  0  0  0  0  0
    3.7784  -17.2773   24.8967 H   0  0  0  0  0  0  0  0  0  0  0  0
    3.9812  -14.8771   24.2588 H   0  0  0  0  0  0  0  0  0  0  0  0
    2.1950  -14.8321   23.4244 H   0  0  0  0  0  0  0  0  0  0  0  0
    3.1025  -12.7076   24.3356 H   0  0  0  0  0  0  0  0  0  0  0  0
    2.9371   -8.6309   22.3196 H   0  0  0  0  0  0  0  0  0  0  0  0
    6.9787   -8.5291   23.0165 H   0  0  0  0  0  0  0  0  0  0  0  0
    6.3892  -10.8088   22.1277 H   0  0  0  0  0  0  0  0  0  0  0  0
    0.3013  -17.7223   27.1416 H   0  0  0  0  0  0  0  0  0  0  0  0
   -1.9507  -18.7631   25.7105 H   0  0  0  0  0  0  0  0  0  0  0  0
   -2.6878  -17.3956   28.1648 H   0  0  0  0  0  0  0  0  0  0  0  0
   -3.7300  -19.0005   29.8292 H   0  0  0  0  0  0  0  0  0  0  0  0
   -2.4273  -21.1856   29.9709 H   0  0  0  0  0  0  0  0  0  0  0  0
  1  2  1  0
  2  3  1  0
  3  4  1  0
  4  5  1  0
  5  6  1  0
  6  7  1  0
  7  8  1  0
  8  9  2  0
  8 10  1  0
 10 11  2  0
 11 12  1  0
 12 13  2  0
 13 14  1  0
  4 15  1  0
 15 16  2  0
 15 17  1  0
 17 18  1  0
 17 19  1  0
 19 20  2  0
 20 21  1  0
 21 22  1  0
 22 23  2  0
 14 10  1  0
 23 19  1  0
  1 24  1  0
  1 25  1  0
  1 26  1  0
  2 27  1  0
  2 28  1  0
  3 29  1  0
  3 30  1  0
  5 31  1  0
  5 32  1  0
  6 33  1  0
  6 34  1  0
  7 35  1  0
 11 36  1  0
 13 37  1  0
 14 38  1  0
 17 39  1  0
 18 40  1  0
 20 41  1  0
 21 42  1  0
 22 43  1  0
M  END
>  <Energy>  (448) 
869.88759520735471

>  <compound_id>  (448) 
14303

>  <target_id>  (448) 
1

>  <reference_id>  (448) 
63

>  <inspiration_ids>  (448) 
[115, 63]

>  <energy_score>  (448) 
797.3408218920544

>  <distance_score>  (448) 
12.249340716204433

>  <path>  (448) 
/opt/xchem-fragalysis-2/maxwin/BulkDock/SCRATCH/511013/C14303-P63/C14303-P63.minimised.mol

>  <scratch_subdir>  (448) 
/opt/xchem-fragalysis-2/maxwin/BulkDock/SCRATCH/511013/C14303-P63

>  <fragmenstein_runtime>  (448) 
22.75992727279663

>  <fragmenstein_outcome>  (448) 
too moved

>  <fragmenstein_mode>  (448) 
expansion

>  <fragmenstein_error>  (448) 


$$$$
C14304-P115
     RDKit          3D

 42 43  0  0  0  0  0  0  0  0999 V2000
   -8.2184  -20.4237   27.2601 C   0  0  0  0  0  0  0  0  0  0  0  0
   -7.4970  -21.9289   27.4464 C   0  0  0  0  0  0  0  0  0  0  0  0
   -8.7889  -23.2237   27.7566 C   0  0  0  0  0  0  0  0  0  0  0  0
   -5.9420  -22.0342   26.7840 N   0  0  0  0  0  0  0  0  0  0  0  0
   -5.7964  -23.2462   26.3035 C   0  0  0  0  0  0  0  0  0  0  0  0
   -4.9584  -23.2852   27.3528 C   0  0  0  0  0  0  0  0  0  0  0  0
   -4.9954  -21.9913   27.6096 N   0  0  0  0  0  0  0  0  0  0  0  0
   -4.4557  -21.1601   26.2952 C   0  0  0  0  0  0  0  0  0  0  0  0
   -2.9895  -19.5415   26.5334 C   0  0  0  0  0  0  0  0  0  0  0  0
   -3.4700  -18.7157   27.1973 O   0  0  0  0  0  0  0  0  0  0  0  0
   -1.8953  -19.5629   25.7882 N   0  0  0  0  0  0  0  0  0  0  0  0
   -1.5427  -19.2368   23.8000 C   0  0  0  0  0  0  0  0  0  0  0  0
   -0.7783  -17.8330   25.5279 C   0  0  0  0  0  0  0  0  0  0  0  0
   -1.1517  -15.7081   24.5969 C   0  0  0  0  0  0  0  0  0  0  0  0
    0.1512  -14.2963   23.7132 N   0  0  0  0  0  0  0  0  0  0  0  0
    1.6294  -13.3192   24.3918 C   0  0  0  0  0  0  0  0  0  0  0  0
    1.8822  -13.3803   25.5683 O   0  0  0  0  0  0  0  0  0  0  0  0
    2.8630  -12.3664   23.2515 C   0  0  0  0  0  0  0  0  0  0  0  0
    3.5611  -12.7418   21.9433 C   0  0  0  0  0  0  0  0  0  0  0  0
    4.6136  -11.8662   21.1943 N   0  0  0  0  0  0  0  0  0  0  0  0
    4.7144  -10.8061   21.9474 C   0  0  0  0  0  0  0  0  0  0  0  0
    3.6528  -10.9344   22.8094 N   0  0  0  0  0  0  0  0  0  0  0  0
   -8.2395  -20.0980   26.2839 H   0  0  0  0  0  0  0  0  0  0  0  0
   -8.0920  -19.5310   27.8370 H   0  0  0  0  0  0  0  0  0  0  0  0
   -9.2629  -20.5737   27.4085 H   0  0  0  0  0  0  0  0  0  0  0  0
   -7.0554  -22.1685   28.3165 H   0  0  0  0  0  0  0  0  0  0  0  0
   -9.0772  -23.7685   26.8494 H   0  0  0  0  0  0  0  0  0  0  0  0
   -9.6921  -22.7129   28.1425 H   0  0  0  0  0  0  0  0  0  0  0  0
   -8.7213  -24.0186   28.4990 H   0  0  0  0  0  0  0  0  0  0  0  0
   -6.1787  -23.6839   25.3883 H   0  0  0  0  0  0  0  0  0  0  0  0
   -4.2123  -23.8667   27.8838 H   0  0  0  0  0  0  0  0  0  0  0  0
   -0.4133  -19.4249   23.5231 H   0  0  0  0  0  0  0  0  0  0  0  0
   -1.9974  -20.3531   23.8415 H   0  0  0  0  0  0  0  0  0  0  0  0
   -1.8415  -19.8040   22.8895 H   0  0  0  0  0  0  0  0  0  0  0  0
   -1.8503  -17.6065   25.8397 H   0  0  0  0  0  0  0  0  0  0  0  0
   -0.4244  -17.8517   26.5943 H   0  0  0  0  0  0  0  0  0  0  0  0
   -2.0881  -15.6231   24.0379 H   0  0  0  0  0  0  0  0  0  0  0  0
   -1.7545  -14.9668   25.2651 H   0  0  0  0  0  0  0  0  0  0  0  0
    0.1332  -14.1997   22.6984 H   0  0  0  0  0  0  0  0  0  0  0  0
    3.3909  -13.6376   21.3790 H   0  0  0  0  0  0  0  0  0  0  0  0
    5.3001   -9.9117   21.7912 H   0  0  0  0  0  0  0  0  0  0  0  0
    3.0387  -10.1442   22.7225 H   0  0  0  0  0  0  0  0  0  0  0  0
  1  2  1  0
  2  3  1  0
  2  4  1  0
  4  5  1  0
  5  6  2  0
  6  7  1  0
  7  8  2  0
  8  9  1  0
  9 10  2  0
  9 11  1  0
 11 12  1  0
 11 13  1  0
 13 14  1  0
 14 15  1  0
 15 16  1  0
 16 17  2  0
 16 18  1  0
 18 19  2  0
 19 20  1  0
 20 21  2  0
 21 22  1  0
  8  4  1  0
 22 18  1  0
  1 23  1  0
  1 24  1  0
  1 25  1  0
  2 26  1  0
  3 27  1  0
  3 28  1  0
  3 29  1  0
  5 30  1  0
  6 31  1  0
 12 32  1  0
 12 33  1  0
 12 34  1  0
 13 35  1  0
 13 36  1  0
 14 37  1  0
 14 38  1  0
 15 39  1  0
 19 40  1  0
 21 41  1  0
 22 42  1  0
M  END
>  <Energy>  (449) 
1620.7358778775802

>  <compound_id>  (449) 
14304

>  <target_id>  (449) 
1

>  <reference_id>  (449) 
115

>  <inspiration_ids>  (449) 
[115, 63]

>  <energy_score>  (449) 
1589.9467815738567

>  <distance_score>  (449) 
12.460615143895824

>  <path>  (449) 
/opt/xchem-fragalysis-2/maxwin/BulkDock/SCRATCH/511013/C14304-P115/C14304-P115.minimised.mol

>  <scratch_subdir>  (449) 
/opt/xchem-fragalysis-2/maxwin/BulkDock/SCRATCH/511013/C14304-P115

>  <fragmenstein_runtime>  (449) 
21.650954008102417

>  <fragmenstein_outcome>  (449) 
too moved

>  <fragmenstein_mode>  (449) 
expansion

>  <fragmenstein_error>  (449) 


$$$$
C14304-P63
     RDKit          3D

 42 43  0  0  0  0  0  0  0  0999 V2000
   -8.1172  -20.0645   27.4096 C   0  0  0  0  0  0  0  0  0  0  0  0
   -6.9979  -21.0101   27.7510 C   0  0  0  0  0  0  0  0  0  0  0  0
   -7.1451  -22.5238   27.4036 C   0  0  0  0  0  0  0  0  0  0  0  0
   -5.7689  -20.0516   26.9974 N   0  0  0  0  0  0  0  0  0  0  0  0
   -5.0142  -21.0707   26.2681 C   0  0  0  0  0  0  0  0  0  0  0  0
   -4.6385  -20.2181   25.3631 C   0  0  0  0  0  0  0  0  0  0  0  0
   -5.4146  -19.3206   25.9842 N   0  0  0  0  0  0  0  0  0  0  0  0
   -4.9098  -18.4840   27.3728 C   0  0  0  0  0  0  0  0  0  0  0  0
   -3.4478  -17.0558   27.0046 C   0  0  0  0  0  0  0  0  0  0  0  0
   -3.2194  -16.3951   28.0056 O   0  0  0  0  0  0  0  0  0  0  0  0
   -2.5934  -16.5311   25.3182 N   0  0  0  0  0  0  0  0  0  0  0  0
   -3.3760  -15.6268   24.5591 C   0  0  0  0  0  0  0  0  0  0  0  0
   -1.4240  -14.9449   24.8309 C   0  0  0  0  0  0  0  0  0  0  0  0
    0.4819  -14.1795   24.2900 C   0  0  0  0  0  0  0  0  0  0  0  0
    1.6326  -12.6141   23.6803 N   0  0  0  0  0  0  0  0  0  0  0  0
    3.0649  -12.4194   23.6596 C   0  0  0  0  0  0  0  0  0  0  0  0
    3.8406  -13.1396   24.0937 O   0  0  0  0  0  0  0  0  0  0  0  0
    3.9488  -10.9760   22.7448 C   0  0  0  0  0  0  0  0  0  0  0  0
    5.3885  -10.4512   22.5861 C   0  0  0  0  0  0  0  0  0  0  0  0
    5.6564   -9.3064   21.8715 N   0  0  0  0  0  0  0  0  0  0  0  0
    4.4808   -8.8685   21.5907 C   0  0  0  0  0  0  0  0  0  0  0  0
    3.5336   -9.6425   22.1803 N   0  0  0  0  0  0  0  0  0  0  0  0
   -9.0877  -20.4954   27.5617 H   0  0  0  0  0  0  0  0  0  0  0  0
   -8.1888  -20.0307   26.3876 H   0  0  0  0  0  0  0  0  0  0  0  0
   -8.1976  -19.0879   27.8876 H   0  0  0  0  0  0  0  0  0  0  0  0
   -6.0352  -21.3718   28.0502 H   0  0  0  0  0  0  0  0  0  0  0  0
   -6.2842  -23.0729   27.8100 H   0  0  0  0  0  0  0  0  0  0  0  0
   -8.0903  -22.8919   27.8034 H   0  0  0  0  0  0  0  0  0  0  0  0
   -6.9735  -22.8744   26.3953 H   0  0  0  0  0  0  0  0  0  0  0  0
   -5.0230  -22.0493   26.7075 H   0  0  0  0  0  0  0  0  0  0  0  0
   -3.8825  -20.1609   24.6368 H   0  0  0  0  0  0  0  0  0  0  0  0
   -3.3630  -15.9008   23.5342 H   0  0  0  0  0  0  0  0  0  0  0  0
   -4.4203  -15.6673   24.6558 H   0  0  0  0  0  0  0  0  0  0  0  0
   -3.1658  -14.8810   23.8396 H   0  0  0  0  0  0  0  0  0  0  0  0
   -1.8905  -14.1340   25.4172 H   0  0  0  0  0  0  0  0  0  0  0  0
   -1.4890  -15.1377   23.7827 H   0  0  0  0  0  0  0  0  0  0  0  0
    0.8248  -13.7980   25.3189 H   0  0  0  0  0  0  0  0  0  0  0  0
   -0.0757  -13.9467   23.3650 H   0  0  0  0  0  0  0  0  0  0  0  0
    1.1876  -11.7679   23.2990 H   0  0  0  0  0  0  0  0  0  0  0  0
    6.2840  -10.8756   23.0458 H   0  0  0  0  0  0  0  0  0  0  0  0
    4.2336   -7.9982   20.9991 H   0  0  0  0  0  0  0  0  0  0  0  0
    2.5509   -9.4805   22.0177 H   0  0  0  0  0  0  0  0  0  0  0  0
  1  2  1  0
  2  3  1  0
  2  4  1  0
  4  5  1  0
  5  6  2  0
  6  7  1  0
  7  8  2  0
  8  9  1  0
  9 10  2  0
  9 11  1  0
 11 12  1  0
 11 13  1  0
 13 14  1  0
 14 15  1  0
 15 16  1  0
 16 17  2  0
 16 18  1  0
 18 19  2  0
 19 20  1  0
 20 21  2  0
 21 22  1  0
  8  4  1  0
 22 18  1  0
  1 23  1  0
  1 24  1  0
  1 25  1  0
  2 26  1  0
  3 27  1  0
  3 28  1  0
  3 29  1  0
  5 30  1  0
  6 31  1  0
 12 32  1  0
 12 33  1  0
 12 34  1  0
 13 35  1  0
 13 36  1  0
 14 37  1  0
 14 38  1  0
 15 39  1  0
 19 40  1  0
 21 41  1  0
 22 42  1  0
M  END
>  <Energy>  (450) 
1268.7724688257317

>  <compound_id>  (450) 
14304

>  <target_id>  (450) 
1

>  <reference_id>  (450) 
63

>  <inspiration_ids>  (450) 
[115, 63]

>  <energy_score>  (450) 
1237.9833725220064

>  <distance_score>  (450) 
11.918853032403923

>  <path>  (450) 
/opt/xchem-fragalysis-2/maxwin/BulkDock/SCRATCH/511013/C14304-P63/C14304-P63.minimised.mol

>  <scratch_subdir>  (450) 
/opt/xchem-fragalysis-2/maxwin/BulkDock/SCRATCH/511013/C14304-P63

>  <fragmenstein_runtime>  (450) 
33.34674119949341

>  <fragmenstein_outcome>  (450) 
too moved

>  <fragmenstein_mode>  (450) 
expansion

>  <fragmenstein_error>  (450) 


$$$$
C14305-P115
     RDKit          3D

 23 24  0  0  0  0  0  0  0  0999 V2000
    4.1084  -11.0563   22.3230 O   0  0  0  0  0  0  0  0  0  0  0  0
    4.0211  -12.1848   22.0525 C   0  0  0  0  0  0  0  0  0  0  0  0
    3.0729  -13.2854   23.0656 N   0  0  0  0  0  0  0  0  0  0  0  0
    2.1828  -13.0211   24.4350 C   0  0  0  0  0  0  0  0  0  0  0  0
    1.2306  -13.5730   26.0277 C   0  0  0  0  0  0  0  0  0  0  0  0
    1.5415  -13.8128   27.4015 C   0  0  0  0  0  0  0  0  0  0  0  0
    0.4709  -14.1916   28.1995 N   0  0  0  0  0  0  0  0  0  0  0  0
   -0.5519  -14.1871   27.3962 C   0  0  0  0  0  0  0  0  0  0  0  0
   -0.1565  -13.8790   26.1322 N   0  0  0  0  0  0  0  0  0  0  0  0
    5.1467  -12.5643   20.5701 C   0  0  0  0  0  0  0  0  0  0  0  0
    5.8044  -11.7718   19.5381 C   0  0  0  0  0  0  0  0  0  0  0  0
    7.0955  -12.0948   19.1225 N   0  0  0  0  0  0  0  0  0  0  0  0
    7.4376  -13.0320   19.9619 C   0  0  0  0  0  0  0  0  0  0  0  0
    6.4562  -13.0755   20.8406 N   0  0  0  0  0  0  0  0  0  0  0  0
    3.0470  -14.2020   22.6175 H   0  0  0  0  0  0  0  0  0  0  0  0
    2.0386  -11.9749   24.3570 H   0  0  0  0  0  0  0  0  0  0  0  0
    3.0941  -13.4900   24.8269 H   0  0  0  0  0  0  0  0  0  0  0  0
    2.5181  -13.7867   27.8685 H   0  0  0  0  0  0  0  0  0  0  0  0
   -1.5756  -14.4187   27.6534 H   0  0  0  0  0  0  0  0  0  0  0  0
   -0.7477  -13.8375   25.3216 H   0  0  0  0  0  0  0  0  0  0  0  0
    5.6849  -10.8917   18.9584 H   0  0  0  0  0  0  0  0  0  0  0  0
    7.6284  -11.6723   18.3730 H   0  0  0  0  0  0  0  0  0  0  0  0
    8.3855  -13.5515   20.0032 H   0  0  0  0  0  0  0  0  0  0  0  0
  1  2  2  0
  2  3  1  0
  3  4  1  0
  4  5  1  0
  5  6  2  0
  6  7  1  0
  7  8  2  0
  8  9  1  0
  2 10  1  0
 10 11  2  0
 11 12  1  0
 12 13  1  0
 13 14  2  0
  9  5  1  0
 14 10  1  0
  3 15  1  0
  4 16  1  0
  4 17  1  0
  6 18  1  0
  8 19  1  0
  9 20  1  0
 11 21  1  0
 12 22  1  0
 13 23  1  0
M  END
>  <Energy>  (451) 
309.6492520939322

>  <compound_id>  (451) 
14305

>  <target_id>  (451) 
1

>  <reference_id>  (451) 
115

>  <inspiration_ids>  (451) 
[115, 63]

>  <energy_score>  (451) 
299.03224708786473

>  <distance_score>  (451) 
14.97070348034625

>  <path>  (451) 
/opt/xchem-fragalysis-2/maxwin/BulkDock/SCRATCH/511013/C14305-P115/C14305-P115.minimised.mol

>  <scratch_subdir>  (451) 
/opt/xchem-fragalysis-2/maxwin/BulkDock/SCRATCH/511013/C14305-P115

>  <fragmenstein_runtime>  (451) 
8.690669536590576

>  <fragmenstein_outcome>  (451) 
too moved

>  <fragmenstein_mode>  (451) 
expansion

>  <fragmenstein_error>  (451) 


$$$$
C14305-P63
     RDKit          3D

 23 24  0  0  0  0  0  0  0  0999 V2000
    3.8261  -20.3099   25.7145 O   0  0  0  0  0  0  0  0  0  0  0  0
    3.5110  -19.3787   26.3973 C   0  0  0  0  0  0  0  0  0  0  0  0
    2.5618  -19.2848   27.4773 N   0  0  0  0  0  0  0  0  0  0  0  0
    1.7651  -20.3078   28.1374 C   0  0  0  0  0  0  0  0  0  0  0  0
    0.2655  -20.2246   28.1367 C   0  0  0  0  0  0  0  0  0  0  0  0
   -0.6975  -19.9694   27.1786 C   0  0  0  0  0  0  0  0  0  0  0  0
   -1.9709  -20.2046   27.6563 N   0  0  0  0  0  0  0  0  0  0  0  0
   -1.8103  -20.5976   28.8961 C   0  0  0  0  0  0  0  0  0  0  0  0
   -0.4859  -20.6264   29.2326 N   0  0  0  0  0  0  0  0  0  0  0  0
    4.2955  -18.1078   26.1741 C   0  0  0  0  0  0  0  0  0  0  0  0
    5.1844  -17.8863   25.1249 C   0  0  0  0  0  0  0  0  0  0  0  0
    5.7392  -16.6572   25.3353 N   0  0  0  0  0  0  0  0  0  0  0  0
    5.2038  -16.1563   26.4846 C   0  0  0  0  0  0  0  0  0  0  0  0
    4.3386  -16.9988   27.0197 N   0  0  0  0  0  0  0  0  0  0  0  0
    2.6144  -18.3538   27.8841 H   0  0  0  0  0  0  0  0  0  0  0  0
    2.1234  -20.3276   29.1736 H   0  0  0  0  0  0  0  0  0  0  0  0
    2.0476  -21.2680   27.6891 H   0  0  0  0  0  0  0  0  0  0  0  0
   -0.5369  -19.6592   26.1534 H   0  0  0  0  0  0  0  0  0  0  0  0
   -2.5985  -20.8665   29.5873 H   0  0  0  0  0  0  0  0  0  0  0  0
   -0.1197  -20.9169   30.1282 H   0  0  0  0  0  0  0  0  0  0  0  0
    5.4652  -18.5195   24.2955 H   0  0  0  0  0  0  0  0  0  0  0  0
    6.4357  -16.2002   24.7550 H   0  0  0  0  0  0  0  0  0  0  0  0
    5.4694  -15.1867   26.8830 H   0  0  0  0  0  0  0  0  0  0  0  0
  1  2  2  0
  2  3  1  0
  3  4  1  0
  4  5  1  0
  5  6  2  0
  6  7  1  0
  7  8  2  0
  8  9  1  0
  2 10  1  0
 10 11  2  0
 11 12  1  0
 12 13  1  0
 13 14  2  0
  9  5  1  0
 14 10  1  0
  3 15  1  0
  4 16  1  0
  4 17  1  0
  6 18  1  0
  8 19  1  0
  9 20  1  0
 11 21  1  0
 12 22  1  0
 13 23  1  0
M  END
>  <Energy>  (452) 
1.9607944081701374

>  <compound_id>  (452) 
14305

>  <target_id>  (452) 
1

>  <reference_id>  (452) 
63

>  <inspiration_ids>  (452) 
[115, 63]

>  <energy_score>  (452) 
-8.656210597901804

>  <distance_score>  (452) 
16.837816005611423

>  <path>  (452) 
/opt/xchem-fragalysis-2/maxwin/BulkDock/SCRATCH/511013/C14305-P63/C14305-P63.minimised.mol

>  <scratch_subdir>  (452) 
/opt/xchem-fragalysis-2/maxwin/BulkDock/SCRATCH/511013/C14305-P63

>  <fragmenstein_runtime>  (452) 
14.602408409118652

>  <fragmenstein_outcome>  (452) 
too moved

>  <fragmenstein_mode>  (452) 
expansion

>  <fragmenstein_error>  (452) 


$$$$
C14306-P115
     RDKit          3D

 26 27  0  0  0  0  0  0  0  0999 V2000
    6.1785  -16.6998   16.0598 C   0  0  0  0  0  0  0  0  0  0  0  0
    4.9803  -17.3752   16.4792 N   0  0  0  0  0  0  0  0  0  0  0  0
    3.7225  -16.8615   16.4844 C   0  0  0  0  0  0  0  0  0  0  0  0
    2.8449  -17.7527   16.9107 N   0  0  0  0  0  0  0  0  0  0  0  0
    3.5473  -18.9209   17.1768 C   0  0  0  0  0  0  0  0  0  0  0  0
    2.9564  -20.2133   17.7190 C   0  0  0  0  0  0  0  0  0  0  0  0
    3.6492  -21.1840   17.6090 O   0  0  0  0  0  0  0  0  0  0  0  0
    1.6065  -20.0682   18.2372 N   0  0  0  0  0  0  0  0  0  0  0  0
    0.6421  -21.0710   18.6928 C   0  0  0  0  0  0  0  0  0  0  0  0
   -0.0822  -20.9094   20.0175 C   0  0  0  0  0  0  0  0  0  0  0  0
    0.3221  -20.7098   21.3278 C   0  0  0  0  0  0  0  0  0  0  0  0
   -0.7216  -20.8376   22.2246 N   0  0  0  0  0  0  0  0  0  0  0  0
   -1.7659  -21.1340   21.4916 C   0  0  0  0  0  0  0  0  0  0  0  0
   -1.4377  -21.1824   20.1626 N   0  0  0  0  0  0  0  0  0  0  0  0
    4.8914  -18.6751   16.8983 C   0  0  0  0  0  0  0  0  0  0  0  0
    6.8782  -17.4319   15.6482 H   0  0  0  0  0  0  0  0  0  0  0  0
    6.6167  -16.2113   16.9331 H   0  0  0  0  0  0  0  0  0  0  0  0
    5.9272  -15.9663   15.2900 H   0  0  0  0  0  0  0  0  0  0  0  0
    3.4888  -15.8579   16.1618 H   0  0  0  0  0  0  0  0  0  0  0  0
    1.3005  -19.1078   18.1007 H   0  0  0  0  0  0  0  0  0  0  0  0
    1.1700  -22.0319   18.7136 H   0  0  0  0  0  0  0  0  0  0  0  0
   -0.1013  -21.1393   17.8896 H   0  0  0  0  0  0  0  0  0  0  0  0
    1.3287  -20.5116   21.6754 H   0  0  0  0  0  0  0  0  0  0  0  0
   -2.7684  -21.3216   21.8520 H   0  0  0  0  0  0  0  0  0  0  0  0
   -2.0747  -21.4174   19.4144 H   0  0  0  0  0  0  0  0  0  0  0  0
    5.7546  -19.3215   16.9786 H   0  0  0  0  0  0  0  0  0  0  0  0
  1  2  1  0
  2  3  1  0
  3  4  2  0
  4  5  1  0
  5  6  1  0
  6  7  2  0
  6  8  1  0
  8  9  1  0
  9 10  1  0
 10 11  2  0
 11 12  1  0
 12 13  2  0
 13 14  1  0
  5 15  2  0
 15  2  1  0
 14 10  1  0
  1 16  1  0
  1 17  1  0
  1 18  1  0
  3 19  1  0
  8 20  1  0
  9 21  1  0
  9 22  1  0
 11 23  1  0
 13 24  1  0
 14 25  1  0
 15 26  1  0
M  END
>  <Energy>  (453) 
6.5034900059802982

>  <compound_id>  (453) 
14306

>  <target_id>  (453) 
1

>  <reference_id>  (453) 
115

>  <inspiration_ids>  (453) 
[115, 63]

>  <energy_score>  (453) 
-4.526200224567333

>  <distance_score>  (453) 
17.024824168394645

>  <path>  (453) 
/opt/xchem-fragalysis-2/maxwin/BulkDock/SCRATCH/511013/C14306-P115/C14306-P115.minimised.mol

>  <scratch_subdir>  (453) 
/opt/xchem-fragalysis-2/maxwin/BulkDock/SCRATCH/511013/C14306-P115

>  <fragmenstein_runtime>  (453) 
14.759204864501953

>  <fragmenstein_outcome>  (453) 
too moved

>  <fragmenstein_mode>  (453) 
expansion

>  <fragmenstein_error>  (453) 


$$$$
C14306-P63
     RDKit          3D

 26 27  0  0  0  0  0  0  0  0999 V2000
    0.8113   -9.3094   21.4341 C   0  0  0  0  0  0  0  0  0  0  0  0
    2.3542   -9.4872   21.7791 N   0  0  0  0  0  0  0  0  0  0  0  0
    2.8405   -8.6015   22.8108 C   0  0  0  0  0  0  0  0  0  0  0  0
    3.4283  -10.0786   23.2415 N   0  0  0  0  0  0  0  0  0  0  0  0
    2.6405  -11.6089   23.3079 C   0  0  0  0  0  0  0  0  0  0  0  0
    2.5592  -12.8533   24.2761 C   0  0  0  0  0  0  0  0  0  0  0  0
    3.3286  -13.7420   23.9783 O   0  0  0  0  0  0  0  0  0  0  0  0
    1.5240  -12.7326   25.6269 N   0  0  0  0  0  0  0  0  0  0  0  0
    1.3660  -13.6359   26.8452 C   0  0  0  0  0  0  0  0  0  0  0  0
    0.0778  -14.4944   27.0395 C   0  0  0  0  0  0  0  0  0  0  0  0
   -1.2608  -14.3650   26.7034 C   0  0  0  0  0  0  0  0  0  0  0  0
   -2.0363  -15.3987   27.1948 N   0  0  0  0  0  0  0  0  0  0  0  0
   -1.1970  -16.1777   27.8306 C   0  0  0  0  0  0  0  0  0  0  0  0
    0.0738  -15.6714   27.7859 N   0  0  0  0  0  0  0  0  0  0  0  0
    3.5025  -10.9850   22.4429 C   0  0  0  0  0  0  0  0  0  0  0  0
    0.7688   -8.8412   20.4558 H   0  0  0  0  0  0  0  0  0  0  0  0
    0.2957  -10.2574   21.5475 H   0  0  0  0  0  0  0  0  0  0  0  0
    0.4137   -8.5545   22.1284 H   0  0  0  0  0  0  0  0  0  0  0  0
    3.8077   -8.0593   22.9217 H   0  0  0  0  0  0  0  0  0  0  0  0
    1.0784  -11.8442   25.6282 H   0  0  0  0  0  0  0  0  0  0  0  0
    1.1729  -12.8718   27.6209 H   0  0  0  0  0  0  0  0  0  0  0  0
    2.3025  -14.0479   27.2302 H   0  0  0  0  0  0  0  0  0  0  0  0
   -1.7147  -13.5636   26.1407 H   0  0  0  0  0  0  0  0  0  0  0  0
   -1.4394  -17.1008   28.3394 H   0  0  0  0  0  0  0  0  0  0  0  0
    0.8862  -16.0989   28.2072 H   0  0  0  0  0  0  0  0  0  0  0  0
    4.3839  -11.2620   21.8422 H   0  0  0  0  0  0  0  0  0  0  0  0
  1  2  1  0
  2  3  1  0
  3  4  2  0
  4  5  1  0
  5  6  1  0
  6  7  2  0
  6  8  1  0
  8  9  1  0
  9 10  1  0
 10 11  2  0
 11 12  1  0
 12 13  2  0
 13 14  1  0
  5 15  2  0
 15  2  1  0
 14 10  1  0
  1 16  1  0
  1 17  1  0
  1 18  1  0
  3 19  1  0
  8 20  1  0
  9 21  1  0
  9 22  1  0
 11 23  1  0
 13 24  1  0
 14 25  1  0
 15 26  1  0
M  END
>  <Energy>  (454) 
515.07928577256064

>  <compound_id>  (454) 
14306

>  <target_id>  (454) 
1

>  <reference_id>  (454) 
63

>  <inspiration_ids>  (454) 
[115, 63]

>  <energy_score>  (454) 
504.0495955420041

>  <distance_score>  (454) 
14.907280341953578

>  <path>  (454) 
/opt/xchem-fragalysis-2/maxwin/BulkDock/SCRATCH/511013/C14306-P63/C14306-P63.minimised.mol

>  <scratch_subdir>  (454) 
/opt/xchem-fragalysis-2/maxwin/BulkDock/SCRATCH/511013/C14306-P63

>  <fragmenstein_runtime>  (454) 
10.694699764251709

>  <fragmenstein_outcome>  (454) 
too moved

>  <fragmenstein_mode>  (454) 
expansion

>  <fragmenstein_error>  (454) 


$$$$
C14307-P115
     RDKit          3D

 24 25  0  0  0  0  0  0  0  0999 V2000
    4.3808  -13.2839   30.2823 O   0  0  0  0  0  0  0  0  0  0  0  0
    4.5169  -13.9336   29.2863 C   0  0  0  0  0  0  0  0  0  0  0  0
    3.9813  -15.2381   28.9268 N   0  0  0  0  0  0  0  0  0  0  0  0
    3.1963  -16.1987   29.7043 C   0  0  0  0  0  0  0  0  0  0  0  0
    1.9183  -16.8046   29.1761 C   0  0  0  0  0  0  0  0  0  0  0  0
    1.5730  -18.1276   28.9209 C   0  0  0  0  0  0  0  0  0  0  0  0
    0.2185  -18.2881   28.7442 N   0  0  0  0  0  0  0  0  0  0  0  0
   -0.2799  -17.0835   28.8788 C   0  0  0  0  0  0  0  0  0  0  0  0
    0.7019  -16.1551   29.1189 N   0  0  0  0  0  0  0  0  0  0  0  0
    5.4999  -13.3184   28.2847 C   0  0  0  0  0  0  0  0  0  0  0  0
    6.2797  -13.9003   27.2898 C   0  0  0  0  0  0  0  0  0  0  0  0
    7.0794  -12.8964   26.7727 N   0  0  0  0  0  0  0  0  0  0  0  0
    6.7656  -11.7534   27.4294 C   0  0  0  0  0  0  0  0  0  0  0  0
    7.3559  -10.6004   27.2170 O   0  0  0  0  0  0  0  0  0  0  0  0
    5.8349  -11.9371   28.3250 N   0  0  0  0  0  0  0  0  0  0  0  0
    4.2349  -15.4470   27.9696 H   0  0  0  0  0  0  0  0  0  0  0  0
    2.9755  -15.7181   30.6654 H   0  0  0  0  0  0  0  0  0  0  0  0
    3.8929  -17.0164   29.9265 H   0  0  0  0  0  0  0  0  0  0  0  0
    2.2339  -18.9857   28.9140 H   0  0  0  0  0  0  0  0  0  0  0  0
   -1.3253  -16.8136   28.8110 H   0  0  0  0  0  0  0  0  0  0  0  0
    0.5504  -15.1690   29.2831 H   0  0  0  0  0  0  0  0  0  0  0  0
    6.3806  -14.9250   26.9608 H   0  0  0  0  0  0  0  0  0  0  0  0
    7.8243  -12.9831   26.0957 H   0  0  0  0  0  0  0  0  0  0  0  0
    6.9355  -10.0344   27.8897 H   0  0  0  0  0  0  0  0  0  0  0  0
  1  2  2  0
  2  3  1  0
  3  4  1  0
  4  5  1  0
  5  6  2  0
  6  7  1  0
  7  8  2  0
  8  9  1  0
  2 10  1  0
 10 11  2  0
 11 12  1  0
 12 13  1  0
 13 14  1  0
 13 15  2  0
  9  5  1  0
 15 10  1  0
  3 16  1  0
  4 17  1  0
  4 18  1  0
  6 19  1  0
  8 20  1  0
  9 21  1  0
 11 22  1  0
 12 23  1  0
 14 24  1  0
M  END
>  <Energy>  (455) 
-15.900292582352119

>  <compound_id>  (455) 
14307

>  <target_id>  (455) 
1

>  <reference_id>  (455) 
115

>  <inspiration_ids>  (455) 
[115, 63]

>  <energy_score>  (455) 
-22.18439706792529

>  <distance_score>  (455) 
16.37050770233064

>  <path>  (455) 
/opt/xchem-fragalysis-2/maxwin/BulkDock/SCRATCH/511013/C14307-P115/C14307-P115.minimised.mol

>  <scratch_subdir>  (455) 
/opt/xchem-fragalysis-2/maxwin/BulkDock/SCRATCH/511013/C14307-P115

>  <fragmenstein_runtime>  (455) 
9.07995867729187

>  <fragmenstein_outcome>  (455) 
too moved

>  <fragmenstein_mode>  (455) 
expansion

>  <fragmenstein_error>  (455) 


$$$$
C14307-P63
     RDKit          3D

 24 25  0  0  0  0  0  0  0  0999 V2000
   -3.5690  -15.3489   19.1869 O   0  0  0  0  0  0  0  0  0  0  0  0
   -2.7128  -16.1563   19.3996 C   0  0  0  0  0  0  0  0  0  0  0  0
   -2.5843  -17.1395   20.4613 N   0  0  0  0  0  0  0  0  0  0  0  0
   -3.4036  -17.3790   21.6425 C   0  0  0  0  0  0  0  0  0  0  0  0
   -3.5625  -18.7664   22.1877 C   0  0  0  0  0  0  0  0  0  0  0  0
   -4.3606  -19.8345   21.8132 C   0  0  0  0  0  0  0  0  0  0  0  0
   -4.3598  -20.8313   22.7631 N   0  0  0  0  0  0  0  0  0  0  0  0
   -3.5848  -20.3925   23.7245 C   0  0  0  0  0  0  0  0  0  0  0  0
   -3.0811  -19.1559   23.4267 N   0  0  0  0  0  0  0  0  0  0  0  0
   -1.5254  -16.0479   18.4471 C   0  0  0  0  0  0  0  0  0  0  0  0
   -0.3566  -16.7872   18.3174 C   0  0  0  0  0  0  0  0  0  0  0  0
    0.4176  -16.1500   17.3608 N   0  0  0  0  0  0  0  0  0  0  0  0
   -0.3032  -15.0953   16.9085 C   0  0  0  0  0  0  0  0  0  0  0  0
    0.0582  -14.3210   15.9149 O   0  0  0  0  0  0  0  0  0  0  0  0
   -1.4366  -14.9666   17.5361 N   0  0  0  0  0  0  0  0  0  0  0  0
   -1.6900  -17.6005   20.3770 H   0  0  0  0  0  0  0  0  0  0  0  0
   -4.3979  -16.9709   21.4234 H   0  0  0  0  0  0  0  0  0  0  0  0
   -2.9817  -16.7312   22.4211 H   0  0  0  0  0  0  0  0  0  0  0  0
   -4.9701  -19.9189   20.9215 H   0  0  0  0  0  0  0  0  0  0  0  0
   -3.3588  -20.9096   24.6476 H   0  0  0  0  0  0  0  0  0  0  0  0
   -2.4997  -18.6029   24.0411 H   0  0  0  0  0  0  0  0  0  0  0  0
   -0.0044  -17.6844   18.8014 H   0  0  0  0  0  0  0  0  0  0  0  0
    1.3226  -16.4306   17.0081 H   0  0  0  0  0  0  0  0  0  0  0  0
   -0.7357  -13.7644   15.8161 H   0  0  0  0  0  0  0  0  0  0  0  0
  1  2  2  0
  2  3  1  0
  3  4  1  0
  4  5  1  0
  5  6  2  0
  6  7  1  0
  7  8  2  0
  8  9  1  0
  2 10  1  0
 10 11  2  0
 11 12  1  0
 12 13  1  0
 13 14  1  0
 13 15  2  0
  9  5  1  0
 15 10  1  0
  3 16  1  0
  4 17  1  0
  4 18  1  0
  6 19  1  0
  8 20  1  0
  9 21  1  0
 11 22  1  0
 12 23  1  0
 14 24  1  0
M  END
>  <Energy>  (456) 
-16.708039076741745

>  <compound_id>  (456) 
14307

>  <target_id>  (456) 
1

>  <reference_id>  (456) 
63

>  <inspiration_ids>  (456) 
[115, 63]

>  <energy_score>  (456) 
-22.992143562314396

>  <distance_score>  (456) 
16.64079497544105

>  <path>  (456) 
/opt/xchem-fragalysis-2/maxwin/BulkDock/SCRATCH/511013/C14307-P63/C14307-P63.minimised.mol

>  <scratch_subdir>  (456) 
/opt/xchem-fragalysis-2/maxwin/BulkDock/SCRATCH/511013/C14307-P63

>  <fragmenstein_runtime>  (456) 
14.164355754852295

>  <fragmenstein_outcome>  (456) 
too moved

>  <fragmenstein_mode>  (456) 
expansion

>  <fragmenstein_error>  (456) 


$$$$
C14308-P115
     RDKit          3D

 20 21  0  0  0  0  0  0  0  0999 V2000
    2.8867  -15.1654   23.4152 O   0  0  0  0  0  0  0  0  0  0  0  0
    2.1424  -14.2052   23.3653 C   0  0  0  0  0  0  0  0  0  0  0  0
    0.1615  -14.1973   23.5167 N   0  0  0  0  0  0  0  0  0  0  0  0
   -1.1819  -15.6857   23.6361 C   0  0  0  0  0  0  0  0  0  0  0  0
   -1.9858  -17.0343   24.7603 N   0  0  0  0  0  0  0  0  0  0  0  0
   -1.8412  -19.0691   24.1976 C   0  0  0  0  0  0  0  0  0  0  0  0
   -0.9488  -18.8175   22.5143 C   0  0  0  0  0  0  0  0  0  0  0  0
   -0.4590  -16.9285   22.1170 N   0  0  0  0  0  0  0  0  0  0  0  0
    3.1679  -12.6355   22.9129 C   0  0  0  0  0  0  0  0  0  0  0  0
    3.8719  -12.7546   21.5054 C   0  0  0  0  0  0  0  0  0  0  0  0
    4.8602  -11.7829   20.9546 N   0  0  0  0  0  0  0  0  0  0  0  0
    4.8475  -10.7986   21.8185 C   0  0  0  0  0  0  0  0  0  0  0  0
    3.6967  -11.0294   22.5518 N   0  0  0  0  0  0  0  0  0  0  0  0
   -0.1988  -13.2864   23.3810 H   0  0  0  0  0  0  0  0  0  0  0  0
   -2.0187  -19.8477   24.9430 H   0  0  0  0  0  0  0  0  0  0  0  0
   -0.3784  -19.4526   21.8456 H   0  0  0  0  0  0  0  0  0  0  0  0
   -0.8860  -16.6421   21.2522 H   0  0  0  0  0  0  0  0  0  0  0  0
    3.5335  -13.4963   20.8452 H   0  0  0  0  0  0  0  0  0  0  0  0
    5.3894   -9.8643   21.7853 H   0  0  0  0  0  0  0  0  0  0  0  0
    3.0425  -10.2746   22.6835 H   0  0  0  0  0  0  0  0  0  0  0  0
  1  2  2  0
  2  3  1  0
  3  4  1  0
  4  5  2  0
  5  6  1  0
  6  7  2  0
  7  8  1  0
  2  9  1  0
  9 10  2  0
 10 11  1  0
 11 12  2  0
 12 13  1  0
  8  4  1  0
 13  9  1  0
  3 14  1  0
  6 15  1  0
  7 16  1  0
  8 17  1  0
 10 18  1  0
 12 19  1  0
 13 20  1  0
M  END
>  <Energy>  (457) 
1138.4257808683303

>  <compound_id>  (457) 
14308

>  <target_id>  (457) 
1

>  <reference_id>  (457) 
115

>  <inspiration_ids>  (457) 
[115, 63]

>  <energy_score>  (457) 
1147.9472343369362

>  <distance_score>  (457) 
14.625591796979519

>  <path>  (457) 
/opt/xchem-fragalysis-2/maxwin/BulkDock/SCRATCH/511013/C14308-P115/C14308-P115.minimised.mol

>  <scratch_subdir>  (457) 
/opt/xchem-fragalysis-2/maxwin/BulkDock/SCRATCH/511013/C14308-P115

>  <fragmenstein_runtime>  (457) 
5.570942640304565

>  <fragmenstein_outcome>  (457) 
too moved

>  <fragmenstein_mode>  (457) 
expansion

>  <fragmenstein_error>  (457) 


$$$$
C14308-P63
     RDKit          3D

 20 21  0  0  0  0  0  0  0  0999 V2000
    6.2511  -11.1484   20.7891 O   0  0  0  0  0  0  0  0  0  0  0  0
    5.4864  -10.3561   21.2597 C   0  0  0  0  0  0  0  0  0  0  0  0
    4.3272  -10.5507   22.1299 N   0  0  0  0  0  0  0  0  0  0  0  0
    3.6951  -11.7570   22.6085 C   0  0  0  0  0  0  0  0  0  0  0  0
    3.4964  -12.9211   22.1199 N   0  0  0  0  0  0  0  0  0  0  0  0
    3.1380  -13.7386   23.3472 C   0  0  0  0  0  0  0  0  0  0  0  0
    2.5053  -12.9242   24.1709 C   0  0  0  0  0  0  0  0  0  0  0  0
    2.5600  -11.8321   23.4386 N   0  0  0  0  0  0  0  0  0  0  0  0
    5.6902   -8.9478   20.8832 C   0  0  0  0  0  0  0  0  0  0  0  0
    6.8833   -8.2490   20.7375 C   0  0  0  0  0  0  0  0  0  0  0  0
    6.6878   -6.9779   20.2384 N   0  0  0  0  0  0  0  0  0  0  0  0
    5.3975   -6.9103   20.0142 C   0  0  0  0  0  0  0  0  0  0  0  0
    4.7544   -8.0638   20.3878 N   0  0  0  0  0  0  0  0  0  0  0  0
    3.8630   -9.6650   22.2657 H   0  0  0  0  0  0  0  0  0  0  0  0
    3.3564  -14.7900   23.3635 H   0  0  0  0  0  0  0  0  0  0  0  0
    1.8955  -12.9991   25.0546 H   0  0  0  0  0  0  0  0  0  0  0  0
    1.7032  -11.3700   23.1887 H   0  0  0  0  0  0  0  0  0  0  0  0
    7.8785   -8.6167   20.9595 H   0  0  0  0  0  0  0  0  0  0  0  0
    4.8665   -6.0737   19.5792 H   0  0  0  0  0  0  0  0  0  0  0  0
    3.7763   -8.2733   20.2264 H   0  0  0  0  0  0  0  0  0  0  0  0
  1  2  2  0
  2  3  1  0
  3  4  1  0
  4  5  2  0
  5  6  1  0
  6  7  2  0
  7  8  1  0
  2  9  1  0
  9 10  2  0
 10 11  1  0
 11 12  2  0
 12 13  1  0
  8  4  1  0
 13  9  1  0
  3 14  1  0
  6 15  1  0
  7 16  1  0
  8 17  1  0
 10 18  1  0
 12 19  1  0
 13 20  1  0
M  END
>  <Energy>  (458) 
30.363450718768551

>  <compound_id>  (458) 
14308

>  <target_id>  (458) 
1

>  <reference_id>  (458) 
63

>  <inspiration_ids>  (458) 
[115, 63]

>  <energy_score>  (458) 
39.88490418737115

>  <distance_score>  (458) 
15.594418234968973

>  <path>  (458) 
/opt/xchem-fragalysis-2/maxwin/BulkDock/SCRATCH/511013/C14308-P63/C14308-P63.minimised.mol

>  <scratch_subdir>  (458) 
/opt/xchem-fragalysis-2/maxwin/BulkDock/SCRATCH/511013/C14308-P63

>  <fragmenstein_runtime>  (458) 
6.335102319717407

>  <fragmenstein_outcome>  (458) 
too moved

>  <fragmenstein_mode>  (458) 
expansion

>  <fragmenstein_error>  (458) 


$$$$
C14309-P115
     RDKit          3D

 30 32  0  0  0  0  0  0  0  0999 V2000
    1.9850  -11.7914   24.5633 O   0  0  0  0  0  0  0  0  0  0  0  0
    2.1992  -12.5453   23.7307 C   0  0  0  0  0  0  0  0  0  0  0  0
    0.9977  -13.9891   23.5816 N   0  0  0  0  0  0  0  0  0  0  0  0
   -0.4955  -14.3464   24.3917 C   0  0  0  0  0  0  0  0  0  0  0  0
   -1.4293  -15.2198   23.9720 N   0  0  0  0  0  0  0  0  0  0  0  0
   -2.4781  -15.4836   24.8452 C   0  0  0  0  0  0  0  0  0  0  0  0
   -2.2095  -14.8758   26.0929 C   0  0  0  0  0  0  0  0  0  0  0  0
   -2.1365  -15.9962   27.5663 C   0  0  0  0  0  0  0  0  0  0  0  0
   -2.3410  -17.4119   27.3169 C   0  0  0  0  0  0  0  0  0  0  0  0
   -2.2561  -18.4202   28.2870 C   0  0  0  0  0  0  0  0  0  0  0  0
   -2.0200  -18.0775   29.6016 C   0  0  0  0  0  0  0  0  0  0  0  0
   -1.9237  -16.7353   29.9242 C   0  0  0  0  0  0  0  0  0  0  0  0
   -2.0087  -15.7353   28.9296 C   0  0  0  0  0  0  0  0  0  0  0  0
   -1.4471  -13.8095   25.4306 N   0  0  0  0  0  0  0  0  0  0  0  0
    3.6674  -11.9089   22.6282 C   0  0  0  0  0  0  0  0  0  0  0  0
    5.0972  -10.8989   22.6287 C   0  0  0  0  0  0  0  0  0  0  0  0
    5.5826  -10.4355   21.4550 N   0  0  0  0  0  0  0  0  0  0  0  0
    4.5645   -9.6749   21.3328 C   0  0  0  0  0  0  0  0  0  0  0  0
    3.6582  -10.1528   22.2921 N   0  0  0  0  0  0  0  0  0  0  0  0
    1.3314  -14.6039   22.8906 H   0  0  0  0  0  0  0  0  0  0  0  0
   -3.2494  -16.2075   24.6462 H   0  0  0  0  0  0  0  0  0  0  0  0
   -2.5470  -17.7547   26.3089 H   0  0  0  0  0  0  0  0  0  0  0  0
   -2.3821  -19.4603   28.0017 H   0  0  0  0  0  0  0  0  0  0  0  0
   -1.9609  -18.8366   30.3752 H   0  0  0  0  0  0  0  0  0  0  0  0
   -1.8260  -16.4362   30.9662 H   0  0  0  0  0  0  0  0  0  0  0  0
   -2.1189  -14.7566   29.3442 H   0  0  0  0  0  0  0  0  0  0  0  0
   -1.8687  -12.9056   25.3359 H   0  0  0  0  0  0  0  0  0  0  0  0
    5.8316  -10.9614   23.4499 H   0  0  0  0  0  0  0  0  0  0  0  0
    4.3448   -8.8643   20.6515 H   0  0  0  0  0  0  0  0  0  0  0  0
    2.7234   -9.7807   22.2546 H   0  0  0  0  0  0  0  0  0  0  0  0
  1  2  2  0
  2  3  1  0
  3  4  1  0
  4  5  2  0
  5  6  1  0
  6  7  2  0
  7  8  1  0
  8  9  2  0
  9 10  1  0
 10 11  2  0
 11 12  1  0
 12 13  2  0
  7 14  1  0
  2 15  1  0
 15 16  2  0
 16 17  1  0
 17 18  2  0
 18 19  1  0
 14  4  1  0
 19 15  1  0
 13  8  1  0
  3 20  1  0
  6 21  1  0
  9 22  1  0
 10 23  1  0
 11 24  1  0
 12 25  1  0
 13 26  1  0
 14 27  1  0
 16 28  1  0
 18 29  1  0
 19 30  1  0
M  END
>  <Energy>  (459) 
481.01871164087947

>  <compound_id>  (459) 
14309

>  <target_id>  (459) 
1

>  <reference_id>  (459) 
115

>  <inspiration_ids>  (459) 
[115, 63]

>  <energy_score>  (459) 
467.92366105560376

>  <distance_score>  (459) 
14.559305272338932

>  <path>  (459) 
/opt/xchem-fragalysis-2/maxwin/BulkDock/SCRATCH/511013/C14309-P115/C14309-P115.minimised.mol

>  <scratch_subdir>  (459) 
/opt/xchem-fragalysis-2/maxwin/BulkDock/SCRATCH/511013/C14309-P115

>  <fragmenstein_runtime>  (459) 
11.481223106384277

>  <fragmenstein_outcome>  (459) 
too moved

>  <fragmenstein_mode>  (459) 
expansion

>  <fragmenstein_error>  (459) 


$$$$
C14309-P63
     RDKit          3D

 30 32  0  0  0  0  0  0  0  0999 V2000
    1.3344  -14.8649   23.1425 O   0  0  0  0  0  0  0  0  0  0  0  0
    0.7729  -14.1359   23.9319 C   0  0  0  0  0  0  0  0  0  0  0  0
   -0.9624  -14.3164   24.6783 N   0  0  0  0  0  0  0  0  0  0  0  0
   -2.2107  -15.6514   24.5593 C   0  0  0  0  0  0  0  0  0  0  0  0
   -2.1984  -16.9598   25.2239 N   0  0  0  0  0  0  0  0  0  0  0  0
   -2.7096  -17.1806   26.4666 C   0  0  0  0  0  0  0  0  0  0  0  0
   -3.9443  -17.4841   25.9829 C   0  0  0  0  0  0  0  0  0  0  0  0
   -4.1452  -19.0618   26.0701 C   0  0  0  0  0  0  0  0  0  0  0  0
   -3.5460  -19.7026   27.1828 C   0  0  0  0  0  0  0  0  0  0  0  0
   -3.1765  -21.0611   27.2274 C   0  0  0  0  0  0  0  0  0  0  0  0
   -3.3579  -21.8586   26.1166 C   0  0  0  0  0  0  0  0  0  0  0  0
   -3.9113  -21.2856   24.9876 C   0  0  0  0  0  0  0  0  0  0  0  0
   -4.3165  -19.9290   24.9902 C   0  0  0  0  0  0  0  0  0  0  0  0
   -3.7955  -16.2289   24.7989 N   0  0  0  0  0  0  0  0  0  0  0  0
    1.9007  -12.9226   24.4153 C   0  0  0  0  0  0  0  0  0  0  0  0
    1.9492  -11.8426   23.6018 C   0  0  0  0  0  0  0  0  0  0  0  0
    3.0262  -11.4779   22.9156 N   0  0  0  0  0  0  0  0  0  0  0  0
    3.3806  -12.6555   22.7525 C   0  0  0  0  0  0  0  0  0  0  0  0
    3.1930  -13.3223   23.9289 N   0  0  0  0  0  0  0  0  0  0  0  0
   -1.1910  -13.5097   25.2441 H   0  0  0  0  0  0  0  0  0  0  0  0
   -2.1014  -17.5960   27.2584 H   0  0  0  0  0  0  0  0  0  0  0  0
   -3.2718  -19.1042   28.0500 H   0  0  0  0  0  0  0  0  0  0  0  0
   -2.7071  -21.4664   28.1192 H   0  0  0  0  0  0  0  0  0  0  0  0
   -3.0606  -22.9023   26.1172 H   0  0  0  0  0  0  0  0  0  0  0  0
   -4.0565  -21.8845   24.0902 H   0  0  0  0  0  0  0  0  0  0  0  0
   -4.7344  -19.5576   24.0574 H   0  0  0  0  0  0  0  0  0  0  0  0
   -4.4272  -16.2233   24.0193 H   0  0  0  0  0  0  0  0  0  0  0  0
    1.0253  -11.5577   23.0714 H   0  0  0  0  0  0  0  0  0  0  0  0
    3.6198  -13.0140   21.7396 H   0  0  0  0  0  0  0  0  0  0  0  0
    3.4801  -14.2824   23.9567 H   0  0  0  0  0  0  0  0  0  0  0  0
  1  2  2  0
  2  3  1  0
  3  4  1  0
  4  5  2  0
  5  6  1  0
  6  7  2  0
  7  8  1  0
  8  9  2  0
  9 10  1  0
 10 11  2  0
 11 12  1  0
 12 13  2  0
  7 14  1  0
  2 15  1  0
 15 16  2  0
 16 17  1  0
 17 18  2  0
 18 19  1  0
 14  4  1  0
 19 15  1  0
 13  8  1  0
  3 20  1  0
  6 21  1  0
  9 22  1  0
 10 23  1  0
 11 24  1  0
 12 25  1  0
 13 26  1  0
 14 27  1  0
 16 28  1  0
 18 29  1  0
 19 30  1  0
M  END
>  <Energy>  (460) 
504.75462484318001

>  <compound_id>  (460) 
14309

>  <target_id>  (460) 
1

>  <reference_id>  (460) 
63

>  <inspiration_ids>  (460) 
[115, 63]

>  <energy_score>  (460) 
491.6595742579029

>  <distance_score>  (460) 
14.963554311158816

>  <path>  (460) 
/opt/xchem-fragalysis-2/maxwin/BulkDock/SCRATCH/511013/C14309-P63/C14309-P63.minimised.mol

>  <scratch_subdir>  (460) 
/opt/xchem-fragalysis-2/maxwin/BulkDock/SCRATCH/511013/C14309-P63

>  <fragmenstein_runtime>  (460) 
9.214325904846191

>  <fragmenstein_outcome>  (460) 
too moved

>  <fragmenstein_mode>  (460) 
expansion

>  <fragmenstein_error>  (460) 


$$$$
C35552-P59
     RDKit          3D

 44 45  0  0  0  0  0  0  0  0999 V2000
  -11.7147  -14.4766   26.9010 C   0  0  0  0  0  0  0  0  0  0  0  0
  -10.3803  -13.9929   26.4744 C   0  0  0  0  0  0  0  0  0  0  0  0
   -9.8950  -14.4634   25.3179 N   0  0  0  0  0  0  0  0  0  0  0  0
   -8.5836  -14.0458   25.2739 O   0  0  0  0  0  0  0  0  0  0  0  0
   -8.2944  -13.3180   26.3786 C   0  0  0  0  0  0  0  0  0  0  0  0
   -9.4151  -13.1524   27.1642 C   0  0  0  0  0  0  0  0  0  0  0  0
   -9.4631  -12.8628   28.9011 C   0  0  0  0  0  0  0  0  0  0  0  0
   -9.5549  -13.9670   29.4924 O   0  0  0  0  0  0  0  0  0  0  0  0
   -9.5390  -10.8464   29.9205 N   0  0  0  0  0  0  0  0  0  0  0  0
   -9.8717  -10.3167   31.7560 C   0  0  0  0  0  0  0  0  0  0  0  0
  -10.0944   -8.8208   33.2761 C   0  0  0  0  0  0  0  0  0  0  0  0
   -9.4812   -7.2730   34.3153 N   0  0  0  0  0  0  0  0  0  0  0  0
   -7.8874   -6.3633   34.3562 C   0  0  0  0  0  0  0  0  0  0  0  0
   -7.1226   -6.7104   33.5731 O   0  0  0  0  0  0  0  0  0  0  0  0
   -7.1619   -4.7887   35.3368 C   0  0  0  0  0  0  0  0  0  0  0  0
   -7.7212   -2.9982   35.7810 C   0  0  0  0  0  0  0  0  0  0  0  0
   -6.7956   -2.0042   35.5021 C   0  0  0  0  0  0  0  0  0  0  0  0
   -5.6782   -2.6633   35.1247 N   0  0  0  0  0  0  0  0  0  0  0  0
   -5.7874   -4.0794   35.0479 N   0  0  0  0  0  0  0  0  0  0  0  0
  -10.9642   -8.9584   30.5065 C   0  0  0  0  0  0  0  0  0  0  0  0
  -12.1890   -9.3605   29.5104 C   0  0  0  0  0  0  0  0  0  0  0  0
  -10.1974   -8.0121   29.4165 C   0  0  0  0  0  0  0  0  0  0  0  0
  -11.8499   -7.8098   31.2879 C   0  0  0  0  0  0  0  0  0  0  0  0
  -11.7105  -15.5624   26.9976 H   0  0  0  0  0  0  0  0  0  0  0  0
  -12.4734  -14.2013   26.1609 H   0  0  0  0  0  0  0  0  0  0  0  0
  -12.0194  -14.0500   27.8591 H   0  0  0  0  0  0  0  0  0  0  0  0
   -7.2589  -13.0424   26.4796 H   0  0  0  0  0  0  0  0  0  0  0  0
   -9.3591  -10.0658   29.2572 H   0  0  0  0  0  0  0  0  0  0  0  0
   -8.8383  -10.5973   31.8451 H   0  0  0  0  0  0  0  0  0  0  0  0
  -11.1279   -8.4932   33.2284 H   0  0  0  0  0  0  0  0  0  0  0  0
  -10.2922   -9.4233   34.1598 H   0  0  0  0  0  0  0  0  0  0  0  0
  -10.0435   -6.9507   35.0897 H   0  0  0  0  0  0  0  0  0  0  0  0
   -8.7612   -2.7478   36.0272 H   0  0  0  0  0  0  0  0  0  0  0  0
   -6.8479   -0.9257   35.5495 H   0  0  0  0  0  0  0  0  0  0  0  0
   -4.7697   -2.2859   34.8725 H   0  0  0  0  0  0  0  0  0  0  0  0
  -12.8410   -8.4986   29.2986 H   0  0  0  0  0  0  0  0  0  0  0  0
  -11.8514   -9.6063   28.5013 H   0  0  0  0  0  0  0  0  0  0  0  0
  -12.9054  -10.1070   29.8582 H   0  0  0  0  0  0  0  0  0  0  0  0
   -9.3061   -8.3949   28.9236 H   0  0  0  0  0  0  0  0  0  0  0  0
  -10.8573   -7.6801   28.6038 H   0  0  0  0  0  0  0  0  0  0  0  0
   -9.9361   -7.0943   29.9142 H   0  0  0  0  0  0  0  0  0  0  0  0
  -11.2783   -7.1941   31.9680 H   0  0  0  0  0  0  0  0  0  0  0  0
  -12.2492   -7.0717   30.5762 H   0  0  0  0  0  0  0  0  0  0  0  0
  -12.7271   -8.2097   31.8066 H   0  0  0  0  0  0  0  0  0  0  0  0
  1  2  1  0
  2  3  2  0
  3  4  1  0
  4  5  1  0
  5  6  2  0
  6  7  1  0
  7  8  2  0
  7  9  1  0
  9 10  1  0
 10 11  1  0
 11 12  1  0
 12 13  1  0
 13 14  2  0
 13 15  1  0
 15 16  1  0
 16 17  2  0
 17 18  1  0
 18 19  1  0
 10 20  1  0
 20 21  1  0
 20 22  1  0
 20 23  1  0
  6  2  1  0
 19 15  2  0
  1 24  1  0
  1 25  1  0
  1 26  1  0
  5 27  1  0
  9 28  1  0
 10 29  1  0
 11 30  1  0
 11 31  1  0
 12 32  1  0
 16 33  1  0
 17 34  1  0
 18 35  1  0
 21 36  1  0
 21 37  1  0
 21 38  1  0
 22 39  1  0
 22 40  1  0
 22 41  1  0
 23 42  1  0
 23 43  1  0
 23 44  1  0
M  END
>  <Energy>  (461) 
1216.5754430038655

>  <compound_id>  (461) 
35552

>  <target_id>  (461) 
1

>  <reference_id>  (461) 
59

>  <inspiration_ids>  (461) 
[59, 96]

>  <energy_score>  (461) 
1139.5449772426518

>  <distance_score>  (461) 
9.818582574511076

>  <path>  (461) 
/opt/xchem-fragalysis-2/maxwin/BulkDock/SCRATCH/511013/C35552-P59/C35552-P59.minimised.mol

>  <scratch_subdir>  (461) 
/opt/xchem-fragalysis-2/maxwin/BulkDock/SCRATCH/511013/C35552-P59

>  <fragmenstein_runtime>  (461) 
25.147167682647705

>  <fragmenstein_outcome>  (461) 
too moved

>  <fragmenstein_mode>  (461) 
expansion

>  <fragmenstein_error>  (461) 


$$$$
C35552-P96
     RDKit          3D

 44 45  0  0  0  0  0  0  0  0999 V2000
   -5.5745  -14.5381   31.6263 C   0  0  0  0  0  0  0  0  0  0  0  0
   -6.1164  -13.5493   32.5907 C   0  0  0  0  0  0  0  0  0  0  0  0
   -7.2647  -14.0049   33.0527 N   0  0  0  0  0  0  0  0  0  0  0  0
   -7.2342  -13.6008   34.3048 O   0  0  0  0  0  0  0  0  0  0  0  0
   -6.0691  -12.9911   34.6061 C   0  0  0  0  0  0  0  0  0  0  0  0
   -5.0874  -12.2338   33.5832 C   0  0  0  0  0  0  0  0  0  0  0  0
   -3.5732  -11.1809   33.1911 C   0  0  0  0  0  0  0  0  0  0  0  0
   -2.6556  -11.8519   32.7744 O   0  0  0  0  0  0  0  0  0  0  0  0
   -3.6274   -9.4466   33.2786 N   0  0  0  0  0  0  0  0  0  0  0  0
   -2.4617   -8.1662   32.6589 C   0  0  0  0  0  0  0  0  0  0  0  0
   -3.3269   -6.6526   32.8692 C   0  0  0  0  0  0  0  0  0  0  0  0
   -2.3766   -5.4669   32.7589 N   0  0  0  0  0  0  0  0  0  0  0  0
   -2.6134   -4.0799   32.8363 C   0  0  0  0  0  0  0  0  0  0  0  0
   -3.5960   -3.4861   33.0860 O   0  0  0  0  0  0  0  0  0  0  0  0
   -1.4753   -3.1458   32.4414 C   0  0  0  0  0  0  0  0  0  0  0  0
   -0.1054   -3.3265   32.1554 C   0  0  0  0  0  0  0  0  0  0  0  0
    0.4040   -2.1016   31.7920 C   0  0  0  0  0  0  0  0  0  0  0  0
   -0.6303   -1.2379   31.9068 N   0  0  0  0  0  0  0  0  0  0  0  0
   -1.7325   -1.8165   32.3868 N   0  0  0  0  0  0  0  0  0  0  0  0
   -2.2605   -7.5001   30.8413 C   0  0  0  0  0  0  0  0  0  0  0  0
   -3.6088   -7.3796   30.0021 C   0  0  0  0  0  0  0  0  0  0  0  0
   -1.9037   -5.9844   30.3421 C   0  0  0  0  0  0  0  0  0  0  0  0
   -1.0803   -8.2466   30.0618 C   0  0  0  0  0  0  0  0  0  0  0  0
   -5.9922  -15.5348   31.8069 H   0  0  0  0  0  0  0  0  0  0  0  0
   -5.7245  -14.4004   30.5782 H   0  0  0  0  0  0  0  0  0  0  0  0
   -4.4961  -14.4629   31.7221 H   0  0  0  0  0  0  0  0  0  0  0  0
   -6.0702  -13.2921   35.5850 H   0  0  0  0  0  0  0  0  0  0  0  0
   -4.4620   -9.1653   33.7360 H   0  0  0  0  0  0  0  0  0  0  0  0
   -1.4924   -8.4027   33.0945 H   0  0  0  0  0  0  0  0  0  0  0  0
   -3.9734   -6.5914   33.7581 H   0  0  0  0  0  0  0  0  0  0  0  0
   -4.0898   -6.4695   32.1210 H   0  0  0  0  0  0  0  0  0  0  0  0
   -1.4405   -5.6188   32.4409 H   0  0  0  0  0  0  0  0  0  0  0  0
    0.4863   -4.2141   32.1971 H   0  0  0  0  0  0  0  0  0  0  0  0
    1.3873   -1.7882   31.4716 H   0  0  0  0  0  0  0  0  0  0  0  0
   -0.6508   -0.2399   31.7194 H   0  0  0  0  0  0  0  0  0  0  0  0
   -3.7116   -6.4773   29.3956 H   0  0  0  0  0  0  0  0  0  0  0  0
   -4.5710   -7.2886   30.5084 H   0  0  0  0  0  0  0  0  0  0  0  0
   -3.6201   -8.1992   29.2994 H   0  0  0  0  0  0  0  0  0  0  0  0
   -1.0330   -5.4962   30.7106 H   0  0  0  0  0  0  0  0  0  0  0  0
   -2.7167   -5.2573   30.4804 H   0  0  0  0  0  0  0  0  0  0  0  0
   -1.7221   -5.9862   29.2520 H   0  0  0  0  0  0  0  0  0  0  0  0
   -0.6279   -9.0413   30.6675 H   0  0  0  0  0  0  0  0  0  0  0  0
   -1.3974   -8.6403   29.0845 H   0  0  0  0  0  0  0  0  0  0  0  0
   -0.2782   -7.5932   29.7616 H   0  0  0  0  0  0  0  0  0  0  0  0
  1  2  1  0
  2  3  2  0
  3  4  1  0
  4  5  1  0
  5  6  2  0
  6  7  1  0
  7  8  2  0
  7  9  1  0
  9 10  1  0
 10 11  1  0
 11 12  1  0
 12 13  1  0
 13 14  2  0
 13 15  1  0
 15 16  1  0
 16 17  2  0
 17 18  1  0
 18 19  1  0
 10 20  1  0
 20 21  1  0
 20 22  1  0
 20 23  1  0
  6  2  1  0
 19 15  2  0
  1 24  1  0
  1 25  1  0
  1 26  1  0
  5 27  1  0
  9 28  1  0
 10 29  1  0
 11 30  1  0
 11 31  1  0
 12 32  1  0
 16 33  1  0
 17 34  1  0
 18 35  1  0
 21 36  1  0
 21 37  1  0
 21 38  1  0
 22 39  1  0
 22 40  1  0
 22 41  1  0
 23 42  1  0
 23 43  1  0
 23 44  1  0
M  END
>  <Energy>  (462) 
495.18364117461454

>  <compound_id>  (462) 
35552

>  <target_id>  (462) 
1

>  <reference_id>  (462) 
96

>  <inspiration_ids>  (462) 
[59, 96]

>  <energy_score>  (462) 
418.15317541341363

>  <distance_score>  (462) 
8.495441868708555

>  <path>  (462) 
/opt/xchem-fragalysis-2/maxwin/BulkDock/SCRATCH/511013/C35552-P96/C35552-P96.minimised.mol

>  <scratch_subdir>  (462) 
/opt/xchem-fragalysis-2/maxwin/BulkDock/SCRATCH/511013/C35552-P96

>  <fragmenstein_runtime>  (462) 
11.766265153884888

>  <fragmenstein_outcome>  (462) 
too moved

>  <fragmenstein_mode>  (462) 
expansion

>  <fragmenstein_error>  (462) 


$$$$
C35553-P59
     RDKit          3D

 50 51  0  0  0  0  0  0  0  0999 V2000
   -7.5674  -16.2097   28.2495 C   0  0  0  0  0  0  0  0  0  0  0  0
   -5.9357  -15.7999   29.3786 C   0  0  0  0  0  0  0  0  0  0  0  0
   -4.0841  -16.0663   29.6132 C   0  0  0  0  0  0  0  0  0  0  0  0
   -6.0377  -14.3315   30.1207 C   0  0  0  0  0  0  0  0  0  0  0  0
   -6.1202  -14.7949   31.3556 O   0  0  0  0  0  0  0  0  0  0  0  0
   -7.3744  -14.2917   31.6062 N   0  0  0  0  0  0  0  0  0  0  0  0
   -6.8997  -13.1100   31.4634 C   0  0  0  0  0  0  0  0  0  0  0  0
   -5.8592  -12.7644   29.9296 C   0  0  0  0  0  0  0  0  0  0  0  0
   -6.0753  -10.9356   30.7934 C   0  0  0  0  0  0  0  0  0  0  0  0
   -5.7699  -11.0126   31.9705 O   0  0  0  0  0  0  0  0  0  0  0  0
   -6.5613   -9.0891   30.2640 N   0  0  0  0  0  0  0  0  0  0  0  0
   -6.7755   -7.3232   31.3478 C   0  0  0  0  0  0  0  0  0  0  0  0
   -5.9363   -5.7681   31.8902 C   0  0  0  0  0  0  0  0  0  0  0  0
   -4.9337   -3.9814   31.9161 N   0  0  0  0  0  0  0  0  0  0  0  0
   -4.6703   -2.9746   33.0561 C   0  0  0  0  0  0  0  0  0  0  0  0
   -5.0642   -2.9588   34.2059 O   0  0  0  0  0  0  0  0  0  0  0  0
   -3.6759   -1.9316   32.5988 C   0  0  0  0  0  0  0  0  0  0  0  0
   -2.7002   -2.0330   31.5541 C   0  0  0  0  0  0  0  0  0  0  0  0
   -1.9177   -0.9095   31.6491 C   0  0  0  0  0  0  0  0  0  0  0  0
   -2.3906   -0.2357   32.7279 N   0  0  0  0  0  0  0  0  0  0  0  0
   -3.5171   -0.7536   33.2378 N   0  0  0  0  0  0  0  0  0  0  0  0
   -8.6505   -7.0052   32.1952 C   0  0  0  0  0  0  0  0  0  0  0  0
  -10.3742   -7.5683   32.8763 C   0  0  0  0  0  0  0  0  0  0  0  0
   -9.6664   -7.0334   30.4242 C   0  0  0  0  0  0  0  0  0  0  0  0
   -8.5663   -6.9331   33.8952 C   0  0  0  0  0  0  0  0  0  0  0  0
   -8.0315  -17.2124   28.3146 H   0  0  0  0  0  0  0  0  0  0  0  0
   -8.1344  -15.2471   28.2583 H   0  0  0  0  0  0  0  0  0  0  0  0
   -7.9503  -16.2128   27.2072 H   0  0  0  0  0  0  0  0  0  0  0  0
   -6.0073  -16.6218   30.0805 H   0  0  0  0  0  0  0  0  0  0  0  0
   -3.5906  -16.4296   28.7030 H   0  0  0  0  0  0  0  0  0  0  0  0
   -3.4879  -15.1752   29.9133 H   0  0  0  0  0  0  0  0  0  0  0  0
   -3.8442  -16.5623   30.5493 H   0  0  0  0  0  0  0  0  0  0  0  0
   -7.2157  -12.3625   32.2032 H   0  0  0  0  0  0  0  0  0  0  0  0
   -6.8880   -9.1185   29.2874 H   0  0  0  0  0  0  0  0  0  0  0  0
   -6.9587   -6.8236   30.3014 H   0  0  0  0  0  0  0  0  0  0  0  0
   -6.1414   -5.5759   30.7111 H   0  0  0  0  0  0  0  0  0  0  0  0
   -6.6915   -5.8768   32.7380 H   0  0  0  0  0  0  0  0  0  0  0  0
   -4.5289   -3.6481   31.0944 H   0  0  0  0  0  0  0  0  0  0  0  0
   -2.5309   -2.8348   30.8540 H   0  0  0  0  0  0  0  0  0  0  0  0
   -1.0517   -0.5731   31.0960 H   0  0  0  0  0  0  0  0  0  0  0  0
   -2.0081    0.5967   33.1638 H   0  0  0  0  0  0  0  0  0  0  0  0
  -10.3655   -8.4118   33.5768 H   0  0  0  0  0  0  0  0  0  0  0  0
  -11.1405   -7.8365   32.1391 H   0  0  0  0  0  0  0  0  0  0  0  0
  -10.9407   -6.7960   33.3953 H   0  0  0  0  0  0  0  0  0  0  0  0
  -10.7386   -7.2737   30.5221 H   0  0  0  0  0  0  0  0  0  0  0  0
   -9.3386   -7.7671   29.6565 H   0  0  0  0  0  0  0  0  0  0  0  0
   -9.6891   -6.1540   29.7574 H   0  0  0  0  0  0  0  0  0  0  0  0
   -7.7490   -6.3208   34.2273 H   0  0  0  0  0  0  0  0  0  0  0  0
   -8.6235   -7.8100   34.5121 H   0  0  0  0  0  0  0  0  0  0  0  0
   -9.3869   -6.4987   34.4861 H   0  0  0  0  0  0  0  0  0  0  0  0
  1  2  1  0
  2  3  1  0
  2  4  1  0
  4  5  1  0
  5  6  1  0
  6  7  2  0
  7  8  1  0
  8  9  1  0
  9 10  2  0
  9 11  1  0
 11 12  1  0
 12 13  1  0
 13 14  1  0
 14 15  1  0
 15 16  2  0
 15 17  1  0
 17 18  1  0
 18 19  2  0
 19 20  1  0
 20 21  1  0
 12 22  1  0
 22 23  1  0
 22 24  1  0
 22 25  1  0
  8  4  2  0
 21 17  2  0
  1 26  1  0
  1 27  1  0
  1 28  1  0
  2 29  1  0
  3 30  1  0
  3 31  1  0
  3 32  1  0
  7 33  1  0
 11 34  1  0
 12 35  1  0
 13 36  1  0
 13 37  1  0
 14 38  1  0
 18 39  1  0
 19 40  1  0
 20 41  1  0
 23 42  1  0
 23 43  1  0
 23 44  1  0
 24 45  1  0
 24 46  1  0
 24 47  1  0
 25 48  1  0
 25 49  1  0
 25 50  1  0
M  END
>  <Energy>  (463) 
1335.7168864504076

>  <compound_id>  (463) 
35553

>  <target_id>  (463) 
1

>  <reference_id>  (463) 
59

>  <inspiration_ids>  (463) 
[59, 96]

>  <energy_score>  (463) 
1250.7534474392735

>  <distance_score>  (463) 
7.709708159181122

>  <path>  (463) 
/opt/xchem-fragalysis-2/maxwin/BulkDock/SCRATCH/511013/C35553-P59/C35553-P59.minimised.mol

>  <scratch_subdir>  (463) 
/opt/xchem-fragalysis-2/maxwin/BulkDock/SCRATCH/511013/C35553-P59

>  <fragmenstein_runtime>  (463) 
29.216030836105347

>  <fragmenstein_outcome>  (463) 
too moved

>  <fragmenstein_mode>  (463) 
expansion

>  <fragmenstein_error>  (463) 


$$$$
C35553-P96
     RDKit          3D

 50 51  0  0  0  0  0  0  0  0999 V2000
  -13.5055  -13.9895   31.2335 C   0  0  0  0  0  0  0  0  0  0  0  0
  -12.6294  -14.4136   30.0575 C   0  0  0  0  0  0  0  0  0  0  0  0
  -13.4047  -15.3744   29.1283 C   0  0  0  0  0  0  0  0  0  0  0  0
  -11.1439  -14.6889   30.5256 C   0  0  0  0  0  0  0  0  0  0  0  0
  -10.5099  -16.4626   29.7782 O   0  0  0  0  0  0  0  0  0  0  0  0
   -9.7042  -17.3346   31.7147 N   0  0  0  0  0  0  0  0  0  0  0  0
   -9.4126  -15.7756   32.7498 C   0  0  0  0  0  0  0  0  0  0  0  0
   -9.9176  -14.0026   31.8603 C   0  0  0  0  0  0  0  0  0  0  0  0
   -8.7668  -12.3630   31.4462 C   0  0  0  0  0  0  0  0  0  0  0  0
   -7.8602  -12.6844   30.7610 O   0  0  0  0  0  0  0  0  0  0  0  0
   -8.8502  -10.3662   31.7472 N   0  0  0  0  0  0  0  0  0  0  0  0
   -7.6304   -8.7588   31.1106 C   0  0  0  0  0  0  0  0  0  0  0  0
   -6.7258   -8.4655   29.8482 C   0  0  0  0  0  0  0  0  0  0  0  0
   -5.6395   -7.0080   29.6922 N   0  0  0  0  0  0  0  0  0  0  0  0
   -4.0505   -6.8946   29.6977 C   0  0  0  0  0  0  0  0  0  0  0  0
   -3.2190   -7.7326   29.8871 O   0  0  0  0  0  0  0  0  0  0  0  0
   -3.3831   -5.5380   29.5113 C   0  0  0  0  0  0  0  0  0  0  0  0
   -2.7118   -4.7728   30.5249 C   0  0  0  0  0  0  0  0  0  0  0  0
   -1.8897   -3.8926   29.8670 C   0  0  0  0  0  0  0  0  0  0  0  0
   -1.9609   -4.2488   28.5567 N   0  0  0  0  0  0  0  0  0  0  0  0
   -2.9135   -5.1680   28.3023 N   0  0  0  0  0  0  0  0  0  0  0  0
   -6.3478   -7.3775   32.0921 C   0  0  0  0  0  0  0  0  0  0  0  0
   -6.5556   -7.0317   33.7802 C   0  0  0  0  0  0  0  0  0  0  0  0
   -5.9728   -6.1225   31.5383 C   0  0  0  0  0  0  0  0  0  0  0  0
   -4.5223   -7.2159   32.7360 C   0  0  0  0  0  0  0  0  0  0  0  0
  -14.4239  -13.5092   30.8795 H   0  0  0  0  0  0  0  0  0  0  0  0
  -13.7950  -14.8513   31.8434 H   0  0  0  0  0  0  0  0  0  0  0  0
  -12.9973  -13.2934   31.9041 H   0  0  0  0  0  0  0  0  0  0  0  0
  -12.4969  -13.6544   29.3069 H   0  0  0  0  0  0  0  0  0  0  0  0
  -12.8865  -16.2979   28.8876 H   0  0  0  0  0  0  0  0  0  0  0  0
  -14.4065  -15.6037   29.5080 H   0  0  0  0  0  0  0  0  0  0  0  0
  -13.5866  -14.8885   28.1587 H   0  0  0  0  0  0  0  0  0  0  0  0
   -8.6309  -15.8809   33.4996 H   0  0  0  0  0  0  0  0  0  0  0  0
   -9.5616  -10.1819   32.3788 H   0  0  0  0  0  0  0  0  0  0  0  0
   -8.5270   -8.2408   30.7612 H   0  0  0  0  0  0  0  0  0  0  0  0
   -7.4083   -8.2542   29.0151 H   0  0  0  0  0  0  0  0  0  0  0  0
   -6.0783   -9.3191   29.6646 H   0  0  0  0  0  0  0  0  0  0  0  0
   -6.0454   -6.1128   29.4076 H   0  0  0  0  0  0  0  0  0  0  0  0
   -2.7696   -4.9074   31.5933 H   0  0  0  0  0  0  0  0  0  0  0  0
   -1.1734   -3.1614   30.2139 H   0  0  0  0  0  0  0  0  0  0  0  0
   -1.3775   -3.9314   27.7864 H   0  0  0  0  0  0  0  0  0  0  0  0
   -5.7315   -6.3913   34.1744 H   0  0  0  0  0  0  0  0  0  0  0  0
   -6.7749   -6.0602   34.1975 H   0  0  0  0  0  0  0  0  0  0  0  0
   -7.0895   -7.8118   34.3113 H   0  0  0  0  0  0  0  0  0  0  0  0
   -6.7834   -5.7875   30.8703 H   0  0  0  0  0  0  0  0  0  0  0  0
   -5.6838   -5.3827   32.3271 H   0  0  0  0  0  0  0  0  0  0  0  0
   -4.9792   -6.1582   31.2078 H   0  0  0  0  0  0  0  0  0  0  0  0
   -4.3113   -6.3037   33.3259 H   0  0  0  0  0  0  0  0  0  0  0  0
   -4.1068   -8.0573   33.2972 H   0  0  0  0  0  0  0  0  0  0  0  0
   -3.7152   -6.9891   32.0181 H   0  0  0  0  0  0  0  0  0  0  0  0
  1  2  1  0
  2  3  1  0
  2  4  1  0
  4  5  1  0
  5  6  1  0
  6  7  2  0
  7  8  1  0
  8  9  1  0
  9 10  2  0
  9 11  1  0
 11 12  1  0
 12 13  1  0
 13 14  1  0
 14 15  1  0
 15 16  2  0
 15 17  1  0
 17 18  1  0
 18 19  2  0
 19 20  1  0
 20 21  1  0
 12 22  1  0
 22 23  1  0
 22 24  1  0
 22 25  1  0
  8  4  2  0
 21 17  2  0
  1 26  1  0
  1 27  1  0
  1 28  1  0
  2 29  1  0
  3 30  1  0
  3 31  1  0
  3 32  1  0
  7 33  1  0
 11 34  1  0
 12 35  1  0
 13 36  1  0
 13 37  1  0
 14 38  1  0
 18 39  1  0
 19 40  1  0
 20 41  1  0
 23 42  1  0
 23 43  1  0
 23 44  1  0
 24 45  1  0
 24 46  1  0
 24 47  1  0
 25 48  1  0
 25 49  1  0
 25 50  1  0
M  END
>  <Energy>  (464) 
1639.9056847537877

>  <compound_id>  (464) 
35553

>  <target_id>  (464) 
1

>  <reference_id>  (464) 
96

>  <inspiration_ids>  (464) 
[59, 96]

>  <energy_score>  (464) 
1554.9422457426817

>  <distance_score>  (464) 
7.579466142025652

>  <path>  (464) 
/opt/xchem-fragalysis-2/maxwin/BulkDock/SCRATCH/511013/C35553-P96/C35553-P96.minimised.mol

>  <scratch_subdir>  (464) 
/opt/xchem-fragalysis-2/maxwin/BulkDock/SCRATCH/511013/C35553-P96

>  <fragmenstein_runtime>  (464) 
23.30237913131714

>  <fragmenstein_outcome>  (464) 
too moved

>  <fragmenstein_mode>  (464) 
expansion

>  <fragmenstein_error>  (464) 


$$$$
C35554-P59
     RDKit          3D

 50 51  0  0  0  0  0  0  0  0999 V2000
   -7.3535  -16.2735   28.3897 C   0  0  0  0  0  0  0  0  0  0  0  0
   -5.9967  -15.6193   29.6202 C   0  0  0  0  0  0  0  0  0  0  0  0
   -4.1581  -16.0682   29.6527 C   0  0  0  0  0  0  0  0  0  0  0  0
   -5.9126  -14.1667   30.7001 C   0  0  0  0  0  0  0  0  0  0  0  0
   -5.2134  -15.0044   31.4783 N   0  0  0  0  0  0  0  0  0  0  0  0
   -6.3387  -15.4178   32.0107 O   0  0  0  0  0  0  0  0  0  0  0  0
   -7.3809  -14.1368   31.6875 C   0  0  0  0  0  0  0  0  0  0  0  0
   -6.4413  -13.2137   32.1804 C   0  0  0  0  0  0  0  0  0  0  0  0
   -6.2521  -11.3756   32.1548 C   0  0  0  0  0  0  0  0  0  0  0  0
   -6.3516  -11.0149   30.9359 O   0  0  0  0  0  0  0  0  0  0  0  0
   -6.2158   -9.8866   33.5341 N   0  0  0  0  0  0  0  0  0  0  0  0
   -6.6000   -7.7022   33.3491 C   0  0  0  0  0  0  0  0  0  0  0  0
   -6.5656   -5.8179   34.3289 C   0  0  0  0  0  0  0  0  0  0  0  0
   -5.5369   -4.1347   34.6729 N   0  0  0  0  0  0  0  0  0  0  0  0
   -4.8709   -3.0507   33.6194 C   0  0  0  0  0  0  0  0  0  0  0  0
   -4.8902   -3.0275   32.4017 O   0  0  0  0  0  0  0  0  0  0  0  0
   -4.1848   -1.9243   34.3052 C   0  0  0  0  0  0  0  0  0  0  0  0
   -3.3809   -0.9500   33.6404 C   0  0  0  0  0  0  0  0  0  0  0  0
   -2.9102   -0.1294   34.6303 C   0  0  0  0  0  0  0  0  0  0  0  0
   -3.4297   -0.6199   35.7918 N   0  0  0  0  0  0  0  0  0  0  0  0
   -4.2237   -1.6984   35.6310 N   0  0  0  0  0  0  0  0  0  0  0  0
   -8.5123   -7.6024   34.3272 C   0  0  0  0  0  0  0  0  0  0  0  0
   -9.9704   -7.5722   33.6204 C   0  0  0  0  0  0  0  0  0  0  0  0
   -8.9793   -8.9584   35.5802 C   0  0  0  0  0  0  0  0  0  0  0  0
   -8.9155   -6.7301   35.5683 C   0  0  0  0  0  0  0  0  0  0  0  0
   -6.9239  -17.3054   28.3639 H   0  0  0  0  0  0  0  0  0  0  0  0
   -8.0124  -15.4666   27.9979 H   0  0  0  0  0  0  0  0  0  0  0  0
   -8.3364  -16.8166   28.4162 H   0  0  0  0  0  0  0  0  0  0  0  0
   -6.2740  -14.7595   28.9858 H   0  0  0  0  0  0  0  0  0  0  0  0
   -3.7840  -16.4097   28.6801 H   0  0  0  0  0  0  0  0  0  0  0  0
   -3.4677  -15.2204   29.8859 H   0  0  0  0  0  0  0  0  0  0  0  0
   -3.8283  -16.6139   30.5331 H   0  0  0  0  0  0  0  0  0  0  0  0
   -8.3515  -14.4896   32.0212 H   0  0  0  0  0  0  0  0  0  0  0  0
   -6.2200  -10.3142   34.4657 H   0  0  0  0  0  0  0  0  0  0  0  0
   -6.9539   -7.2403   32.3442 H   0  0  0  0  0  0  0  0  0  0  0  0
   -7.4329   -5.8636   33.7334 H   0  0  0  0  0  0  0  0  0  0  0  0
   -7.0521   -5.8244   35.2978 H   0  0  0  0  0  0  0  0  0  0  0  0
   -5.2717   -3.9104   35.5732 H   0  0  0  0  0  0  0  0  0  0  0  0
   -3.1717   -0.8971   32.5803 H   0  0  0  0  0  0  0  0  0  0  0  0
   -2.2561    0.7305   34.6205 H   0  0  0  0  0  0  0  0  0  0  0  0
   -3.2874   -0.2671   36.7330 H   0  0  0  0  0  0  0  0  0  0  0  0
  -10.4718   -8.5503   33.5931 H   0  0  0  0  0  0  0  0  0  0  0  0
   -9.9862   -7.1885   32.6300 H   0  0  0  0  0  0  0  0  0  0  0  0
  -10.7252   -6.9994   34.1716 H   0  0  0  0  0  0  0  0  0  0  0  0
  -10.0423   -8.8409   35.8438 H   0  0  0  0  0  0  0  0  0  0  0  0
   -8.3976   -8.9020   36.5098 H   0  0  0  0  0  0  0  0  0  0  0  0
   -8.9452  -10.0119   35.2900 H   0  0  0  0  0  0  0  0  0  0  0  0
   -9.9243   -6.9304   35.9697 H   0  0  0  0  0  0  0  0  0  0  0  0
   -9.0230   -5.6883   35.4726 H   0  0  0  0  0  0  0  0  0  0  0  0
   -8.2874   -6.9905   36.3910 H   0  0  0  0  0  0  0  0  0  0  0  0
  1  2  1  0
  2  3  1  0
  2  4  1  0
  4  5  2  0
  5  6  1  0
  6  7  1  0
  7  8  2  0
  8  9  1  0
  9 10  2  0
  9 11  1  0
 11 12  1  0
 12 13  1  0
 13 14  1  0
 14 15  1  0
 15 16  2  0
 15 17  1  0
 17 18  1  0
 18 19  2  0
 19 20  1  0
 20 21  1  0
 12 22  1  0
 22 23  1  0
 22 24  1  0
 22 25  1  0
  8  4  1  0
 21 17  2  0
  1 26  1  0
  1 27  1  0
  1 28  1  0
  2 29  1  0
  3 30  1  0
  3 31  1  0
  3 32  1  0
  7 33  1  0
 11 34  1  0
 12 35  1  0
 13 36  1  0
 13 37  1  0
 14 38  1  0
 18 39  1  0
 19 40  1  0
 20 41  1  0
 23 42  1  0
 23 43  1  0
 23 44  1  0
 24 45  1  0
 24 46  1  0
 24 47  1  0
 25 48  1  0
 25 49  1  0
 25 50  1  0
M  END
>  <Energy>  (465) 
1368.2406535393445

>  <compound_id>  (465) 
35554

>  <target_id>  (465) 
1

>  <reference_id>  (465) 
59

>  <inspiration_ids>  (465) 
[59, 96]

>  <energy_score>  (465) 
1284.101429509273

>  <distance_score>  (465) 
7.922745795179089

>  <path>  (465) 
/opt/xchem-fragalysis-2/maxwin/BulkDock/SCRATCH/511013/C35554-P59/C35554-P59.minimised.mol

>  <scratch_subdir>  (465) 
/opt/xchem-fragalysis-2/maxwin/BulkDock/SCRATCH/511013/C35554-P59

>  <fragmenstein_runtime>  (465) 
27.70058584213257

>  <fragmenstein_outcome>  (465) 
too moved

>  <fragmenstein_mode>  (465) 
expansion

>  <fragmenstein_error>  (465) 


$$$$
C35554-P96
     RDKit          3D

 50 51  0  0  0  0  0  0  0  0999 V2000
   -9.5348  -19.1008   29.1070 C   0  0  0  0  0  0  0  0  0  0  0  0
   -7.9697  -17.7092   28.4040 C   0  0  0  0  0  0  0  0  0  0  0  0
   -7.0137  -19.1016   27.3735 C   0  0  0  0  0  0  0  0  0  0  0  0
   -6.6508  -16.3789   29.5120 C   0  0  0  0  0  0  0  0  0  0  0  0
   -6.8774  -16.1199   30.8174 N   0  0  0  0  0  0  0  0  0  0  0  0
   -6.0960  -15.5450   31.6192 O   0  0  0  0  0  0  0  0  0  0  0  0
   -5.5852  -14.5340   30.9999 C   0  0  0  0  0  0  0  0  0  0  0  0
   -5.8985  -14.3961   29.3407 C   0  0  0  0  0  0  0  0  0  0  0  0
   -6.5412  -12.4652   29.7204 C   0  0  0  0  0  0  0  0  0  0  0  0
   -7.5516  -12.5072   30.3483 O   0  0  0  0  0  0  0  0  0  0  0  0
   -5.8379  -10.6336   29.5268 N   0  0  0  0  0  0  0  0  0  0  0  0
   -6.4100   -8.8470   30.3349 C   0  0  0  0  0  0  0  0  0  0  0  0
   -6.7196   -7.5486   29.6031 C   0  0  0  0  0  0  0  0  0  0  0  0
   -5.3843   -6.4883   29.5355 N   0  0  0  0  0  0  0  0  0  0  0  0
   -3.9172   -6.7454   29.6170 C   0  0  0  0  0  0  0  0  0  0  0  0
   -3.3138   -7.7703   29.6713 O   0  0  0  0  0  0  0  0  0  0  0  0
   -3.0243   -5.4748   29.5659 C   0  0  0  0  0  0  0  0  0  0  0  0
   -2.1026   -5.1002   28.5396 C   0  0  0  0  0  0  0  0  0  0  0  0
   -1.5477   -3.9067   28.9312 C   0  0  0  0  0  0  0  0  0  0  0  0
   -2.0308   -3.6708   30.1741 N   0  0  0  0  0  0  0  0  0  0  0  0
   -2.9104   -4.5972   30.5919 N   0  0  0  0  0  0  0  0  0  0  0  0
   -5.7146   -7.5710   31.8796 C   0  0  0  0  0  0  0  0  0  0  0  0
   -4.0975   -7.3485   32.8696 C   0  0  0  0  0  0  0  0  0  0  0  0
   -6.6915   -7.3718   33.5165 C   0  0  0  0  0  0  0  0  0  0  0  0
   -5.5305   -6.1632   31.7786 C   0  0  0  0  0  0  0  0  0  0  0  0
   -9.5750  -20.0487   28.4796 H   0  0  0  0  0  0  0  0  0  0  0  0
  -10.6081  -19.0207   29.3096 H   0  0  0  0  0  0  0  0  0  0  0  0
   -9.5052  -19.4103   30.1825 H   0  0  0  0  0  0  0  0  0  0  0  0
   -8.4133  -17.0464   27.6566 H   0  0  0  0  0  0  0  0  0  0  0  0
   -6.2023  -19.8159   27.6420 H   0  0  0  0  0  0  0  0  0  0  0  0
   -7.6765  -19.9267   27.2425 H   0  0  0  0  0  0  0  0  0  0  0  0
   -6.5490  -18.5377   26.5527 H   0  0  0  0  0  0  0  0  0  0  0  0
   -5.2347  -13.8691   31.7527 H   0  0  0  0  0  0  0  0  0  0  0  0
   -5.0325  -10.6702   28.9134 H   0  0  0  0  0  0  0  0  0  0  0  0
   -7.4376   -9.1224   30.5801 H   0  0  0  0  0  0  0  0  0  0  0  0
   -7.2317   -7.6230   28.6277 H   0  0  0  0  0  0  0  0  0  0  0  0
   -7.4742   -6.9662   30.1336 H   0  0  0  0  0  0  0  0  0  0  0  0
   -5.5391   -5.5235   29.4224 H   0  0  0  0  0  0  0  0  0  0  0  0
   -1.8472   -5.6186   27.6256 H   0  0  0  0  0  0  0  0  0  0  0  0
   -0.8023   -3.2720   28.4729 H   0  0  0  0  0  0  0  0  0  0  0  0
   -1.7992   -2.9033   30.7963 H   0  0  0  0  0  0  0  0  0  0  0  0
   -4.1796   -6.5324   33.6005 H   0  0  0  0  0  0  0  0  0  0  0  0
   -3.7856   -8.2699   33.3787 H   0  0  0  0  0  0  0  0  0  0  0  0
   -3.2364   -7.0759   32.2279 H   0  0  0  0  0  0  0  0  0  0  0  0
   -6.8889   -7.9946   34.3862 H   0  0  0  0  0  0  0  0  0  0  0  0
   -6.3983   -6.4642   34.0686 H   0  0  0  0  0  0  0  0  0  0  0  0
   -7.6101   -7.9371   33.2681 H   0  0  0  0  0  0  0  0  0  0  0  0
   -6.3595   -5.8386   31.1710 H   0  0  0  0  0  0  0  0  0  0  0  0
   -4.5210   -5.9902   31.4585 H   0  0  0  0  0  0  0  0  0  0  0  0
   -5.4572   -5.5292   32.6770 H   0  0  0  0  0  0  0  0  0  0  0  0
  1  2  1  0
  2  3  1  0
  2  4  1  0
  4  5  2  0
  5  6  1  0
  6  7  1  0
  7  8  2  0
  8  9  1  0
  9 10  2  0
  9 11  1  0
 11 12  1  0
 12 13  1  0
 13 14  1  0
 14 15  1  0
 15 16  2  0
 15 17  1  0
 17 18  1  0
 18 19  2  0
 19 20  1  0
 20 21  1  0
 12 22  1  0
 22 23  1  0
 22 24  1  0
 22 25  1  0
  8  4  1  0
 21 17  2  0
  1 26  1  0
  1 27  1  0
  1 28  1  0
  2 29  1  0
  3 30  1  0
  3 31  1  0
  3 32  1  0
  7 33  1  0
 11 34  1  0
 12 35  1  0
 13 36  1  0
 13 37  1  0
 14 38  1  0
 18 39  1  0
 19 40  1  0
 20 41  1  0
 23 42  1  0
 23 43  1  0
 23 44  1  0
 24 45  1  0
 24 46  1  0
 24 47  1  0
 25 48  1  0
 25 49  1  0
 25 50  1  0
M  END
>  <Energy>  (466) 
1355.6007577610362

>  <compound_id>  (466) 
35554

>  <target_id>  (466) 
1

>  <reference_id>  (466) 
96

>  <inspiration_ids>  (466) 
[59, 96]

>  <energy_score>  (466) 
1271.4615337309856

>  <distance_score>  (466) 
7.786926774380777

>  <path>  (466) 
/opt/xchem-fragalysis-2/maxwin/BulkDock/SCRATCH/511013/C35554-P96/C35554-P96.minimised.mol

>  <scratch_subdir>  (466) 
/opt/xchem-fragalysis-2/maxwin/BulkDock/SCRATCH/511013/C35554-P96

>  <fragmenstein_runtime>  (466) 
11.98648977279663

>  <fragmenstein_outcome>  (466) 
too moved

>  <fragmenstein_mode>  (466) 
expansion

>  <fragmenstein_error>  (466) 


$$$$
C35557-P59
     RDKit          3D

 47 48  0  0  0  0  0  0  0  0999 V2000
   -8.8766  -14.9885   26.8888 C   0  0  0  0  0  0  0  0  0  0  0  0
   -8.7434  -13.6676   27.7326 C   0  0  0  0  0  0  0  0  0  0  0  0
   -7.1991  -12.7312   27.7894 C   0  0  0  0  0  0  0  0  0  0  0  0
   -6.6889  -13.5349   27.0088 N   0  0  0  0  0  0  0  0  0  0  0  0
   -6.7476  -14.3147   28.6985 O   0  0  0  0  0  0  0  0  0  0  0  0
   -6.1006  -13.3016   29.7166 C   0  0  0  0  0  0  0  0  0  0  0  0
   -6.0595  -11.7119   29.0459 C   0  0  0  0  0  0  0  0  0  0  0  0
   -6.8214   -9.9847   29.8926 C   0  0  0  0  0  0  0  0  0  0  0  0
   -7.9694   -9.9893   29.8282 O   0  0  0  0  0  0  0  0  0  0  0  0
   -6.1847   -8.4875   30.9078 N   0  0  0  0  0  0  0  0  0  0  0  0
   -7.1545   -7.0351   32.0076 C   0  0  0  0  0  0  0  0  0  0  0  0
   -5.8521   -5.6861   31.8462 C   0  0  0  0  0  0  0  0  0  0  0  0
   -5.1018   -3.8420   32.2683 N   0  0  0  0  0  0  0  0  0  0  0  0
   -3.7713   -3.2275   31.9827 C   0  0  0  0  0  0  0  0  0  0  0  0
   -2.7741   -3.7052   31.4951 O   0  0  0  0  0  0  0  0  0  0  0  0
   -3.7077   -1.8418   32.4931 C   0  0  0  0  0  0  0  0  0  0  0  0
   -2.5521   -1.0162   32.5053 C   0  0  0  0  0  0  0  0  0  0  0  0
   -2.8438   -0.0115   33.3926 C   0  0  0  0  0  0  0  0  0  0  0  0
   -4.1262   -0.2296   33.7992 N   0  0  0  0  0  0  0  0  0  0  0  0
   -4.7079   -1.2834   33.2038 N   0  0  0  0  0  0  0  0  0  0  0  0
   -8.6133   -7.1867   33.5108 C   0  0  0  0  0  0  0  0  0  0  0  0
  -10.3041   -7.3397   33.1065 C   0  0  0  0  0  0  0  0  0  0  0  0
   -9.3589   -8.2130   34.9601 C   0  0  0  0  0  0  0  0  0  0  0  0
   -8.2634   -6.3699   34.9141 C   0  0  0  0  0  0  0  0  0  0  0  0
   -9.9225  -15.2885   26.7600 H   0  0  0  0  0  0  0  0  0  0  0  0
   -8.4306  -14.9593   25.8947 H   0  0  0  0  0  0  0  0  0  0  0  0
   -8.4749  -15.8366   27.4360 H   0  0  0  0  0  0  0  0  0  0  0  0
   -8.9706  -13.8833   28.7576 H   0  0  0  0  0  0  0  0  0  0  0  0
   -9.5182  -13.0745   27.2748 H   0  0  0  0  0  0  0  0  0  0  0  0
   -6.2831  -13.7265   30.7020 H   0  0  0  0  0  0  0  0  0  0  0  0
   -5.1809   -8.5770   31.0053 H   0  0  0  0  0  0  0  0  0  0  0  0
   -6.7889   -7.3313   32.9439 H   0  0  0  0  0  0  0  0  0  0  0  0
   -6.1430   -5.3909   32.8735 H   0  0  0  0  0  0  0  0  0  0  0  0
   -6.1964   -5.6120   30.6796 H   0  0  0  0  0  0  0  0  0  0  0  0
   -5.7313   -3.1217   32.6032 H   0  0  0  0  0  0  0  0  0  0  0  0
   -1.6005   -1.2172   32.0311 H   0  0  0  0  0  0  0  0  0  0  0  0
   -2.2497    0.7971   33.7936 H   0  0  0  0  0  0  0  0  0  0  0  0
   -4.6717    0.3009   34.4731 H   0  0  0  0  0  0  0  0  0  0  0  0
  -10.9688   -6.8302   33.8134 H   0  0  0  0  0  0  0  0  0  0  0  0
  -10.6405   -7.1365   32.0991 H   0  0  0  0  0  0  0  0  0  0  0  0
  -10.6746   -8.3696   33.1729 H   0  0  0  0  0  0  0  0  0  0  0  0
  -10.0572   -7.5861   35.5483 H   0  0  0  0  0  0  0  0  0  0  0  0
  -10.0334   -9.0530   34.7148 H   0  0  0  0  0  0  0  0  0  0  0  0
   -8.6723   -8.6538   35.6920 H   0  0  0  0  0  0  0  0  0  0  0  0
   -8.0178   -6.9213   35.8199 H   0  0  0  0  0  0  0  0  0  0  0  0
   -7.3566   -5.7758   34.8652 H   0  0  0  0  0  0  0  0  0  0  0  0
   -9.1555   -5.8741   35.3225 H   0  0  0  0  0  0  0  0  0  0  0  0
  1  2  1  0
  2  3  1  0
  3  4  2  0
  4  5  1  0
  5  6  1  0
  6  7  2  0
  7  8  1  0
  8  9  2  0
  8 10  1  0
 10 11  1  0
 11 12  1  0
 12 13  1  0
 13 14  1  0
 14 15  2  0
 14 16  1  0
 16 17  1  0
 17 18  2  0
 18 19  1  0
 19 20  1  0
 11 21  1  0
 21 22  1  0
 21 23  1  0
 21 24  1  0
  7  3  1  0
 20 16  2  0
  1 25  1  0
  1 26  1  0
  1 27  1  0
  2 28  1  0
  2 29  1  0
  6 30  1  0
 10 31  1  0
 11 32  1  0
 12 33  1  0
 12 34  1  0
 13 35  1  0
 17 36  1  0
 18 37  1  0
 19 38  1  0
 22 39  1  0
 22 40  1  0
 22 41  1  0
 23 42  1  0
 23 43  1  0
 23 44  1  0
 24 45  1  0
 24 46  1  0
 24 47  1  0
M  END
>  <Energy>  (467) 
1155.7202589916428

>  <compound_id>  (467) 
35557

>  <target_id>  (467) 
1

>  <reference_id>  (467) 
59

>  <inspiration_ids>  (467) 
[59, 96]

>  <energy_score>  (467) 
1043.240729906955

>  <distance_score>  (467) 
7.922390337715514

>  <path>  (467) 
/opt/xchem-fragalysis-2/maxwin/BulkDock/SCRATCH/511013/C35557-P59/C35557-P59.minimised.mol

>  <scratch_subdir>  (467) 
/opt/xchem-fragalysis-2/maxwin/BulkDock/SCRATCH/511013/C35557-P59

>  <fragmenstein_runtime>  (467) 
15.249175548553467

>  <fragmenstein_outcome>  (467) 
too moved

>  <fragmenstein_mode>  (467) 
expansion

>  <fragmenstein_error>  (467) 


$$$$
C35557-P96
     RDKit          3D

 47 48  0  0  0  0  0  0  0  0999 V2000
  -10.0048  -13.7635   33.7406 C   0  0  0  0  0  0  0  0  0  0  0  0
  -10.1737  -12.7761   32.3785 C   0  0  0  0  0  0  0  0  0  0  0  0
   -9.2853  -11.0127   31.9048 C   0  0  0  0  0  0  0  0  0  0  0  0
   -7.9144  -11.4083   31.5829 N   0  0  0  0  0  0  0  0  0  0  0  0
   -7.5096  -10.0225   30.5301 O   0  0  0  0  0  0  0  0  0  0  0  0
   -8.4171   -8.9249   30.9024 C   0  0  0  0  0  0  0  0  0  0  0  0
   -8.7645   -9.2779   32.2259 C   0  0  0  0  0  0  0  0  0  0  0  0
   -8.1738   -8.3958   33.7126 C   0  0  0  0  0  0  0  0  0  0  0  0
   -8.8482   -8.7275   34.6673 O   0  0  0  0  0  0  0  0  0  0  0  0
   -6.9466   -7.0689   33.7425 N   0  0  0  0  0  0  0  0  0  0  0  0
   -6.5059   -5.7327   35.1086 C   0  0  0  0  0  0  0  0  0  0  0  0
   -4.9905   -5.8984   34.1608 C   0  0  0  0  0  0  0  0  0  0  0  0
   -4.2013   -5.8527   32.9346 N   0  0  0  0  0  0  0  0  0  0  0  0
   -3.1152   -4.9757   32.5382 C   0  0  0  0  0  0  0  0  0  0  0  0
   -2.5447   -4.1240   33.1490 O   0  0  0  0  0  0  0  0  0  0  0  0
   -2.6568   -5.1047   31.1270 C   0  0  0  0  0  0  0  0  0  0  0  0
   -2.5574   -6.2242   30.2740 C   0  0  0  0  0  0  0  0  0  0  0  0
   -1.8735   -5.7791   29.1667 C   0  0  0  0  0  0  0  0  0  0  0  0
   -1.6328   -4.4555   29.3726 N   0  0  0  0  0  0  0  0  0  0  0  0
   -2.1851   -4.0046   30.5012 N   0  0  0  0  0  0  0  0  0  0  0  0
   -7.7799   -4.4295   36.5218 C   0  0  0  0  0  0  0  0  0  0  0  0
   -9.5758   -4.2174   36.5890 C   0  0  0  0  0  0  0  0  0  0  0  0
   -6.5791   -3.8068   38.1031 C   0  0  0  0  0  0  0  0  0  0  0  0
   -8.0046   -2.5811   37.1704 C   0  0  0  0  0  0  0  0  0  0  0  0
   -9.6444  -13.3460   34.6832 H   0  0  0  0  0  0  0  0  0  0  0  0
   -9.3187  -14.5837   33.4965 H   0  0  0  0  0  0  0  0  0  0  0  0
  -10.9879  -14.1819   33.9850 H   0  0  0  0  0  0  0  0  0  0  0  0
   -9.5696  -13.3750   31.7222 H   0  0  0  0  0  0  0  0  0  0  0  0
  -11.2669  -12.8973   32.3122 H   0  0  0  0  0  0  0  0  0  0  0  0
   -8.1293   -8.0637   30.3164 H   0  0  0  0  0  0  0  0  0  0  0  0
   -6.4954   -7.0071   32.8253 H   0  0  0  0  0  0  0  0  0  0  0  0
   -6.6282   -4.8416   34.4756 H   0  0  0  0  0  0  0  0  0  0  0  0
   -5.3820   -5.1171   33.5486 H   0  0  0  0  0  0  0  0  0  0  0  0
   -4.2124   -6.0769   34.8465 H   0  0  0  0  0  0  0  0  0  0  0  0
   -4.3829   -6.5122   32.1874 H   0  0  0  0  0  0  0  0  0  0  0  0
   -2.8268   -7.2446   30.4784 H   0  0  0  0  0  0  0  0  0  0  0  0
   -1.4616   -6.2845   28.3037 H   0  0  0  0  0  0  0  0  0  0  0  0
   -1.0629   -3.8251   28.8146 H   0  0  0  0  0  0  0  0  0  0  0  0
   -9.8490   -4.3260   35.5752 H   0  0  0  0  0  0  0  0  0  0  0  0
  -10.2300   -4.7245   37.2926 H   0  0  0  0  0  0  0  0  0  0  0  0
   -9.9640   -3.2248   36.8318 H   0  0  0  0  0  0  0  0  0  0  0  0
   -6.2507   -4.6307   38.7800 H   0  0  0  0  0  0  0  0  0  0  0  0
   -5.6358   -3.3435   37.8575 H   0  0  0  0  0  0  0  0  0  0  0  0
   -7.0424   -3.2071   38.9166 H   0  0  0  0  0  0  0  0  0  0  0  0
   -8.5674   -2.6295   38.1340 H   0  0  0  0  0  0  0  0  0  0  0  0
   -7.1796   -1.9155   37.3865 H   0  0  0  0  0  0  0  0  0  0  0  0
   -8.7184   -1.8885   36.7218 H   0  0  0  0  0  0  0  0  0  0  0  0
  1  2  1  0
  2  3  1  0
  3  4  2  0
  4  5  1  0
  5  6  1  0
  6  7  2  0
  7  8  1  0
  8  9  2  0
  8 10  1  0
 10 11  1  0
 11 12  1  0
 12 13  1  0
 13 14  1  0
 14 15  2  0
 14 16  1  0
 16 17  1  0
 17 18  2  0
 18 19  1  0
 19 20  1  0
 11 21  1  0
 21 22  1  0
 21 23  1  0
 21 24  1  0
  7  3  1  0
 20 16  2  0
  1 25  1  0
  1 26  1  0
  1 27  1  0
  2 28  1  0
  2 29  1  0
  6 30  1  0
 10 31  1  0
 11 32  1  0
 12 33  1  0
 12 34  1  0
 13 35  1  0
 17 36  1  0
 18 37  1  0
 19 38  1  0
 22 39  1  0
 22 40  1  0
 22 41  1  0
 23 42  1  0
 23 43  1  0
 23 44  1  0
 24 45  1  0
 24 46  1  0
 24 47  1  0
M  END
>  <Energy>  (468) 
1088.0698535539311

>  <compound_id>  (468) 
35557

>  <target_id>  (468) 
1

>  <reference_id>  (468) 
96

>  <inspiration_ids>  (468) 
[59, 96]

>  <energy_score>  (468) 
975.5903244692709

>  <distance_score>  (468) 
9.211733620627966

>  <path>  (468) 
/opt/xchem-fragalysis-2/maxwin/BulkDock/SCRATCH/511013/C35557-P96/C35557-P96.minimised.mol

>  <scratch_subdir>  (468) 
/opt/xchem-fragalysis-2/maxwin/BulkDock/SCRATCH/511013/C35557-P96

>  <fragmenstein_runtime>  (468) 
14.119227647781372

>  <fragmenstein_outcome>  (468) 
too moved

>  <fragmenstein_mode>  (468) 
expansion

>  <fragmenstein_error>  (468) 


$$$$
C35558-P59
     RDKit          3D

 38 39  0  0  0  0  0  0  0  0999 V2000
   -9.1070   -2.3255   35.8196 C   0  0  0  0  0  0  0  0  0  0  0  0
   -7.5904   -2.8113   35.7395 C   0  0  0  0  0  0  0  0  0  0  0  0
   -6.8167   -1.6507   34.7973 C   0  0  0  0  0  0  0  0  0  0  0  0
   -5.4502   -0.9724   35.0713 N   0  0  0  0  0  0  0  0  0  0  0  0
   -4.9547   -2.1828   34.4367 C   0  0  0  0  0  0  0  0  0  0  0  0
   -4.8417    0.1782   34.4721 C   0  0  0  0  0  0  0  0  0  0  0  0
   -5.1972    0.8547   33.5453 O   0  0  0  0  0  0  0  0  0  0  0  0
   -3.5074    0.4814   35.0710 C   0  0  0  0  0  0  0  0  0  0  0  0
   -2.8758   -0.0966   36.2035 C   0  0  0  0  0  0  0  0  0  0  0  0
   -1.5917    0.3928   36.2013 C   0  0  0  0  0  0  0  0  0  0  0  0
   -1.5107    1.2303   35.1333 N   0  0  0  0  0  0  0  0  0  0  0  0
   -2.6460    1.3007   34.4296 N   0  0  0  0  0  0  0  0  0  0  0  0
   -7.1917   -4.6904   35.4684 N   0  0  0  0  0  0  0  0  0  0  0  0
   -8.1772   -6.0258   35.5325 C   0  0  0  0  0  0  0  0  0  0  0  0
   -9.3715   -6.1161   35.8176 O   0  0  0  0  0  0  0  0  0  0  0  0
   -7.5208   -7.3614   35.1027 C   0  0  0  0  0  0  0  0  0  0  0  0
   -6.5095   -8.3744   35.8035 C   0  0  0  0  0  0  0  0  0  0  0  0
   -5.4270   -9.1263   35.1860 C   0  0  0  0  0  0  0  0  0  0  0  0
   -4.8110   -9.9655   36.0130 N   0  0  0  0  0  0  0  0  0  0  0  0
   -5.5191   -9.8730   37.1867 O   0  0  0  0  0  0  0  0  0  0  0  0
   -6.4855   -8.9300   37.0609 C   0  0  0  0  0  0  0  0  0  0  0  0
   -9.5135   -2.1470   34.8236 H   0  0  0  0  0  0  0  0  0  0  0  0
   -9.7748   -3.0143   36.3440 H   0  0  0  0  0  0  0  0  0  0  0  0
   -9.1569   -1.3678   36.3521 H   0  0  0  0  0  0  0  0  0  0  0  0
   -7.3059   -2.5165   36.7685 H   0  0  0  0  0  0  0  0  0  0  0  0
   -7.0639   -1.7055   33.7239 H   0  0  0  0  0  0  0  0  0  0  0  0
   -7.4287   -0.7625   35.0342 H   0  0  0  0  0  0  0  0  0  0  0  0
   -5.1505   -2.2592   33.3566 H   0  0  0  0  0  0  0  0  0  0  0  0
   -5.1198   -3.0518   35.0553 H   0  0  0  0  0  0  0  0  0  0  0  0
   -3.8574   -2.1005   34.4440 H   0  0  0  0  0  0  0  0  0  0  0  0
   -3.2960   -0.8058   36.9023 H   0  0  0  0  0  0  0  0  0  0  0  0
   -0.7489    0.2257   36.8569 H   0  0  0  0  0  0  0  0  0  0  0  0
   -0.7159    1.7823   34.8254 H   0  0  0  0  0  0  0  0  0  0  0  0
   -6.2855   -4.9561   35.1201 H   0  0  0  0  0  0  0  0  0  0  0  0
   -8.4346   -7.9715   35.1051 H   0  0  0  0  0  0  0  0  0  0  0  0
   -7.2258   -7.2139   34.0658 H   0  0  0  0  0  0  0  0  0  0  0  0
   -5.0784   -9.1193   34.1658 H   0  0  0  0  0  0  0  0  0  0  0  0
   -7.0711   -8.7811   37.9591 H   0  0  0  0  0  0  0  0  0  0  0  0
  1  2  1  0
  2  3  1  0
  3  4  1  0
  4  5  1  0
  4  6  1  0
  6  7  2  0
  6  8  1  0
  8  9  1  0
  9 10  2  0
 10 11  1  0
 11 12  1  0
  2 13  1  0
 13 14  1  0
 14 15  2  0
 14 16  1  0
 16 17  1  0
 17 18  1  0
 18 19  2  0
 19 20  1  0
 20 21  1  0
 12  8  2  0
 21 17  2  0
  1 22  1  0
  1 23  1  0
  1 24  1  0
  2 25  1  0
  3 26  1  0
  3 27  1  0
  5 28  1  0
  5 29  1  0
  5 30  1  0
  9 31  1  0
 10 32  1  0
 11 33  1  0
 13 34  1  0
 16 35  1  0
 16 36  1  0
 18 37  1  0
 21 38  1  0
M  END
>  <Energy>  (469) 
257.86662582741855

>  <compound_id>  (469) 
35558

>  <target_id>  (469) 
1

>  <reference_id>  (469) 
59

>  <inspiration_ids>  (469) 
[59, 96]

>  <energy_score>  (469) 
168.0144635239797

>  <distance_score>  (469) 
10.8327180922

>  <path>  (469) 
/opt/xchem-fragalysis-2/maxwin/BulkDock/SCRATCH/511013/C35558-P59/C35558-P59.minimised.mol

>  <scratch_subdir>  (469) 
/opt/xchem-fragalysis-2/maxwin/BulkDock/SCRATCH/511013/C35558-P59

>  <fragmenstein_runtime>  (469) 
14.966550588607788

>  <fragmenstein_outcome>  (469) 
too moved

>  <fragmenstein_mode>  (469) 
expansion

>  <fragmenstein_error>  (469) 


$$$$
C35558-P96
     RDKit          3D

 38 39  0  0  0  0  0  0  0  0999 V2000
   -6.1962    0.3624   31.9500 C   0  0  0  0  0  0  0  0  0  0  0  0
   -7.2258   -0.4926   31.1707 C   0  0  0  0  0  0  0  0  0  0  0  0
   -7.2481    0.1974   29.6944 C   0  0  0  0  0  0  0  0  0  0  0  0
   -5.8380    0.0252   29.1249 N   0  0  0  0  0  0  0  0  0  0  0  0
   -6.5536    0.3163   27.8372 C   0  0  0  0  0  0  0  0  0  0  0  0
   -4.6761    0.8556   29.2396 C   0  0  0  0  0  0  0  0  0  0  0  0
   -4.5391    1.9425   29.7363 O   0  0  0  0  0  0  0  0  0  0  0  0
   -3.4511    0.1731   28.7327 C   0  0  0  0  0  0  0  0  0  0  0  0
   -2.1640    0.7729   28.6191 C   0  0  0  0  0  0  0  0  0  0  0  0
   -1.3199   -0.2257   28.2078 C   0  0  0  0  0  0  0  0  0  0  0  0
   -2.0921   -1.3397   28.1020 N   0  0  0  0  0  0  0  0  0  0  0  0
   -3.3894   -1.1370   28.4104 N   0  0  0  0  0  0  0  0  0  0  0  0
   -7.2848   -2.0338   30.7454 N   0  0  0  0  0  0  0  0  0  0  0  0
   -8.0063   -3.4752   31.6030 C   0  0  0  0  0  0  0  0  0  0  0  0
   -8.5039   -3.5391   32.7180 O   0  0  0  0  0  0  0  0  0  0  0  0
   -8.1234   -5.1138   30.5163 C   0  0  0  0  0  0  0  0  0  0  0  0
   -9.2660   -6.0625   30.6043 C   0  0  0  0  0  0  0  0  0  0  0  0
  -10.3534   -6.1785   31.4756 C   0  0  0  0  0  0  0  0  0  0  0  0
  -11.2810   -6.9947   30.9789 N   0  0  0  0  0  0  0  0  0  0  0  0
  -10.6862   -7.6002   29.8812 O   0  0  0  0  0  0  0  0  0  0  0  0
   -9.4655   -7.0830   29.6971 C   0  0  0  0  0  0  0  0  0  0  0  0
   -5.1484    0.2095   31.7117 H   0  0  0  0  0  0  0  0  0  0  0  0
   -6.2982    0.3685   33.0269 H   0  0  0  0  0  0  0  0  0  0  0  0
   -6.3830    1.4218   31.7212 H   0  0  0  0  0  0  0  0  0  0  0  0
   -8.2033   -0.2473   31.6018 H   0  0  0  0  0  0  0  0  0  0  0  0
   -7.4695    1.2672   29.8326 H   0  0  0  0  0  0  0  0  0  0  0  0
   -8.0816   -0.3040   29.1769 H   0  0  0  0  0  0  0  0  0  0  0  0
   -7.0158    1.3144   27.7770 H   0  0  0  0  0  0  0  0  0  0  0  0
   -5.7735    0.3557   27.0618 H   0  0  0  0  0  0  0  0  0  0  0  0
   -7.1977   -0.5081   27.4972 H   0  0  0  0  0  0  0  0  0  0  0  0
   -1.9071    1.8012   28.8350 H   0  0  0  0  0  0  0  0  0  0  0  0
   -0.2605   -0.2446   27.9959 H   0  0  0  0  0  0  0  0  0  0  0  0
   -1.7972   -2.2712   27.8243 H   0  0  0  0  0  0  0  0  0  0  0  0
   -6.8757   -2.3170   29.8585 H   0  0  0  0  0  0  0  0  0  0  0  0
   -7.2287   -5.7600   30.6179 H   0  0  0  0  0  0  0  0  0  0  0  0
   -8.0212   -4.8718   29.4552 H   0  0  0  0  0  0  0  0  0  0  0  0
  -10.5673   -5.6355   32.3856 H   0  0  0  0  0  0  0  0  0  0  0  0
   -8.9121   -7.4633   28.8514 H   0  0  0  0  0  0  0  0  0  0  0  0
  1  2  1  0
  2  3  1  0
  3  4  1  0
  4  5  1  0
  4  6  1  0
  6  7  2  0
  6  8  1  0
  8  9  1  0
  9 10  2  0
 10 11  1  0
 11 12  1  0
  2 13  1  0
 13 14  1  0
 14 15  2  0
 14 16  1  0
 16 17  1  0
 17 18  1  0
 18 19  2  0
 19 20  1  0
 20 21  1  0
 12  8  2  0
 21 17  2  0
  1 22  1  0
  1 23  1  0
  1 24  1  0
  2 25  1  0
  3 26  1  0
  3 27  1  0
  5 28  1  0
  5 29  1  0
  5 30  1  0
  9 31  1  0
 10 32  1  0
 11 33  1  0
 13 34  1  0
 16 35  1  0
 16 36  1  0
 18 37  1  0
 21 38  1  0
M  END
>  <Energy>  (470) 
252.90838429458751

>  <compound_id>  (470) 
35558

>  <target_id>  (470) 
1

>  <reference_id>  (470) 
96

>  <inspiration_ids>  (470) 
[59, 96]

>  <energy_score>  (470) 
163.056221991151

>  <distance_score>  (470) 
10.623315406544643

>  <path>  (470) 
/opt/xchem-fragalysis-2/maxwin/BulkDock/SCRATCH/511013/C35558-P96/C35558-P96.minimised.mol

>  <scratch_subdir>  (470) 
/opt/xchem-fragalysis-2/maxwin/BulkDock/SCRATCH/511013/C35558-P96

>  <fragmenstein_runtime>  (470) 
10.314075708389282

>  <fragmenstein_outcome>  (470) 
too moved

>  <fragmenstein_mode>  (470) 
expansion

>  <fragmenstein_error>  (470) 


$$$$
C35559-P59
     RDKit          3D

 45 46  0  0  0  0  0  0  0  0999 V2000
   -9.6197  -15.9271   26.4536 C   0  0  0  0  0  0  0  0  0  0  0  0
   -8.6212  -15.2638   27.2951 C   0  0  0  0  0  0  0  0  0  0  0  0
   -8.2605  -14.0116   27.7687 C   0  0  0  0  0  0  0  0  0  0  0  0
   -7.1239  -14.1078   28.7177 C   0  0  0  0  0  0  0  0  0  0  0  0
   -6.1120  -13.3779   29.8083 C   0  0  0  0  0  0  0  0  0  0  0  0
   -5.2377  -11.8257   29.8162 O   0  0  0  0  0  0  0  0  0  0  0  0
   -5.5573  -10.7326   31.3409 C   0  0  0  0  0  0  0  0  0  0  0  0
   -5.7272   -8.7659   30.9566 C   0  0  0  0  0  0  0  0  0  0  0  0
   -6.1083   -8.6322   29.7879 O   0  0  0  0  0  0  0  0  0  0  0  0
   -5.5471   -7.6923   32.0013 N   0  0  0  0  0  0  0  0  0  0  0  0
   -5.9758   -5.8497   31.9615 C   0  0  0  0  0  0  0  0  0  0  0  0
   -7.3244   -6.4414   33.1988 C   0  0  0  0  0  0  0  0  0  0  0  0
   -5.0038   -3.9791   32.3179 C   0  0  0  0  0  0  0  0  0  0  0  0
   -5.5951   -2.4658   32.2364 C   0  0  0  0  0  0  0  0  0  0  0  0
   -3.4085   -3.5024   32.3442 N   0  0  0  0  0  0  0  0  0  0  0  0
   -2.6043   -2.8261   31.3581 C   0  0  0  0  0  0  0  0  0  0  0  0
   -2.8539   -2.5057   30.2390 O   0  0  0  0  0  0  0  0  0  0  0  0
   -1.2909   -2.4210   31.9013 C   0  0  0  0  0  0  0  0  0  0  0  0
   -0.2788   -1.7220   31.1878 C   0  0  0  0  0  0  0  0  0  0  0  0
    0.7279   -1.5153   32.0948 C   0  0  0  0  0  0  0  0  0  0  0  0
    0.2980   -2.0738   33.2601 N   0  0  0  0  0  0  0  0  0  0  0  0
   -0.9192   -2.6419   33.1762 N   0  0  0  0  0  0  0  0  0  0  0  0
   -6.6164  -15.3497   28.7920 N   0  0  0  0  0  0  0  0  0  0  0  0
   -7.9037  -16.1879   28.0458 O   0  0  0  0  0  0  0  0  0  0  0  0
   -9.2997  -15.9260   25.4129 H   0  0  0  0  0  0  0  0  0  0  0  0
   -9.7065  -16.9598   26.7514 H   0  0  0  0  0  0  0  0  0  0  0  0
  -10.6302  -15.5449   26.6069 H   0  0  0  0  0  0  0  0  0  0  0  0
   -8.8140  -13.1757   27.4372 H   0  0  0  0  0  0  0  0  0  0  0  0
   -6.5922  -13.5180   30.7923 H   0  0  0  0  0  0  0  0  0  0  0  0
   -6.4524  -12.7331   28.9811 H   0  0  0  0  0  0  0  0  0  0  0  0
   -5.9137  -11.2140   32.3370 H   0  0  0  0  0  0  0  0  0  0  0  0
   -6.4508  -10.8562   30.6807 H   0  0  0  0  0  0  0  0  0  0  0  0
   -5.1368   -8.1230   32.8397 H   0  0  0  0  0  0  0  0  0  0  0  0
   -6.4062   -5.9384   30.9494 H   0  0  0  0  0  0  0  0  0  0  0  0
   -7.1857   -6.1122   34.2383 H   0  0  0  0  0  0  0  0  0  0  0  0
   -8.3044   -6.7073   32.8422 H   0  0  0  0  0  0  0  0  0  0  0  0
   -7.1218   -7.4327   33.3458 H   0  0  0  0  0  0  0  0  0  0  0  0
   -5.0381   -3.9998   33.3723 H   0  0  0  0  0  0  0  0  0  0  0  0
   -5.8738   -2.0610   33.2217 H   0  0  0  0  0  0  0  0  0  0  0  0
   -6.4557   -2.3298   31.5833 H   0  0  0  0  0  0  0  0  0  0  0  0
   -4.7936   -1.7676   31.9935 H   0  0  0  0  0  0  0  0  0  0  0  0
   -2.8881   -3.5362   33.2399 H   0  0  0  0  0  0  0  0  0  0  0  0
   -0.3111   -1.4090   30.1519 H   0  0  0  0  0  0  0  0  0  0  0  0
    1.6883   -1.0258   32.0173 H   0  0  0  0  0  0  0  0  0  0  0  0
    0.7829   -2.1078   34.1513 H   0  0  0  0  0  0  0  0  0  0  0  0
  1  2  1  0
  2  3  2  0
  3  4  1  0
  4  5  1  0
  5  6  1  0
  6  7  1  0
  7  8  1  0
  8  9  2  0
  8 10  1  0
 10 11  1  0
 11 12  1  0
 11 13  1  0
 13 14  1  0
 13 15  1  0
 15 16  1  0
 16 17  2  0
 16 18  1  0
 18 19  1  0
 19 20  2  0
 20 21  1  0
 21 22  1  0
  4 23  2  0
 23 24  1  0
 24  2  1  0
 22 18  2  0
  1 25  1  0
  1 26  1  0
  1 27  1  0
  3 28  1  0
  5 29  1  0
  5 30  1  0
  7 31  1  0
  7 32  1  0
 10 33  1  0
 11 34  1  0
 12 35  1  0
 12 36  1  0
 12 37  1  0
 13 38  1  0
 14 39  1  0
 14 40  1  0
 14 41  1  0
 15 42  1  0
 19 43  1  0
 20 44  1  0
 21 45  1  0
M  END
>  <Energy>  (471) 
666.18188947035537

>  <compound_id>  (471) 
35559

>  <target_id>  (471) 
1

>  <reference_id>  (471) 
59

>  <inspiration_ids>  (471) 
[59, 96]

>  <energy_score>  (471) 
535.7687003940631

>  <distance_score>  (471) 
7.458686240453072

>  <path>  (471) 
/opt/xchem-fragalysis-2/maxwin/BulkDock/SCRATCH/511013/C35559-P59/C35559-P59.minimised.mol

>  <scratch_subdir>  (471) 
/opt/xchem-fragalysis-2/maxwin/BulkDock/SCRATCH/511013/C35559-P59

>  <fragmenstein_runtime>  (471) 
17.656861066818237

>  <fragmenstein_outcome>  (471) 
too moved

>  <fragmenstein_mode>  (471) 
expansion

>  <fragmenstein_error>  (471) 


$$$$
C35559-P96
     RDKit          3D

 45 46  0  0  0  0  0  0  0  0999 V2000
  -14.7833  -14.2276   32.2111 C   0  0  0  0  0  0  0  0  0  0  0  0
  -14.8329  -12.7916   32.5932 C   0  0  0  0  0  0  0  0  0  0  0  0
  -15.2896  -11.6210   32.0157 C   0  0  0  0  0  0  0  0  0  0  0  0
  -14.7758  -10.5516   32.8515 C   0  0  0  0  0  0  0  0  0  0  0  0
  -14.6693   -9.0057   32.5353 C   0  0  0  0  0  0  0  0  0  0  0  0
  -13.3526   -8.3445   32.7319 O   0  0  0  0  0  0  0  0  0  0  0  0
  -13.1141   -6.9528   32.2846 C   0  0  0  0  0  0  0  0  0  0  0  0
  -11.8791   -6.2422   33.0199 C   0  0  0  0  0  0  0  0  0  0  0  0
  -12.1004   -6.1546   34.2155 O   0  0  0  0  0  0  0  0  0  0  0  0
  -10.6698   -5.7163   32.1711 N   0  0  0  0  0  0  0  0  0  0  0  0
   -9.2227   -4.6797   32.6535 C   0  0  0  0  0  0  0  0  0  0  0  0
  -10.1165   -3.8637   33.3701 C   0  0  0  0  0  0  0  0  0  0  0  0
   -7.6480   -4.8382   33.9990 C   0  0  0  0  0  0  0  0  0  0  0  0
   -6.5759   -6.5449   34.2094 C   0  0  0  0  0  0  0  0  0  0  0  0
   -6.0796   -4.8047   33.9008 N   0  0  0  0  0  0  0  0  0  0  0  0
   -5.0050   -5.4958   32.7447 C   0  0  0  0  0  0  0  0  0  0  0  0
   -5.2717   -6.2330   31.8025 O   0  0  0  0  0  0  0  0  0  0  0  0
   -3.4713   -5.1130   32.7085 C   0  0  0  0  0  0  0  0  0  0  0  0
   -2.8630   -3.8085   32.8569 C   0  0  0  0  0  0  0  0  0  0  0  0
   -1.7831   -3.7385   32.0138 C   0  0  0  0  0  0  0  0  0  0  0  0
   -1.7969   -4.9185   31.3582 N   0  0  0  0  0  0  0  0  0  0  0  0
   -2.6675   -5.8060   31.8573 N   0  0  0  0  0  0  0  0  0  0  0  0
  -14.2264  -11.0992   33.9506 N   0  0  0  0  0  0  0  0  0  0  0  0
  -14.2351  -12.4747   33.7717 O   0  0  0  0  0  0  0  0  0  0  0  0
  -15.1099  -14.8591   33.0427 H   0  0  0  0  0  0  0  0  0  0  0  0
  -15.4354  -14.4217   31.3544 H   0  0  0  0  0  0  0  0  0  0  0  0
  -13.7619  -14.5076   31.9381 H   0  0  0  0  0  0  0  0  0  0  0  0
  -15.7643  -11.5160   31.0512 H   0  0  0  0  0  0  0  0  0  0  0  0
  -14.9736   -8.8429   31.4957 H   0  0  0  0  0  0  0  0  0  0  0  0
  -15.3810   -8.4887   33.1885 H   0  0  0  0  0  0  0  0  0  0  0  0
  -14.0020   -6.3747   32.5712 H   0  0  0  0  0  0  0  0  0  0  0  0
  -13.0193   -6.8376   31.2018 H   0  0  0  0  0  0  0  0  0  0  0  0
  -10.7667   -6.0393   31.2062 H   0  0  0  0  0  0  0  0  0  0  0  0
   -8.8072   -4.3967   31.6887 H   0  0  0  0  0  0  0  0  0  0  0  0
  -10.0114   -4.2063   34.3889 H   0  0  0  0  0  0  0  0  0  0  0  0
   -9.6800   -2.9414   33.0808 H   0  0  0  0  0  0  0  0  0  0  0  0
  -11.1770   -3.9168   33.1359 H   0  0  0  0  0  0  0  0  0  0  0  0
   -7.8003   -3.8771   33.4934 H   0  0  0  0  0  0  0  0  0  0  0  0
   -7.1613   -7.4794   34.1827 H   0  0  0  0  0  0  0  0  0  0  0  0
   -5.9919   -6.9846   33.4212 H   0  0  0  0  0  0  0  0  0  0  0  0
   -5.8933   -6.5281   35.0575 H   0  0  0  0  0  0  0  0  0  0  0  0
   -5.5955   -4.3519   34.5571 H   0  0  0  0  0  0  0  0  0  0  0  0
   -3.2538   -2.9277   33.3312 H   0  0  0  0  0  0  0  0  0  0  0  0
   -1.1052   -2.9407   31.7455 H   0  0  0  0  0  0  0  0  0  0  0  0
   -1.2062   -5.2018   30.5805 H   0  0  0  0  0  0  0  0  0  0  0  0
  1  2  1  0
  2  3  2  0
  3  4  1  0
  4  5  1  0
  5  6  1  0
  6  7  1  0
  7  8  1  0
  8  9  2  0
  8 10  1  0
 10 11  1  0
 11 12  1  0
 11 13  1  0
 13 14  1  0
 13 15  1  0
 15 16  1  0
 16 17  2  0
 16 18  1  0
 18 19  1  0
 19 20  2  0
 20 21  1  0
 21 22  1  0
  4 23  2  0
 23 24  1  0
 24  2  1  0
 22 18  2  0
  1 25  1  0
  1 26  1  0
  1 27  1  0
  3 28  1  0
  5 29  1  0
  5 30  1  0
  7 31  1  0
  7 32  1  0
 10 33  1  0
 11 34  1  0
 12 35  1  0
 12 36  1  0
 12 37  1  0
 13 38  1  0
 14 39  1  0
 14 40  1  0
 14 41  1  0
 15 42  1  0
 19 43  1  0
 20 44  1  0
 21 45  1  0
M  END
>  <Energy>  (472) 
585.52859539917154

>  <compound_id>  (472) 
35559

>  <target_id>  (472) 
1

>  <reference_id>  (472) 
96

>  <inspiration_ids>  (472) 
[59, 96]

>  <energy_score>  (472) 
455.1154063228964

>  <distance_score>  (472) 
9.441208062441932

>  <path>  (472) 
/opt/xchem-fragalysis-2/maxwin/BulkDock/SCRATCH/511013/C35559-P96/C35559-P96.minimised.mol

>  <scratch_subdir>  (472) 
/opt/xchem-fragalysis-2/maxwin/BulkDock/SCRATCH/511013/C35559-P96

>  <fragmenstein_runtime>  (472) 
15.953205347061157

>  <fragmenstein_outcome>  (472) 
too moved

>  <fragmenstein_mode>  (472) 
expansion

>  <fragmenstein_error>  (472) 


$$$$
C35568-P59
     RDKit          3D

 35 36  0  0  0  0  0  0  0  0999 V2000
  -13.5501   -3.3509   36.3699 C   0  0  0  0  0  0  0  0  0  0  0  0
  -12.3594   -4.0358   35.7143 C   0  0  0  0  0  0  0  0  0  0  0  0
  -11.0423   -3.7014   36.4589 C   0  0  0  0  0  0  0  0  0  0  0  0
  -10.6346   -2.2093   36.4595 C   0  0  0  0  0  0  0  0  0  0  0  0
   -9.3494   -1.8931   35.8428 N   0  0  0  0  0  0  0  0  0  0  0  0
   -8.0911   -1.5259   36.4252 C   0  0  0  0  0  0  0  0  0  0  0  0
   -7.7509   -1.4615   37.5694 O   0  0  0  0  0  0  0  0  0  0  0  0
   -7.0710   -1.1915   35.3813 C   0  0  0  0  0  0  0  0  0  0  0  0
   -5.6710   -0.9974   35.5719 C   0  0  0  0  0  0  0  0  0  0  0  0
   -5.1636   -0.7913   34.3169 C   0  0  0  0  0  0  0  0  0  0  0  0
   -6.1748   -0.8195   33.4190 O   0  0  0  0  0  0  0  0  0  0  0  0
   -7.3717   -1.0667   34.0755 N   0  0  0  0  0  0  0  0  0  0  0  0
  -12.5911   -5.4854   35.5538 N   0  0  0  0  0  0  0  0  0  0  0  0
  -13.0533   -6.4780   36.4891 C   0  0  0  0  0  0  0  0  0  0  0  0
  -13.2933   -6.3965   37.6588 O   0  0  0  0  0  0  0  0  0  0  0  0
  -13.1696   -7.8249   35.8135 C   0  0  0  0  0  0  0  0  0  0  0  0
  -13.5247   -9.0871   36.3926 C   0  0  0  0  0  0  0  0  0  0  0  0
  -13.3442  -10.0302   35.4076 C   0  0  0  0  0  0  0  0  0  0  0  0
  -12.8492   -9.3390   34.3442 N   0  0  0  0  0  0  0  0  0  0  0  0
  -12.8722   -7.9986   34.5075 N   0  0  0  0  0  0  0  0  0  0  0  0
  -14.4793   -3.6170   35.8536 H   0  0  0  0  0  0  0  0  0  0  0  0
  -13.4630   -2.2611   36.3438 H   0  0  0  0  0  0  0  0  0  0  0  0
  -13.6597   -3.6545   37.4165 H   0  0  0  0  0  0  0  0  0  0  0  0
  -12.2774   -3.6553   34.6899 H   0  0  0  0  0  0  0  0  0  0  0  0
  -10.2633   -4.3333   36.0483 H   0  0  0  0  0  0  0  0  0  0  0  0
  -11.1556   -4.0236   37.5030 H   0  0  0  0  0  0  0  0  0  0  0  0
  -11.3768   -1.5905   35.9502 H   0  0  0  0  0  0  0  0  0  0  0  0
  -10.5762   -1.8631   37.4976 H   0  0  0  0  0  0  0  0  0  0  0  0
   -9.3008   -1.7538   34.8329 H   0  0  0  0  0  0  0  0  0  0  0  0
   -5.1257   -1.0377   36.5033 H   0  0  0  0  0  0  0  0  0  0  0  0
   -4.1753   -0.6249   33.9167 H   0  0  0  0  0  0  0  0  0  0  0  0
  -12.4155   -5.9344   34.6527 H   0  0  0  0  0  0  0  0  0  0  0  0
  -13.8262   -9.2590   37.4166 H   0  0  0  0  0  0  0  0  0  0  0  0
  -13.4470  -11.1036   35.3994 H   0  0  0  0  0  0  0  0  0  0  0  0
  -12.4224   -9.7009   33.4927 H   0  0  0  0  0  0  0  0  0  0  0  0
  1  2  1  0
  2  3  1  0
  3  4  1  0
  4  5  1  0
  5  6  1  0
  6  7  2  0
  6  8  1  0
  8  9  1  0
  9 10  2  0
 10 11  1  0
 11 12  1  0
  2 13  1  0
 13 14  1  0
 14 15  2  0
 14 16  1  0
 16 17  1  0
 17 18  2  0
 18 19  1  0
 19 20  1  0
 12  8  2  0
 20 16  2  0
  1 21  1  0
  1 22  1  0
  1 23  1  0
  2 24  1  0
  3 25  1  0
  3 26  1  0
  4 27  1  0
  4 28  1  0
  5 29  1  0
  9 30  1  0
 10 31  1  0
 13 32  1  0
 17 33  1  0
 18 34  1  0
 19 35  1  0
M  END
>  <Energy>  (473) 
39.773454962250064

>  <compound_id>  (473) 
35568

>  <target_id>  (473) 
1

>  <reference_id>  (473) 
59

>  <inspiration_ids>  (473) 
[59, 96]

>  <energy_score>  (473) 
-19.38884736515638

>  <distance_score>  (473) 
11.335018495197355

>  <path>  (473) 
/opt/xchem-fragalysis-2/maxwin/BulkDock/SCRATCH/511013/C35568-P59/C35568-P59.minimised.mol

>  <scratch_subdir>  (473) 
/opt/xchem-fragalysis-2/maxwin/BulkDock/SCRATCH/511013/C35568-P59

>  <fragmenstein_runtime>  (473) 
37.39604926109314

>  <fragmenstein_outcome>  (473) 
too moved

>  <fragmenstein_mode>  (473) 
expansion

>  <fragmenstein_error>  (473) 


$$$$
C35568-P96
     RDKit          3D

 35 36  0  0  0  0  0  0  0  0999 V2000
   -9.0657  -10.5102   31.8866 C   0  0  0  0  0  0  0  0  0  0  0  0
   -7.8968  -11.6552   31.5955 C   0  0  0  0  0  0  0  0  0  0  0  0
   -6.9279  -10.6398   30.3186 C   0  0  0  0  0  0  0  0  0  0  0  0
   -6.0447   -9.0717   29.9308 C   0  0  0  0  0  0  0  0  0  0  0  0
   -5.2131   -7.6225   30.3582 N   0  0  0  0  0  0  0  0  0  0  0  0
   -3.8395   -7.1403   30.0025 C   0  0  0  0  0  0  0  0  0  0  0  0
   -3.0145   -7.6099   29.2679 O   0  0  0  0  0  0  0  0  0  0  0  0
   -3.3397   -5.9549   30.7221 C   0  0  0  0  0  0  0  0  0  0  0  0
   -3.3639   -5.6430   32.1031 C   0  0  0  0  0  0  0  0  0  0  0  0
   -2.6594   -4.4682   32.1993 C   0  0  0  0  0  0  0  0  0  0  0  0
   -2.2514   -4.0758   30.9726 O   0  0  0  0  0  0  0  0  0  0  0  0
   -2.6672   -5.0024   30.0448 N   0  0  0  0  0  0  0  0  0  0  0  0
   -7.7251  -13.3823   32.1578 N   0  0  0  0  0  0  0  0  0  0  0  0
   -8.6477  -14.2511   33.0186 C   0  0  0  0  0  0  0  0  0  0  0  0
   -9.7545  -14.0255   33.4615 O   0  0  0  0  0  0  0  0  0  0  0  0
   -8.0700  -15.5787   33.5023 C   0  0  0  0  0  0  0  0  0  0  0  0
   -7.0047  -16.3597   32.9898 C   0  0  0  0  0  0  0  0  0  0  0  0
   -7.0109  -17.5504   33.6776 C   0  0  0  0  0  0  0  0  0  0  0  0
   -8.0730  -17.4687   34.5174 N   0  0  0  0  0  0  0  0  0  0  0  0
   -8.7041  -16.2889   34.4679 N   0  0  0  0  0  0  0  0  0  0  0  0
   -9.2365   -9.7214   31.1270 H   0  0  0  0  0  0  0  0  0  0  0  0
   -9.8429  -11.2394   31.8582 H   0  0  0  0  0  0  0  0  0  0  0  0
   -8.9046   -9.7701   32.6660 H   0  0  0  0  0  0  0  0  0  0  0  0
   -7.3530  -11.4705   32.4890 H   0  0  0  0  0  0  0  0  0  0  0  0
   -6.6576  -11.4371   29.5810 H   0  0  0  0  0  0  0  0  0  0  0  0
   -7.7157   -9.9515   30.2982 H   0  0  0  0  0  0  0  0  0  0  0  0
   -6.6818   -8.8051   29.0845 H   0  0  0  0  0  0  0  0  0  0  0  0
   -6.4735   -8.7156   30.8481 H   0  0  0  0  0  0  0  0  0  0  0  0
   -5.6038   -7.0185   31.0791 H   0  0  0  0  0  0  0  0  0  0  0  0
   -3.8290   -6.2198   32.8897 H   0  0  0  0  0  0  0  0  0  0  0  0
   -2.3810   -3.8047   33.0006 H   0  0  0  0  0  0  0  0  0  0  0  0
   -6.8383  -13.8530   32.0410 H   0  0  0  0  0  0  0  0  0  0  0  0
   -6.3977  -16.1178   32.1327 H   0  0  0  0  0  0  0  0  0  0  0  0
   -6.4112  -18.4453   33.5947 H   0  0  0  0  0  0  0  0  0  0  0  0
   -8.4235  -18.1729   35.1585 H   0  0  0  0  0  0  0  0  0  0  0  0
  1  2  1  0
  2  3  1  0
  3  4  1  0
  4  5  1  0
  5  6  1  0
  6  7  2  0
  6  8  1  0
  8  9  1  0
  9 10  2  0
 10 11  1  0
 11 12  1  0
  2 13  1  0
 13 14  1  0
 14 15  2  0
 14 16  1  0
 16 17  1  0
 17 18  2  0
 18 19  1  0
 19 20  1  0
 12  8  2  0
 20 16  2  0
  1 21  1  0
  1 22  1  0
  1 23  1  0
  2 24  1  0
  3 25  1  0
  3 26  1  0
  4 27  1  0
  4 28  1  0
  5 29  1  0
  9 30  1  0
 10 31  1  0
 13 32  1  0
 17 33  1  0
 18 34  1  0
 19 35  1  0
M  END
>  <Energy>  (474) 
377.43558495277205

>  <compound_id>  (474) 
35568

>  <target_id>  (474) 
1

>  <reference_id>  (474) 
96

>  <inspiration_ids>  (474) 
[59, 96]

>  <energy_score>  (474) 
318.27328262536776

>  <distance_score>  (474) 
8.555800727171274

>  <path>  (474) 
/opt/xchem-fragalysis-2/maxwin/BulkDock/SCRATCH/511013/C35568-P96/C35568-P96.minimised.mol

>  <scratch_subdir>  (474) 
/opt/xchem-fragalysis-2/maxwin/BulkDock/SCRATCH/511013/C35568-P96

>  <fragmenstein_runtime>  (474) 
9.14140796661377

>  <fragmenstein_outcome>  (474) 
too moved

>  <fragmenstein_mode>  (474) 
expansion

>  <fragmenstein_error>  (474) 


$$$$
C35569-P59
     RDKit          3D

 46 47  0  0  0  0  0  0  0  0999 V2000
   -7.9615  -11.7558   33.0474 C   0  0  0  0  0  0  0  0  0  0  0  0
   -6.5703  -11.1799   33.0518 C   0  0  0  0  0  0  0  0  0  0  0  0
   -5.7748   -9.2950   33.6796 C   0  0  0  0  0  0  0  0  0  0  0  0
   -6.7970   -7.3414   33.4064 C   0  0  0  0  0  0  0  0  0  0  0  0
   -6.2461   -5.5178   34.0818 N   0  0  0  0  0  0  0  0  0  0  0  0
   -5.1925   -4.0794   33.2383 C   0  0  0  0  0  0  0  0  0  0  0  0
   -4.7404   -3.9818   32.1043 O   0  0  0  0  0  0  0  0  0  0  0  0
   -4.9037   -2.6317   34.0976 C   0  0  0  0  0  0  0  0  0  0  0  0
   -3.5512   -2.1059   34.2558 C   0  0  0  0  0  0  0  0  0  0  0  0
   -3.5141   -1.0220   33.4152 C   0  0  0  0  0  0  0  0  0  0  0  0
   -2.4181   -0.3107   32.6976 C   0  0  0  0  0  0  0  0  0  0  0  0
   -1.2154   -1.1388   32.4776 N   0  0  0  0  0  0  0  0  0  0  0  0
   -0.0863   -0.2847   32.0987 C   0  0  0  0  0  0  0  0  0  0  0  0
   -1.4501   -2.1257   31.4131 C   0  0  0  0  0  0  0  0  0  0  0  0
   -4.7928   -0.6241   33.1950 O   0  0  0  0  0  0  0  0  0  0  0  0
   -5.6678   -1.5672   33.7304 N   0  0  0  0  0  0  0  0  0  0  0  0
   -6.3581  -12.8383   32.9216 N   0  0  0  0  0  0  0  0  0  0  0  0
   -6.3006  -13.8967   31.5209 C   0  0  0  0  0  0  0  0  0  0  0  0
   -6.5081  -13.6569   30.3575 O   0  0  0  0  0  0  0  0  0  0  0  0
   -5.7360  -15.4656   31.6817 C   0  0  0  0  0  0  0  0  0  0  0  0
   -5.2150  -16.1555   30.4868 C   0  0  0  0  0  0  0  0  0  0  0  0
   -4.7143  -17.3645   30.8944 C   0  0  0  0  0  0  0  0  0  0  0  0
   -4.8169  -17.3337   32.2428 N   0  0  0  0  0  0  0  0  0  0  0  0
   -5.1762  -16.1328   32.7258 N   0  0  0  0  0  0  0  0  0  0  0  0
   -8.2511  -11.7085   34.1041 H   0  0  0  0  0  0  0  0  0  0  0  0
   -8.1894  -12.8026   32.9291 H   0  0  0  0  0  0  0  0  0  0  0  0
   -8.5897  -11.2880   32.2891 H   0  0  0  0  0  0  0  0  0  0  0  0
   -5.9077  -11.1432   32.2300 H   0  0  0  0  0  0  0  0  0  0  0  0
   -5.2818   -9.5133   34.6635 H   0  0  0  0  0  0  0  0  0  0  0  0
   -4.9155   -8.9484   33.0955 H   0  0  0  0  0  0  0  0  0  0  0  0
   -6.8814   -7.0554   32.3319 H   0  0  0  0  0  0  0  0  0  0  0  0
   -7.8699   -7.2395   33.6909 H   0  0  0  0  0  0  0  0  0  0  0  0
   -6.5429   -5.2644   35.0201 H   0  0  0  0  0  0  0  0  0  0  0  0
   -2.6460   -2.6425   34.5020 H   0  0  0  0  0  0  0  0  0  0  0  0
   -2.1589    0.5567   33.3165 H   0  0  0  0  0  0  0  0  0  0  0  0
   -2.7839    0.0544   31.7342 H   0  0  0  0  0  0  0  0  0  0  0  0
   -0.2827    0.2796   31.1796 H   0  0  0  0  0  0  0  0  0  0  0  0
    0.8182   -0.8851   31.9499 H   0  0  0  0  0  0  0  0  0  0  0  0
    0.1418    0.4281   32.8990 H   0  0  0  0  0  0  0  0  0  0  0  0
   -0.5569   -2.7432   31.2640 H   0  0  0  0  0  0  0  0  0  0  0  0
   -1.7033   -1.6533   30.4567 H   0  0  0  0  0  0  0  0  0  0  0  0
   -2.2563   -2.8151   31.6785 H   0  0  0  0  0  0  0  0  0  0  0  0
   -6.0605  -13.3111   33.7179 H   0  0  0  0  0  0  0  0  0  0  0  0
   -5.2871  -15.7887   29.4698 H   0  0  0  0  0  0  0  0  0  0  0  0
   -4.2893  -18.1970   30.3563 H   0  0  0  0  0  0  0  0  0  0  0  0
   -4.5410  -18.0509   32.9045 H   0  0  0  0  0  0  0  0  0  0  0  0
  1  2  1  0
  2  3  1  0
  3  4  1  0
  4  5  1  0
  5  6  1  0
  6  7  2  0
  6  8  1  0
  8  9  1  0
  9 10  2  0
 10 11  1  0
 11 12  1  0
 12 13  1  0
 12 14  1  0
 10 15  1  0
 15 16  1  0
  2 17  1  0
 17 18  1  0
 18 19  2  0
 18 20  1  0
 20 21  1  0
 21 22  2  0
 22 23  1  0
 23 24  1  0
 16  8  2  0
 24 20  2  0
  1 25  1  0
  1 26  1  0
  1 27  1  0
  2 28  1  0
  3 29  1  0
  3 30  1  0
  4 31  1  0
  4 32  1  0
  5 33  1  0
  9 34  1  0
 11 35  1  0
 11 36  1  0
 13 37  1  0
 13 38  1  0
 13 39  1  0
 14 40  1  0
 14 41  1  0
 14 42  1  0
 17 43  1  0
 21 44  1  0
 22 45  1  0
 23 46  1  0
M  END
>  <Energy>  (475) 
722.66790103738083

>  <compound_id>  (475) 
35569

>  <target_id>  (475) 
1

>  <reference_id>  (475) 
59

>  <inspiration_ids>  (475) 
[59, 96]

>  <energy_score>  (475) 
628.8002564509771

>  <distance_score>  (475) 
8.02344845210917

>  <path>  (475) 
/opt/xchem-fragalysis-2/maxwin/BulkDock/SCRATCH/511013/C35569-P59/C35569-P59.minimised.mol

>  <scratch_subdir>  (475) 
/opt/xchem-fragalysis-2/maxwin/BulkDock/SCRATCH/511013/C35569-P59

>  <fragmenstein_runtime>  (475) 
20.756385803222656

>  <fragmenstein_outcome>  (475) 
too moved

>  <fragmenstein_mode>  (475) 
expansion

>  <fragmenstein_error>  (475) 


$$$$
C35569-P96
     RDKit          3D

 46 47  0  0  0  0  0  0  0  0999 V2000
   -7.2521   -7.9826   34.0938 C   0  0  0  0  0  0  0  0  0  0  0  0
   -8.0242   -8.7875   32.7434 C   0  0  0  0  0  0  0  0  0  0  0  0
   -6.5175   -7.6699   31.7358 C   0  0  0  0  0  0  0  0  0  0  0  0
   -4.9770   -6.8716   32.4034 C   0  0  0  0  0  0  0  0  0  0  0  0
   -3.9653   -5.8401   32.0237 N   0  0  0  0  0  0  0  0  0  0  0  0
   -3.1212   -5.7151   30.8207 C   0  0  0  0  0  0  0  0  0  0  0  0
   -2.9816   -6.4542   29.8861 O   0  0  0  0  0  0  0  0  0  0  0  0
   -2.4115   -4.4055   30.7269 C   0  0  0  0  0  0  0  0  0  0  0  0
   -1.7711   -3.5921   31.6982 C   0  0  0  0  0  0  0  0  0  0  0  0
   -1.3466   -2.4762   31.0060 C   0  0  0  0  0  0  0  0  0  0  0  0
   -0.6229   -1.2191   31.3413 C   0  0  0  0  0  0  0  0  0  0  0  0
    0.8351   -1.2258   31.1480 N   0  0  0  0  0  0  0  0  0  0  0  0
    1.5260   -2.1477   32.0422 C   0  0  0  0  0  0  0  0  0  0  0  0
    1.2104   -1.4682   29.7553 C   0  0  0  0  0  0  0  0  0  0  0  0
   -1.7346   -2.5905   29.7120 O   0  0  0  0  0  0  0  0  0  0  0  0
   -2.3815   -3.7856   29.5302 N   0  0  0  0  0  0  0  0  0  0  0  0
   -8.3656  -10.8418   32.2331 N   0  0  0  0  0  0  0  0  0  0  0  0
   -7.3496  -12.5051   32.6956 C   0  0  0  0  0  0  0  0  0  0  0  0
   -6.2663  -12.6471   33.2876 O   0  0  0  0  0  0  0  0  0  0  0  0
   -7.9806  -13.9341   32.4277 C   0  0  0  0  0  0  0  0  0  0  0  0
   -6.9272  -15.0207   32.5480 C   0  0  0  0  0  0  0  0  0  0  0  0
   -7.3744  -15.9609   33.4399 C   0  0  0  0  0  0  0  0  0  0  0  0
   -8.5971  -15.5176   33.8114 N   0  0  0  0  0  0  0  0  0  0  0  0
   -9.0324  -14.4001   33.1815 N   0  0  0  0  0  0  0  0  0  0  0  0
   -6.2708   -7.6234   33.8734 H   0  0  0  0  0  0  0  0  0  0  0  0
   -7.2871   -8.3938   35.0476 H   0  0  0  0  0  0  0  0  0  0  0  0
   -7.1049   -6.9400   34.1571 H   0  0  0  0  0  0  0  0  0  0  0  0
   -8.9668   -8.7341   33.2244 H   0  0  0  0  0  0  0  0  0  0  0  0
   -6.5597   -6.6333   31.5363 H   0  0  0  0  0  0  0  0  0  0  0  0
   -6.1769   -8.2379   30.8494 H   0  0  0  0  0  0  0  0  0  0  0  0
   -4.4517   -7.4905   33.1249 H   0  0  0  0  0  0  0  0  0  0  0  0
   -4.7320   -7.0933   31.3628 H   0  0  0  0  0  0  0  0  0  0  0  0
   -3.8978   -4.9950   32.5618 H   0  0  0  0  0  0  0  0  0  0  0  0
   -1.6083   -3.8052   32.7383 H   0  0  0  0  0  0  0  0  0  0  0  0
   -0.8371   -0.9581   32.3855 H   0  0  0  0  0  0  0  0  0  0  0  0
   -1.0506   -0.3946   30.7554 H   0  0  0  0  0  0  0  0  0  0  0  0
    2.6115   -2.0661   31.9152 H   0  0  0  0  0  0  0  0  0  0  0  0
    1.2453   -3.1923   31.8849 H   0  0  0  0  0  0  0  0  0  0  0  0
    1.3195   -1.8897   33.0860 H   0  0  0  0  0  0  0  0  0  0  0  0
    2.2876   -1.3170   29.6220 H   0  0  0  0  0  0  0  0  0  0  0  0
    0.7129   -0.7533   29.0903 H   0  0  0  0  0  0  0  0  0  0  0  0
    0.9705   -2.4810   29.4169 H   0  0  0  0  0  0  0  0  0  0  0  0
   -9.2550  -11.0571   31.8267 H   0  0  0  0  0  0  0  0  0  0  0  0
   -5.9100  -14.9353   32.1860 H   0  0  0  0  0  0  0  0  0  0  0  0
   -6.9184  -16.8424   33.8650 H   0  0  0  0  0  0  0  0  0  0  0  0
   -9.2187  -15.9562   34.4791 H   0  0  0  0  0  0  0  0  0  0  0  0
  1  2  1  0
  2  3  1  0
  3  4  1  0
  4  5  1  0
  5  6  1  0
  6  7  2  0
  6  8  1  0
  8  9  1  0
  9 10  2  0
 10 11  1  0
 11 12  1  0
 12 13  1  0
 12 14  1  0
 10 15  1  0
 15 16  1  0
  2 17  1  0
 17 18  1  0
 18 19  2  0
 18 20  1  0
 20 21  1  0
 21 22  2  0
 22 23  1  0
 23 24  1  0
 16  8  2  0
 24 20  2  0
  1 25  1  0
  1 26  1  0
  1 27  1  0
  2 28  1  0
  3 29  1  0
  3 30  1  0
  4 31  1  0
  4 32  1  0
  5 33  1  0
  9 34  1  0
 11 35  1  0
 11 36  1  0
 13 37  1  0
 13 38  1  0
 13 39  1  0
 14 40  1  0
 14 41  1  0
 14 42  1  0
 17 43  1  0
 21 44  1  0
 22 45  1  0
 23 46  1  0
M  END
>  <Energy>  (476) 
704.23507689461178

>  <compound_id>  (476) 
35569

>  <target_id>  (476) 
1

>  <reference_id>  (476) 
96

>  <inspiration_ids>  (476) 
[59, 96]

>  <energy_score>  (476) 
610.3674323082287

>  <distance_score>  (476) 
7.627644651950927

>  <path>  (476) 
/opt/xchem-fragalysis-2/maxwin/BulkDock/SCRATCH/511013/C35569-P96/C35569-P96.minimised.mol

>  <scratch_subdir>  (476) 
/opt/xchem-fragalysis-2/maxwin/BulkDock/SCRATCH/511013/C35569-P96

>  <fragmenstein_runtime>  (476) 
15.896753787994385

>  <fragmenstein_outcome>  (476) 
too moved

>  <fragmenstein_mode>  (476) 
expansion

>  <fragmenstein_error>  (476) 


$$$$
C35570-P59
     RDKit          3D

 42 44  0  0  0  0  0  0  0  0999 V2000
  -10.9385   -7.2846   30.9579 C   0  0  0  0  0  0  0  0  0  0  0  0
  -10.0076   -8.7752   29.9693 C   0  0  0  0  0  0  0  0  0  0  0  0
   -9.0829   -7.1217   31.3635 C   0  0  0  0  0  0  0  0  0  0  0  0
   -7.1535   -6.3938   32.2345 C   0  0  0  0  0  0  0  0  0  0  0  0
   -5.6591   -4.8500   32.6066 N   0  0  0  0  0  0  0  0  0  0  0  0
   -5.6731   -3.0471   32.2635 C   0  0  0  0  0  0  0  0  0  0  0  0
   -6.5757   -2.3289   31.8251 O   0  0  0  0  0  0  0  0  0  0  0  0
   -4.3537   -2.3939   32.5439 C   0  0  0  0  0  0  0  0  0  0  0  0
   -3.1505   -2.4406   31.7850 C   0  0  0  0  0  0  0  0  0  0  0  0
   -2.3589   -1.4379   32.2815 C   0  0  0  0  0  0  0  0  0  0  0  0
   -0.9658   -0.9961   31.7562 C   0  0  0  0  0  0  0  0  0  0  0  0
   -0.4004   -1.5225   30.4624 C   0  0  0  0  0  0  0  0  0  0  0  0
   -0.9110   -0.1136   30.5362 C   0  0  0  0  0  0  0  0  0  0  0  0
   -3.0118   -0.8426   33.3109 O   0  0  0  0  0  0  0  0  0  0  0  0
   -4.2620   -1.4167   33.4660 N   0  0  0  0  0  0  0  0  0  0  0  0
   -9.3484  -10.8101   30.0647 N   0  0  0  0  0  0  0  0  0  0  0  0
   -9.5222  -12.7258   28.7671 C   0  0  0  0  0  0  0  0  0  0  0  0
  -10.2876  -12.8856   27.6131 O   0  0  0  0  0  0  0  0  0  0  0  0
   -8.6578  -14.0364   28.9458 C   0  0  0  0  0  0  0  0  0  0  0  0
   -9.2348  -15.1073   27.9954 C   0  0  0  0  0  0  0  0  0  0  0  0
   -8.2324  -15.6474   27.2369 C   0  0  0  0  0  0  0  0  0  0  0  0
   -7.1348  -14.9324   27.5661 N   0  0  0  0  0  0  0  0  0  0  0  0
   -7.3144  -13.9784   28.5024 N   0  0  0  0  0  0  0  0  0  0  0  0
  -10.8613   -7.1316   32.0025 H   0  0  0  0  0  0  0  0  0  0  0  0
  -11.9468   -6.7448   30.8726 H   0  0  0  0  0  0  0  0  0  0  0  0
  -10.8638   -6.3948   30.2019 H   0  0  0  0  0  0  0  0  0  0  0  0
   -9.7981   -8.6246   28.9035 H   0  0  0  0  0  0  0  0  0  0  0  0
   -9.3983   -6.4191   30.7495 H   0  0  0  0  0  0  0  0  0  0  0  0
   -9.3838   -7.2347   32.5107 H   0  0  0  0  0  0  0  0  0  0  0  0
   -6.4736   -7.0908   31.8455 H   0  0  0  0  0  0  0  0  0  0  0  0
   -7.3899   -6.6649   33.2872 H   0  0  0  0  0  0  0  0  0  0  0  0
   -4.8364   -5.0839   32.8460 H   0  0  0  0  0  0  0  0  0  0  0  0
   -2.9066   -3.0225   30.9186 H   0  0  0  0  0  0  0  0  0  0  0  0
   -0.2544   -0.7813   32.5481 H   0  0  0  0  0  0  0  0  0  0  0  0
    0.6729   -1.6650   30.3985 H   0  0  0  0  0  0  0  0  0  0  0  0
   -0.9646   -2.2172   29.8516 H   0  0  0  0  0  0  0  0  0  0  0  0
   -1.8291    0.1108   30.0032 H   0  0  0  0  0  0  0  0  0  0  0  0
   -0.1849    0.6911   30.5202 H   0  0  0  0  0  0  0  0  0  0  0  0
   -8.7743  -10.9720   30.9296 H   0  0  0  0  0  0  0  0  0  0  0  0
  -10.2959  -15.2583   27.8290 H   0  0  0  0  0  0  0  0  0  0  0  0
   -8.2267  -16.3795   26.4463 H   0  0  0  0  0  0  0  0  0  0  0  0
   -6.2084  -15.0173   27.1653 H   0  0  0  0  0  0  0  0  0  0  0  0
  1  2  1  0
  2  3  1  0
  3  4  1  0
  4  5  1  0
  5  6  1  0
  6  7  2  0
  6  8  1  0
  8  9  1  0
  9 10  2  0
 10 11  1  0
 11 12  1  0
 12 13  1  0
 10 14  1  0
 14 15  1  0
  2 16  1  0
 16 17  1  0
 17 18  2  0
 17 19  1  0
 19 20  1  0
 20 21  2  0
 21 22  1  0
 22 23  1  0
 15  8  2  0
 23 19  2  0
 13 11  1  0
  1 24  1  0
  1 25  1  0
  1 26  1  0
  2 27  1  0
  3 28  1  0
  3 29  1  0
  4 30  1  0
  4 31  1  0
  5 32  1  0
  9 33  1  0
 11 34  1  0
 12 35  1  0
 12 36  1  0
 13 37  1  0
 13 38  1  0
 16 39  1  0
 20 40  1  0
 21 41  1  0
 22 42  1  0
M  END
>  <Energy>  (477) 
1683.5391941449755

>  <compound_id>  (477) 
35570

>  <target_id>  (477) 
1

>  <reference_id>  (477) 
59

>  <inspiration_ids>  (477) 
[59, 96]

>  <energy_score>  (477) 
1603.849046001404

>  <distance_score>  (477) 
7.491873028172639

>  <path>  (477) 
/opt/xchem-fragalysis-2/maxwin/BulkDock/SCRATCH/511013/C35570-P59/C35570-P59.minimised.mol

>  <scratch_subdir>  (477) 
/opt/xchem-fragalysis-2/maxwin/BulkDock/SCRATCH/511013/C35570-P59

>  <fragmenstein_runtime>  (477) 
24.422513484954834

>  <fragmenstein_outcome>  (477) 
too moved

>  <fragmenstein_mode>  (477) 
expansion

>  <fragmenstein_error>  (477) 


$$$$
C35570-P96
     RDKit          3D

 42 44  0  0  0  0  0  0  0  0999 V2000
   -8.6756   -9.0733   33.0494 C   0  0  0  0  0  0  0  0  0  0  0  0
   -8.6515  -10.1051   31.4732 C   0  0  0  0  0  0  0  0  0  0  0  0
   -6.8322   -9.3859   30.6488 C   0  0  0  0  0  0  0  0  0  0  0  0
   -5.7618   -7.7108   30.9453 C   0  0  0  0  0  0  0  0  0  0  0  0
   -4.7457   -6.8361   30.2734 N   0  0  0  0  0  0  0  0  0  0  0  0
   -3.3497   -6.5195   30.6417 C   0  0  0  0  0  0  0  0  0  0  0  0
   -2.6586   -6.9499   31.5205 O   0  0  0  0  0  0  0  0  0  0  0  0
   -2.7271   -5.4160   29.8702 C   0  0  0  0  0  0  0  0  0  0  0  0
   -1.9236   -5.3239   28.7096 C   0  0  0  0  0  0  0  0  0  0  0  0
   -1.6664   -3.9760   28.5649 C   0  0  0  0  0  0  0  0  0  0  0  0
   -0.9385   -3.2776   27.3909 C   0  0  0  0  0  0  0  0  0  0  0  0
   -1.0923   -1.7883   27.2172 C   0  0  0  0  0  0  0  0  0  0  0  0
    0.2134   -2.3568   27.6923 C   0  0  0  0  0  0  0  0  0  0  0  0
   -2.1691   -3.3120   29.6300 O   0  0  0  0  0  0  0  0  0  0  0  0
   -2.7856   -4.2049   30.4635 N   0  0  0  0  0  0  0  0  0  0  0  0
   -8.6019  -12.1334   31.4886 N   0  0  0  0  0  0  0  0  0  0  0  0
   -9.7117  -13.2776   32.1568 C   0  0  0  0  0  0  0  0  0  0  0  0
  -10.7172  -13.0898   32.8342 O   0  0  0  0  0  0  0  0  0  0  0  0
   -9.5850  -14.7102   31.8386 C   0  0  0  0  0  0  0  0  0  0  0  0
   -9.4841  -16.6408   32.6106 C   0  0  0  0  0  0  0  0  0  0  0  0
   -9.8577  -17.8804   31.2840 C   0  0  0  0  0  0  0  0  0  0  0  0
  -10.4977  -16.7229   29.6083 N   0  0  0  0  0  0  0  0  0  0  0  0
  -10.9532  -14.9885   30.5143 N   0  0  0  0  0  0  0  0  0  0  0  0
   -9.5220   -9.0526   33.6966 H   0  0  0  0  0  0  0  0  0  0  0  0
   -7.9322   -8.3617   32.8477 H   0  0  0  0  0  0  0  0  0  0  0  0
   -7.9992   -8.6632   33.8493 H   0  0  0  0  0  0  0  0  0  0  0  0
   -9.4199   -9.5919   30.8734 H   0  0  0  0  0  0  0  0  0  0  0  0
   -7.0991   -8.6062   31.3411 H   0  0  0  0  0  0  0  0  0  0  0  0
   -6.6318   -9.3588   29.5999 H   0  0  0  0  0  0  0  0  0  0  0  0
   -6.3238   -6.9245   31.4132 H   0  0  0  0  0  0  0  0  0  0  0  0
   -5.3955   -7.6032   31.9812 H   0  0  0  0  0  0  0  0  0  0  0  0
   -5.0416   -6.2163   29.5209 H   0  0  0  0  0  0  0  0  0  0  0  0
   -1.5602   -6.1091   28.0650 H   0  0  0  0  0  0  0  0  0  0  0  0
   -0.9068   -3.8595   26.4782 H   0  0  0  0  0  0  0  0  0  0  0  0
   -1.1399   -1.3990   26.2058 H   0  0  0  0  0  0  0  0  0  0  0  0
   -1.6860   -1.2289   27.9311 H   0  0  0  0  0  0  0  0  0  0  0  0
    0.4906   -2.2081   28.7308 H   0  0  0  0  0  0  0  0  0  0  0  0
    1.0500   -2.3348   27.0059 H   0  0  0  0  0  0  0  0  0  0  0  0
   -7.9275  -12.6096   30.9129 H   0  0  0  0  0  0  0  0  0  0  0  0
   -9.1595  -16.8305   33.6267 H   0  0  0  0  0  0  0  0  0  0  0  0
  -10.0908  -18.9604   31.1685 H   0  0  0  0  0  0  0  0  0  0  0  0
  -11.2093  -17.1145   28.9982 H   0  0  0  0  0  0  0  0  0  0  0  0
  1  2  1  0
  2  3  1  0
  3  4  1  0
  4  5  1  0
  5  6  1  0
  6  7  2  0
  6  8  1  0
  8  9  1  0
  9 10  2  0
 10 11  1  0
 11 12  1  0
 12 13  1  0
 10 14  1  0
 14 15  1  0
  2 16  1  0
 16 17  1  0
 17 18  2  0
 17 19  1  0
 19 20  1  0
 20 21  2  0
 21 22  1  0
 22 23  1  0
 15  8  2  0
 23 19  2  0
 13 11  1  0
  1 24  1  0
  1 25  1  0
  1 26  1  0
  2 27  1  0
  3 28  1  0
  3 29  1  0
  4 30  1  0
  4 31  1  0
  5 32  1  0
  9 33  1  0
 11 34  1  0
 12 35  1  0
 12 36  1  0
 13 37  1  0
 13 38  1  0
 16 39  1  0
 20 40  1  0
 21 41  1  0
 22 42  1  0
M  END
>  <Energy>  (478) 
1208.6153768671045

>  <compound_id>  (478) 
35570

>  <target_id>  (478) 
1

>  <reference_id>  (478) 
96

>  <inspiration_ids>  (478) 
[59, 96]

>  <energy_score>  (478) 
1128.9252287235258

>  <distance_score>  (478) 
7.337368889117092

>  <path>  (478) 
/opt/xchem-fragalysis-2/maxwin/BulkDock/SCRATCH/511013/C35570-P96/C35570-P96.minimised.mol

>  <scratch_subdir>  (478) 
/opt/xchem-fragalysis-2/maxwin/BulkDock/SCRATCH/511013/C35570-P96

>  <fragmenstein_runtime>  (478) 
13.035042762756348

>  <fragmenstein_outcome>  (478) 
too moved

>  <fragmenstein_mode>  (478) 
expansion

>  <fragmenstein_error>  (478) 


$$$$
C35571-P59
     RDKit          3D

 41 42  0  0  0  0  0  0  0  0999 V2000
   -4.1081    0.4250   34.8528 C   0  0  0  0  0  0  0  0  0  0  0  0
   -5.4883    0.3510   34.2170 C   0  0  0  0  0  0  0  0  0  0  0  0
   -5.6719   -0.8207   33.3363 C   0  0  0  0  0  0  0  0  0  0  0  0
   -4.9309   -1.9260   33.0595 C   0  0  0  0  0  0  0  0  0  0  0  0
   -5.7638   -2.7735   32.2103 C   0  0  0  0  0  0  0  0  0  0  0  0
   -4.9636   -4.2397   31.8492 C   0  0  0  0  0  0  0  0  0  0  0  0
   -3.7286   -3.9748   31.7056 O   0  0  0  0  0  0  0  0  0  0  0  0
   -5.9070   -6.1361   31.8419 N   0  0  0  0  0  0  0  0  0  0  0  0
   -5.1026   -8.1922   31.7735 C   0  0  0  0  0  0  0  0  0  0  0  0
   -5.5003  -10.3593   31.5126 C   0  0  0  0  0  0  0  0  0  0  0  0
   -5.4892  -11.6791   29.8095 C   0  0  0  0  0  0  0  0  0  0  0  0
   -6.0828  -13.4992   30.1180 C   0  0  0  0  0  0  0  0  0  0  0  0
   -4.7524  -12.5923   28.6929 N   0  0  0  0  0  0  0  0  0  0  0  0
   -5.1844  -13.0201   27.3893 C   0  0  0  0  0  0  0  0  0  0  0  0
   -6.1609  -12.7409   26.7606 O   0  0  0  0  0  0  0  0  0  0  0  0
   -4.2698  -14.0580   26.8342 C   0  0  0  0  0  0  0  0  0  0  0  0
   -4.5722  -14.8793   25.7025 C   0  0  0  0  0  0  0  0  0  0  0  0
   -3.8135  -16.0140   25.8502 C   0  0  0  0  0  0  0  0  0  0  0  0
   -3.0960  -15.8296   26.9906 N   0  0  0  0  0  0  0  0  0  0  0  0
   -3.3175  -14.6458   27.5961 N   0  0  0  0  0  0  0  0  0  0  0  0
   -6.8329   -2.0549   31.8428 N   0  0  0  0  0  0  0  0  0  0  0  0
   -6.8325   -0.9104   32.6354 O   0  0  0  0  0  0  0  0  0  0  0  0
   -3.9117   -0.4500   35.4818 H   0  0  0  0  0  0  0  0  0  0  0  0
   -4.0309    1.3162   35.4840 H   0  0  0  0  0  0  0  0  0  0  0  0
   -3.3212    0.4802   34.0929 H   0  0  0  0  0  0  0  0  0  0  0  0
   -6.2406    0.3112   35.0140 H   0  0  0  0  0  0  0  0  0  0  0  0
   -5.6658    1.2754   33.6682 H   0  0  0  0  0  0  0  0  0  0  0  0
   -3.9580   -2.1782   33.4593 H   0  0  0  0  0  0  0  0  0  0  0  0
   -6.8644   -6.0744   32.0564 H   0  0  0  0  0  0  0  0  0  0  0  0
   -5.6114   -8.4832   30.8965 H   0  0  0  0  0  0  0  0  0  0  0  0
   -3.9887   -8.1950   31.7217 H   0  0  0  0  0  0  0  0  0  0  0  0
   -5.7642  -10.9392   32.4875 H   0  0  0  0  0  0  0  0  0  0  0  0
   -4.5149  -10.6779   31.0493 H   0  0  0  0  0  0  0  0  0  0  0  0
   -4.3843  -11.7400   29.9395 H   0  0  0  0  0  0  0  0  0  0  0  0
   -5.2912  -14.2627   30.0723 H   0  0  0  0  0  0  0  0  0  0  0  0
   -6.6977  -13.7872   29.2509 H   0  0  0  0  0  0  0  0  0  0  0  0
   -6.6526  -13.6356   31.0509 H   0  0  0  0  0  0  0  0  0  0  0  0
   -3.9029  -13.1038   28.9461 H   0  0  0  0  0  0  0  0  0  0  0  0
   -5.3448  -14.7014   24.9661 H   0  0  0  0  0  0  0  0  0  0  0  0
   -3.7483  -16.9251   25.2732 H   0  0  0  0  0  0  0  0  0  0  0  0
   -2.4338  -16.4692   27.4166 H   0  0  0  0  0  0  0  0  0  0  0  0
  1  2  1  0
  2  3  1  0
  3  4  2  0
  4  5  1  0
  5  6  1  0
  6  7  2  0
  6  8  1  0
  8  9  1  0
  9 10  1  0
 10 11  1  0
 11 12  1  0
 11 13  1  0
 13 14  1  0
 14 15  2  0
 14 16  1  0
 16 17  1  0
 17 18  2  0
 18 19  1  0
 19 20  1  0
  5 21  2  0
 21 22  1  0
 22  3  1  0
 20 16  2  0
  1 23  1  0
  1 24  1  0
  1 25  1  0
  2 26  1  0
  2 27  1  0
  4 28  1  0
  8 29  1  0
  9 30  1  0
  9 31  1  0
 10 32  1  0
 10 33  1  0
 11 34  1  0
 12 35  1  0
 12 36  1  0
 12 37  1  0
 13 38  1  0
 17 39  1  0
 18 40  1  0
 19 41  1  0
M  END
>  <Energy>  (479) 
973.44701263659772

>  <compound_id>  (479) 
35571

>  <target_id>  (479) 
1

>  <reference_id>  (479) 
59

>  <inspiration_ids>  (479) 
[59, 96]

>  <energy_score>  (479) 
907.9392900099119

>  <distance_score>  (479) 
9.383822780668986

>  <path>  (479) 
/opt/xchem-fragalysis-2/maxwin/BulkDock/SCRATCH/511013/C35571-P59/C35571-P59.minimised.mol

>  <scratch_subdir>  (479) 
/opt/xchem-fragalysis-2/maxwin/BulkDock/SCRATCH/511013/C35571-P59

>  <fragmenstein_runtime>  (479) 
21.010162830352783

>  <fragmenstein_outcome>  (479) 
too moved

>  <fragmenstein_mode>  (479) 
expansion

>  <fragmenstein_error>  (479) 


$$$$
C35571-P96
     RDKit          3D

 41 42  0  0  0  0  0  0  0  0999 V2000
    0.2985   -2.0952   31.4174 C   0  0  0  0  0  0  0  0  0  0  0  0
   -0.7856   -2.5414   30.4477 C   0  0  0  0  0  0  0  0  0  0  0  0
   -1.6665   -3.5989   31.0128 C   0  0  0  0  0  0  0  0  0  0  0  0
   -2.2383   -4.7380   30.4959 C   0  0  0  0  0  0  0  0  0  0  0  0
   -3.0974   -5.2131   31.5231 C   0  0  0  0  0  0  0  0  0  0  0  0
   -4.1837   -6.2528   31.4154 C   0  0  0  0  0  0  0  0  0  0  0  0
   -4.2194   -6.9723   30.4572 O   0  0  0  0  0  0  0  0  0  0  0  0
   -5.0119   -6.2205   32.6117 N   0  0  0  0  0  0  0  0  0  0  0  0
   -6.1046   -7.1333   33.0816 C   0  0  0  0  0  0  0  0  0  0  0  0
   -7.7373   -8.3572   32.7940 C   0  0  0  0  0  0  0  0  0  0  0  0
   -8.2836   -9.5371   31.1204 C   0  0  0  0  0  0  0  0  0  0  0  0
   -6.6526   -9.4406   30.1020 C   0  0  0  0  0  0  0  0  0  0  0  0
   -7.9564  -11.2989   31.8187 N   0  0  0  0  0  0  0  0  0  0  0  0
   -8.2040  -12.5520   31.2957 C   0  0  0  0  0  0  0  0  0  0  0  0
   -8.6033  -12.8543   30.2652 O   0  0  0  0  0  0  0  0  0  0  0  0
   -7.9005  -13.8646   32.3970 C   0  0  0  0  0  0  0  0  0  0  0  0
   -6.7563  -14.7251   32.4968 C   0  0  0  0  0  0  0  0  0  0  0  0
   -7.0638  -15.7261   33.3959 C   0  0  0  0  0  0  0  0  0  0  0  0
   -8.3255  -15.4550   33.8084 N   0  0  0  0  0  0  0  0  0  0  0  0
   -8.8538  -14.3790   33.2243 N   0  0  0  0  0  0  0  0  0  0  0  0
   -2.9562   -4.4614   32.6367 N   0  0  0  0  0  0  0  0  0  0  0  0
   -2.0764   -3.4452   32.3003 O   0  0  0  0  0  0  0  0  0  0  0  0
   -0.1345   -1.6179   32.3033 H   0  0  0  0  0  0  0  0  0  0  0  0
    0.9602   -1.3682   30.9362 H   0  0  0  0  0  0  0  0  0  0  0  0
    0.9070   -2.9388   31.7588 H   0  0  0  0  0  0  0  0  0  0  0  0
   -1.4030   -1.6775   30.1750 H   0  0  0  0  0  0  0  0  0  0  0  0
   -0.3218   -2.9018   29.5228 H   0  0  0  0  0  0  0  0  0  0  0  0
   -2.1277   -5.1181   29.4920 H   0  0  0  0  0  0  0  0  0  0  0  0
   -4.6451   -5.5372   33.2456 H   0  0  0  0  0  0  0  0  0  0  0  0
   -6.2993   -6.7535   34.0981 H   0  0  0  0  0  0  0  0  0  0  0  0
   -5.2095   -7.7366   33.2617 H   0  0  0  0  0  0  0  0  0  0  0  0
   -7.5975   -8.4847   33.8868 H   0  0  0  0  0  0  0  0  0  0  0  0
   -8.6617   -8.6799   33.2969 H   0  0  0  0  0  0  0  0  0  0  0  0
   -9.2951   -9.3484   30.7569 H   0  0  0  0  0  0  0  0  0  0  0  0
   -6.0554   -8.6236   30.5209 H   0  0  0  0  0  0  0  0  0  0  0  0
   -6.1789  -10.3656   29.8155 H   0  0  0  0  0  0  0  0  0  0  0  0
   -6.7970   -8.9494   29.1224 H   0  0  0  0  0  0  0  0  0  0  0  0
   -7.6936  -11.3970   32.7618 H   0  0  0  0  0  0  0  0  0  0  0  0
   -5.8557  -14.6589   31.9035 H   0  0  0  0  0  0  0  0  0  0  0  0
   -6.5203  -16.5951   33.7355 H   0  0  0  0  0  0  0  0  0  0  0  0
   -8.9220  -15.9925   34.4280 H   0  0  0  0  0  0  0  0  0  0  0  0
  1  2  1  0
  2  3  1  0
  3  4  2  0
  4  5  1  0
  5  6  1  0
  6  7  2  0
  6  8  1  0
  8  9  1  0
  9 10  1  0
 10 11  1  0
 11 12  1  0
 11 13  1  0
 13 14  1  0
 14 15  2  0
 14 16  1  0
 16 17  1  0
 17 18  2  0
 18 19  1  0
 19 20  1  0
  5 21  2  0
 21 22  1  0
 22  3  1  0
 20 16  2  0
  1 23  1  0
  1 24  1  0
  1 25  1  0
  2 26  1  0
  2 27  1  0
  4 28  1  0
  8 29  1  0
  9 30  1  0
  9 31  1  0
 10 32  1  0
 10 33  1  0
 11 34  1  0
 12 35  1  0
 12 36  1  0
 12 37  1  0
 13 38  1  0
 17 39  1  0
 18 40  1  0
 19 41  1  0
M  END
>  <Energy>  (480) 
434.44785305042819

>  <compound_id>  (480) 
35571

>  <target_id>  (480) 
1

>  <reference_id>  (480) 
96

>  <inspiration_ids>  (480) 
[59, 96]

>  <energy_score>  (480) 
368.94013042375036

>  <distance_score>  (480) 
8.074051281022392

>  <path>  (480) 
/opt/xchem-fragalysis-2/maxwin/BulkDock/SCRATCH/511013/C35571-P96/C35571-P96.minimised.mol

>  <scratch_subdir>  (480) 
/opt/xchem-fragalysis-2/maxwin/BulkDock/SCRATCH/511013/C35571-P96

>  <fragmenstein_runtime>  (480) 
12.590933799743652

>  <fragmenstein_outcome>  (480) 
too moved

>  <fragmenstein_mode>  (480) 
expansion

>  <fragmenstein_error>  (480) 


$$$$
C35572-P59
     RDKit          3D

 35 36  0  0  0  0  0  0  0  0999 V2000
   -7.8587  -11.9168   33.1519 C   0  0  0  0  0  0  0  0  0  0  0  0
   -6.4260  -11.7029   33.0073 C   0  0  0  0  0  0  0  0  0  0  0  0
   -5.6931  -10.0843   34.1325 C   0  0  0  0  0  0  0  0  0  0  0  0
   -5.3302   -7.9954   34.1557 C   0  0  0  0  0  0  0  0  0  0  0  0
   -6.6766   -6.4129   34.6904 N   0  0  0  0  0  0  0  0  0  0  0  0
   -6.3864   -4.4977   35.0786 C   0  0  0  0  0  0  0  0  0  0  0  0
   -5.2888   -4.0478   34.9289 O   0  0  0  0  0  0  0  0  0  0  0  0
   -7.5175   -3.0595   35.5379 C   0  0  0  0  0  0  0  0  0  0  0  0
   -8.5067   -2.8331   36.4390 N   0  0  0  0  0  0  0  0  0  0  0  0
   -8.8444   -1.5032   36.3864 O   0  0  0  0  0  0  0  0  0  0  0  0
   -7.9998   -0.8260   35.5899 C   0  0  0  0  0  0  0  0  0  0  0  0
   -7.0940   -1.7012   35.0793 C   0  0  0  0  0  0  0  0  0  0  0  0
   -5.6526   -1.1349   34.0091 Br  0  0  0  0  0  0  0  0  0  0  0  0
   -6.4415  -13.3882   31.9684 N   0  0  0  0  0  0  0  0  0  0  0  0
   -5.3654  -14.7809   32.0280 C   0  0  0  0  0  0  0  0  0  0  0  0
   -4.4384  -15.0003   32.8167 O   0  0  0  0  0  0  0  0  0  0  0  0
   -5.3994  -15.8302   30.9839 C   0  0  0  0  0  0  0  0  0  0  0  0
   -4.9307  -17.1778   31.1429 C   0  0  0  0  0  0  0  0  0  0  0  0
   -4.6279  -17.6056   29.8760 C   0  0  0  0  0  0  0  0  0  0  0  0
   -5.0553  -16.6248   29.0346 N   0  0  0  0  0  0  0  0  0  0  0  0
   -5.4120  -15.4972   29.6734 N   0  0  0  0  0  0  0  0  0  0  0  0
   -8.4165  -11.4233   32.3707 H   0  0  0  0  0  0  0  0  0  0  0  0
   -8.1602  -11.7109   34.1735 H   0  0  0  0  0  0  0  0  0  0  0  0
   -8.0719  -12.9504   33.0098 H   0  0  0  0  0  0  0  0  0  0  0  0
   -5.9846  -11.2206   32.1941 H   0  0  0  0  0  0  0  0  0  0  0  0
   -4.8234  -10.3816   34.7228 H   0  0  0  0  0  0  0  0  0  0  0  0
   -6.2116  -10.2889   35.0889 H   0  0  0  0  0  0  0  0  0  0  0  0
   -4.5418   -8.0608   34.9385 H   0  0  0  0  0  0  0  0  0  0  0  0
   -5.1448   -8.2149   33.0925 H   0  0  0  0  0  0  0  0  0  0  0  0
   -7.6248   -6.6583   34.9428 H   0  0  0  0  0  0  0  0  0  0  0  0
   -8.1585    0.2401   35.5142 H   0  0  0  0  0  0  0  0  0  0  0  0
   -7.0393  -13.4601   31.1652 H   0  0  0  0  0  0  0  0  0  0  0  0
   -4.6919  -17.6697   32.0754 H   0  0  0  0  0  0  0  0  0  0  0  0
   -4.1285  -18.4819   29.4992 H   0  0  0  0  0  0  0  0  0  0  0  0
   -5.0496  -16.6210   28.0193 H   0  0  0  0  0  0  0  0  0  0  0  0
  1  2  1  0
  2  3  1  0
  3  4  1  0
  4  5  1  0
  5  6  1  0
  6  7  2  0
  6  8  1  0
  8  9  2  0
  9 10  1  0
 10 11  1  0
 11 12  2  0
 12 13  1  0
  2 14  1  0
 14 15  1  0
 15 16  2  0
 15 17  1  0
 17 18  1  0
 18 19  2  0
 19 20  1  0
 20 21  1  0
 12  8  1  0
 21 17  2  0
  1 22  1  0
  1 23  1  0
  1 24  1  0
  2 25  1  0
  3 26  1  0
  3 27  1  0
  4 28  1  0
  4 29  1  0
  5 30  1  0
 11 31  1  0
 14 32  1  0
 18 33  1  0
 19 34  1  0
 20 35  1  0
M  END
>  <Energy>  (481) 
791.11206925560111

>  <compound_id>  (481) 
35572

>  <target_id>  (481) 
1

>  <reference_id>  (481) 
59

>  <inspiration_ids>  (481) 
[59, 96]

>  <energy_score>  (481) 
738.1060238953967

>  <distance_score>  (481) 
9.220223298158036

>  <path>  (481) 
/opt/xchem-fragalysis-2/maxwin/BulkDock/SCRATCH/511013/C35572-P59/C35572-P59.minimised.mol

>  <scratch_subdir>  (481) 
/opt/xchem-fragalysis-2/maxwin/BulkDock/SCRATCH/511013/C35572-P59

>  <fragmenstein_runtime>  (481) 
13.10347867012024

>  <fragmenstein_outcome>  (481) 
too moved

>  <fragmenstein_mode>  (481) 
expansion

>  <fragmenstein_error>  (481) 


$$$$
C35572-P96
     RDKit          3D

 35 36  0  0  0  0  0  0  0  0999 V2000
  -11.0363   -5.5339   31.1347 C   0  0  0  0  0  0  0  0  0  0  0  0
   -9.9364   -5.3440   30.1440 C   0  0  0  0  0  0  0  0  0  0  0  0
   -7.9728   -5.1874   30.6625 C   0  0  0  0  0  0  0  0  0  0  0  0
   -6.2082   -6.2441   31.2949 C   0  0  0  0  0  0  0  0  0  0  0  0
   -4.8257   -5.9405   31.7390 N   0  0  0  0  0  0  0  0  0  0  0  0
   -3.5645   -6.0973   31.0603 C   0  0  0  0  0  0  0  0  0  0  0  0
   -3.3022   -6.5967   30.0065 O   0  0  0  0  0  0  0  0  0  0  0  0
   -2.4897   -5.4211   31.7712 C   0  0  0  0  0  0  0  0  0  0  0  0
   -2.6465   -4.9257   33.0142 N   0  0  0  0  0  0  0  0  0  0  0  0
   -1.9270   -3.7419   33.0513 O   0  0  0  0  0  0  0  0  0  0  0  0
   -1.3265   -3.4929   31.8745 C   0  0  0  0  0  0  0  0  0  0  0  0
   -1.7196   -4.4556   31.0011 C   0  0  0  0  0  0  0  0  0  0  0  0
   -1.6791   -4.2068   29.1256 Br  0  0  0  0  0  0  0  0  0  0  0  0
  -10.8328   -5.8002   28.3564 N   0  0  0  0  0  0  0  0  0  0  0  0
  -11.0790   -7.2134   27.6325 C   0  0  0  0  0  0  0  0  0  0  0  0
  -10.8607   -8.3393   28.0198 O   0  0  0  0  0  0  0  0  0  0  0  0
  -11.6322   -7.2148   26.2645 C   0  0  0  0  0  0  0  0  0  0  0  0
  -12.5101   -8.2546   25.7931 C   0  0  0  0  0  0  0  0  0  0  0  0
  -12.4104   -8.2278   24.4302 C   0  0  0  0  0  0  0  0  0  0  0  0
  -11.5556   -7.2028   24.1564 N   0  0  0  0  0  0  0  0  0  0  0  0
  -11.1294   -6.5135   25.2409 N   0  0  0  0  0  0  0  0  0  0  0  0
  -11.9055   -5.4434   30.5135 H   0  0  0  0  0  0  0  0  0  0  0  0
  -11.1098   -6.5788   31.4977 H   0  0  0  0  0  0  0  0  0  0  0  0
  -11.0359   -4.8299   31.9481 H   0  0  0  0  0  0  0  0  0  0  0  0
   -9.7433   -6.0713   30.8700 H   0  0  0  0  0  0  0  0  0  0  0  0
   -8.1977   -4.4155   31.4306 H   0  0  0  0  0  0  0  0  0  0  0  0
   -7.6839   -4.8607   29.6589 H   0  0  0  0  0  0  0  0  0  0  0  0
   -5.7739   -6.5192   30.2845 H   0  0  0  0  0  0  0  0  0  0  0  0
   -6.3738   -7.2148   31.7625 H   0  0  0  0  0  0  0  0  0  0  0  0
   -4.6600   -5.5424   32.6584 H   0  0  0  0  0  0  0  0  0  0  0  0
   -0.7871   -2.5611   31.7909 H   0  0  0  0  0  0  0  0  0  0  0  0
  -11.0516   -5.0587   27.7177 H   0  0  0  0  0  0  0  0  0  0  0  0
  -13.0232   -8.9912   26.3960 H   0  0  0  0  0  0  0  0  0  0  0  0
  -12.8297   -8.8480   23.6514 H   0  0  0  0  0  0  0  0  0  0  0  0
  -11.2283   -6.9009   23.2450 H   0  0  0  0  0  0  0  0  0  0  0  0
  1  2  1  0
  2  3  1  0
  3  4  1  0
  4  5  1  0
  5  6  1  0
  6  7  2  0
  6  8  1  0
  8  9  2  0
  9 10  1  0
 10 11  1  0
 11 12  2  0
 12 13  1  0
  2 14  1  0
 14 15  1  0
 15 16  2  0
 15 17  1  0
 17 18  1  0
 18 19  2  0
 19 20  1  0
 20 21  1  0
 12  8  1  0
 21 17  2  0
  1 22  1  0
  1 23  1  0
  1 24  1  0
  2 25  1  0
  3 26  1  0
  3 27  1  0
  4 28  1  0
  4 29  1  0
  5 30  1  0
 11 31  1  0
 14 32  1  0
 18 33  1  0
 19 34  1  0
 20 35  1  0
M  END
>  <Energy>  (482) 
481.72780745341532

>  <compound_id>  (482) 
35572

>  <target_id>  (482) 
1

>  <reference_id>  (482) 
96

>  <inspiration_ids>  (482) 
[59, 96]

>  <energy_score>  (482) 
428.7217620932238

>  <distance_score>  (482) 
10.812016597877156

>  <path>  (482) 
/opt/xchem-fragalysis-2/maxwin/BulkDock/SCRATCH/511013/C35572-P96/C35572-P96.minimised.mol

>  <scratch_subdir>  (482) 
/opt/xchem-fragalysis-2/maxwin/BulkDock/SCRATCH/511013/C35572-P96

>  <fragmenstein_runtime>  (482) 
11.419082164764404

>  <fragmenstein_outcome>  (482) 
too moved

>  <fragmenstein_mode>  (482) 
expansion

>  <fragmenstein_error>  (482) 


$$$$
C35573-P59
     RDKit          3D

 42 43  0  0  0  0  0  0  0  0999 V2000
   -1.4744   -1.4880   29.8208 C   0  0  0  0  0  0  0  0  0  0  0  0
   -2.2202   -2.3301   30.6908 O   0  0  0  0  0  0  0  0  0  0  0  0
   -2.8845   -1.5867   31.7121 C   0  0  0  0  0  0  0  0  0  0  0  0
   -3.9042   -2.4963   32.2764 C   0  0  0  0  0  0  0  0  0  0  0  0
   -4.8401   -3.3468   31.7815 C   0  0  0  0  0  0  0  0  0  0  0  0
   -5.4434   -4.5440   32.8961 C   0  0  0  0  0  0  0  0  0  0  0  0
   -6.7824   -6.1299   32.5554 C   0  0  0  0  0  0  0  0  0  0  0  0
   -6.6288   -6.5276   31.4876 O   0  0  0  0  0  0  0  0  0  0  0  0
   -8.0039   -6.9430   33.5515 N   0  0  0  0  0  0  0  0  0  0  0  0
   -9.2632   -8.3333   33.1556 C   0  0  0  0  0  0  0  0  0  0  0  0
   -9.1055  -10.3081   32.1706 C   0  0  0  0  0  0  0  0  0  0  0  0
  -10.1393  -11.8744   32.1828 C   0  0  0  0  0  0  0  0  0  0  0  0
  -11.3973  -10.3264   33.4352 C   0  0  0  0  0  0  0  0  0  0  0  0
   -9.9250  -14.0542   31.6371 N   0  0  0  0  0  0  0  0  0  0  0  0
  -11.1875  -15.4045   30.5227 C   0  0  0  0  0  0  0  0  0  0  0  0
  -12.2082  -14.8603   30.2401 O   0  0  0  0  0  0  0  0  0  0  0  0
  -11.2050  -17.4039   29.6163 C   0  0  0  0  0  0  0  0  0  0  0  0
  -10.9238  -19.5558   29.5467 C   0  0  0  0  0  0  0  0  0  0  0  0
  -12.1003  -20.4198   29.4098 C   0  0  0  0  0  0  0  0  0  0  0  0
  -12.9029  -19.3411   29.2333 N   0  0  0  0  0  0  0  0  0  0  0  0
  -12.3676  -17.7463   28.9251 N   0  0  0  0  0  0  0  0  0  0  0  0
   -5.0390   -3.3785   33.9820 N   0  0  0  0  0  0  0  0  0  0  0  0
   -4.1063   -2.4778   33.5808 O   0  0  0  0  0  0  0  0  0  0  0  0
   -2.1396   -0.7992   29.2913 H   0  0  0  0  0  0  0  0  0  0  0  0
   -0.7223   -0.9278   30.3844 H   0  0  0  0  0  0  0  0  0  0  0  0
   -0.9670   -2.1171   29.0846 H   0  0  0  0  0  0  0  0  0  0  0  0
   -2.1515   -1.2931   32.4708 H   0  0  0  0  0  0  0  0  0  0  0  0
   -3.3541   -0.6875   31.3043 H   0  0  0  0  0  0  0  0  0  0  0  0
   -5.1785   -3.2814   30.7705 H   0  0  0  0  0  0  0  0  0  0  0  0
   -8.0854   -6.4395   34.4204 H   0  0  0  0  0  0  0  0  0  0  0  0
   -9.6273   -8.6118   34.0432 H   0  0  0  0  0  0  0  0  0  0  0  0
  -10.1016   -7.6723   32.8298 H   0  0  0  0  0  0  0  0  0  0  0  0
   -9.9618   -9.9536   32.4787 H   0  0  0  0  0  0  0  0  0  0  0  0
   -8.8343  -10.3474   31.0949 H   0  0  0  0  0  0  0  0  0  0  0  0
  -10.3101  -11.1884   31.3344 H   0  0  0  0  0  0  0  0  0  0  0  0
  -11.4597  -10.4616   34.6201 H   0  0  0  0  0  0  0  0  0  0  0  0
  -10.9029   -9.4347   33.6302 H   0  0  0  0  0  0  0  0  0  0  0  0
  -12.5507  -10.2975   33.5352 H   0  0  0  0  0  0  0  0  0  0  0  0
   -9.0115  -14.5162   31.7986 H   0  0  0  0  0  0  0  0  0  0  0  0
  -10.2372  -20.1788   29.0263 H   0  0  0  0  0  0  0  0  0  0  0  0
  -12.3072  -21.4655   29.2378 H   0  0  0  0  0  0  0  0  0  0  0  0
  -13.8853  -19.3744   29.4011 H   0  0  0  0  0  0  0  0  0  0  0  0
  1  2  1  0
  2  3  1  0
  3  4  1  0
  4  5  2  0
  5  6  1  0
  6  7  1  0
  7  8  2  0
  7  9  1  0
  9 10  1  0
 10 11  1  0
 11 12  1  0
 12 13  1  0
 12 14  1  0
 14 15  1  0
 15 16  2  0
 15 17  1  0
 17 18  1  0
 18 19  2  0
 19 20  1  0
 20 21  1  0
  6 22  2  0
 22 23  1  0
 23  4  1  0
 21 17  2  0
  1 24  1  0
  1 25  1  0
  1 26  1  0
  3 27  1  0
  3 28  1  0
  5 29  1  0
  9 30  1  0
 10 31  1  0
 10 32  1  0
 11 33  1  0
 11 34  1  0
 12 35  1  0
 13 36  1  0
 13 37  1  0
 13 38  1  0
 14 39  1  0
 18 40  1  0
 19 41  1  0
 20 42  1  0
M  END
>  <Energy>  (483) 
2069.7445869897369

>  <compound_id>  (483) 
35573

>  <target_id>  (483) 
1

>  <reference_id>  (483) 
59

>  <inspiration_ids>  (483) 
[59, 96]

>  <energy_score>  (483) 
1977.467922675883

>  <distance_score>  (483) 
7.298304832081209

>  <path>  (483) 
/opt/xchem-fragalysis-2/maxwin/BulkDock/SCRATCH/511013/C35573-P59/C35573-P59.minimised.mol

>  <scratch_subdir>  (483) 
/opt/xchem-fragalysis-2/maxwin/BulkDock/SCRATCH/511013/C35573-P59

>  <fragmenstein_runtime>  (483) 
17.58290410041809

>  <fragmenstein_outcome>  (483) 
too moved

>  <fragmenstein_mode>  (483) 
expansion

>  <fragmenstein_error>  (483) 


$$$$
C35573-P96
     RDKit          3D

 42 43  0  0  0  0  0  0  0  0999 V2000
   -0.1435   -2.3323   31.4406 C   0  0  0  0  0  0  0  0  0  0  0  0
   -0.8558   -3.4198   32.0162 O   0  0  0  0  0  0  0  0  0  0  0  0
   -1.7848   -3.9823   31.0902 C   0  0  0  0  0  0  0  0  0  0  0  0
   -2.6695   -4.8996   31.8548 C   0  0  0  0  0  0  0  0  0  0  0  0
   -3.4541   -5.9909   31.5642 C   0  0  0  0  0  0  0  0  0  0  0  0
   -4.3604   -6.1440   32.7049 C   0  0  0  0  0  0  0  0  0  0  0  0
   -5.6537   -6.8839   32.6682 C   0  0  0  0  0  0  0  0  0  0  0  0
   -5.8589   -7.2945   31.5446 O   0  0  0  0  0  0  0  0  0  0  0  0
   -6.5093   -7.1373   34.0418 N   0  0  0  0  0  0  0  0  0  0  0  0
   -7.9723   -8.2172   34.3663 C   0  0  0  0  0  0  0  0  0  0  0  0
   -9.8785   -8.4674   35.3062 C   0  0  0  0  0  0  0  0  0  0  0  0
  -10.2642   -8.9363   37.0666 C   0  0  0  0  0  0  0  0  0  0  0  0
  -11.7941   -8.9320   37.1792 C   0  0  0  0  0  0  0  0  0  0  0  0
   -9.6584  -10.1656   37.5884 N   0  0  0  0  0  0  0  0  0  0  0  0
   -9.9237  -10.9163   38.8017 C   0  0  0  0  0  0  0  0  0  0  0  0
  -10.6468  -10.6766   39.7255 O   0  0  0  0  0  0  0  0  0  0  0  0
   -9.2113  -12.2675   38.7828 C   0  0  0  0  0  0  0  0  0  0  0  0
   -9.3724  -13.3379   39.7159 C   0  0  0  0  0  0  0  0  0  0  0  0
   -8.8725  -14.4708   39.1125 C   0  0  0  0  0  0  0  0  0  0  0  0
   -8.4388  -14.0711   37.8912 N   0  0  0  0  0  0  0  0  0  0  0  0
   -8.6182  -12.7557   37.6675 N   0  0  0  0  0  0  0  0  0  0  0  0
   -3.8846   -5.3930   33.6663 N   0  0  0  0  0  0  0  0  0  0  0  0
   -2.9021   -4.5821   33.1475 O   0  0  0  0  0  0  0  0  0  0  0  0
    0.6238   -2.0111   32.1500 H   0  0  0  0  0  0  0  0  0  0  0  0
    0.3411   -2.6245   30.5054 H   0  0  0  0  0  0  0  0  0  0  0  0
   -0.8228   -1.4933   31.2605 H   0  0  0  0  0  0  0  0  0  0  0  0
   -2.3940   -3.1902   30.6412 H   0  0  0  0  0  0  0  0  0  0  0  0
   -1.2674   -4.5215   30.2951 H   0  0  0  0  0  0  0  0  0  0  0  0
   -3.5612   -6.4699   30.6016 H   0  0  0  0  0  0  0  0  0  0  0  0
   -6.0214   -6.7210   34.8247 H   0  0  0  0  0  0  0  0  0  0  0  0
   -7.3157   -8.5403   35.1365 H   0  0  0  0  0  0  0  0  0  0  0  0
   -8.1531   -8.6425   33.3932 H   0  0  0  0  0  0  0  0  0  0  0  0
  -10.7672   -8.4382   34.5938 H   0  0  0  0  0  0  0  0  0  0  0  0
  -10.1958   -7.4954   35.6555 H   0  0  0  0  0  0  0  0  0  0  0  0
   -9.9722   -8.1383   37.7692 H   0  0  0  0  0  0  0  0  0  0  0  0
  -12.2065   -7.9476   36.9489 H   0  0  0  0  0  0  0  0  0  0  0  0
  -12.1184   -9.1783   38.1950 H   0  0  0  0  0  0  0  0  0  0  0  0
  -12.2546   -9.6596   36.5055 H   0  0  0  0  0  0  0  0  0  0  0  0
   -8.9227  -10.6311   37.0652 H   0  0  0  0  0  0  0  0  0  0  0  0
   -9.8704  -13.2808   40.6750 H   0  0  0  0  0  0  0  0  0  0  0  0
   -8.8117  -15.4999   39.4373 H   0  0  0  0  0  0  0  0  0  0  0  0
   -8.0145  -14.6357   37.1610 H   0  0  0  0  0  0  0  0  0  0  0  0
  1  2  1  0
  2  3  1  0
  3  4  1  0
  4  5  2  0
  5  6  1  0
  6  7  1  0
  7  8  2  0
  7  9  1  0
  9 10  1  0
 10 11  1  0
 11 12  1  0
 12 13  1  0
 12 14  1  0
 14 15  1  0
 15 16  2  0
 15 17  1  0
 17 18  1  0
 18 19  2  0
 19 20  1  0
 20 21  1  0
  6 22  2  0
 22 23  1  0
 23  4  1  0
 21 17  2  0
  1 24  1  0
  1 25  1  0
  1 26  1  0
  3 27  1  0
  3 28  1  0
  5 29  1  0
  9 30  1  0
 10 31  1  0
 10 32  1  0
 11 33  1  0
 11 34  1  0
 12 35  1  0
 13 36  1  0
 13 37  1  0
 13 38  1  0
 14 39  1  0
 18 40  1  0
 19 41  1  0
 20 42  1  0
M  END
>  <Energy>  (484) 
314.12540058075302

>  <compound_id>  (484) 
35573

>  <target_id>  (484) 
1

>  <reference_id>  (484) 
96

>  <inspiration_ids>  (484) 
[59, 96]

>  <energy_score>  (484) 
221.84873626688932

>  <distance_score>  (484) 
10.441127480489309

>  <path>  (484) 
/opt/xchem-fragalysis-2/maxwin/BulkDock/SCRATCH/511013/C35573-P96/C35573-P96.minimised.mol

>  <scratch_subdir>  (484) 
/opt/xchem-fragalysis-2/maxwin/BulkDock/SCRATCH/511013/C35573-P96

>  <fragmenstein_runtime>  (484) 
12.228717803955078

>  <fragmenstein_outcome>  (484) 
too moved

>  <fragmenstein_mode>  (484) 
expansion

>  <fragmenstein_error>  (484) 


$$$$
C35574-P59
     RDKit          3D

 38 39  0  0  0  0  0  0  0  0999 V2000
   -1.7712   -0.8355   31.9955 C   0  0  0  0  0  0  0  0  0  0  0  0
   -2.8401   -1.8356   31.8227 C   0  0  0  0  0  0  0  0  0  0  0  0
   -3.1116   -2.7533   30.8498 C   0  0  0  0  0  0  0  0  0  0  0  0
   -4.3916   -3.3910   31.2394 C   0  0  0  0  0  0  0  0  0  0  0  0
   -5.5296   -4.6555   30.3411 C   0  0  0  0  0  0  0  0  0  0  0  0
   -5.8685   -4.7144   29.1761 O   0  0  0  0  0  0  0  0  0  0  0  0
   -6.0699   -5.6781   31.9180 N   0  0  0  0  0  0  0  0  0  0  0  0
   -7.4480   -6.9941   32.2262 C   0  0  0  0  0  0  0  0  0  0  0  0
   -9.3885   -7.5547   32.8597 C   0  0  0  0  0  0  0  0  0  0  0  0
  -10.7452   -9.1159   32.3025 C   0  0  0  0  0  0  0  0  0  0  0  0
  -11.7545   -9.6397   33.8600 C   0  0  0  0  0  0  0  0  0  0  0  0
  -10.6594   -9.5200   30.2557 N   0  0  0  0  0  0  0  0  0  0  0  0
  -11.9945   -9.5091   28.8923 C   0  0  0  0  0  0  0  0  0  0  0  0
  -13.2073   -9.3319   29.0133 O   0  0  0  0  0  0  0  0  0  0  0  0
  -11.6560   -9.6714   27.3747 C   0  0  0  0  0  0  0  0  0  0  0  0
  -10.9998   -8.9421   26.3346 C   0  0  0  0  0  0  0  0  0  0  0  0
  -11.1633   -9.6637   25.1695 C   0  0  0  0  0  0  0  0  0  0  0  0
  -11.9827  -10.6954   25.4837 N   0  0  0  0  0  0  0  0  0  0  0  0
  -12.3814  -10.6722   26.7536 N   0  0  0  0  0  0  0  0  0  0  0  0
   -4.7677   -2.8389   32.4079 N   0  0  0  0  0  0  0  0  0  0  0  0
   -3.8176   -1.8967   32.7577 O   0  0  0  0  0  0  0  0  0  0  0  0
   -0.8362   -1.3243   32.2852 H   0  0  0  0  0  0  0  0  0  0  0  0
   -1.6005   -0.2888   31.0628 H   0  0  0  0  0  0  0  0  0  0  0  0
   -2.0312   -0.1083   32.7708 H   0  0  0  0  0  0  0  0  0  0  0  0
   -2.5356   -2.8918   29.9421 H   0  0  0  0  0  0  0  0  0  0  0  0
   -5.6377   -5.2799   32.7381 H   0  0  0  0  0  0  0  0  0  0  0  0
   -7.7105   -6.3292   33.0476 H   0  0  0  0  0  0  0  0  0  0  0  0
   -6.9823   -7.3993   33.1031 H   0  0  0  0  0  0  0  0  0  0  0  0
   -9.2933   -7.4107   33.9130 H   0  0  0  0  0  0  0  0  0  0  0  0
  -10.1712   -6.8886   32.6037 H   0  0  0  0  0  0  0  0  0  0  0  0
  -10.0639   -9.9595   32.4996 H   0  0  0  0  0  0  0  0  0  0  0  0
  -12.7565  -10.0606   33.7153 H   0  0  0  0  0  0  0  0  0  0  0  0
  -11.9562   -8.9212   34.6223 H   0  0  0  0  0  0  0  0  0  0  0  0
  -11.2173  -10.1671   34.6353 H   0  0  0  0  0  0  0  0  0  0  0  0
   -9.7425   -9.6082   29.8477 H   0  0  0  0  0  0  0  0  0  0  0  0
  -10.4834   -8.0060   26.3991 H   0  0  0  0  0  0  0  0  0  0  0  0
  -10.8123   -9.4989   24.1614 H   0  0  0  0  0  0  0  0  0  0  0  0
  -12.3520  -11.4184   24.8752 H   0  0  0  0  0  0  0  0  0  0  0  0
  1  2  1  0
  2  3  2  0
  3  4  1  0
  4  5  1  0
  5  6  2  0
  5  7  1  0
  7  8  1  0
  8  9  1  0
  9 10  1  0
 10 11  1  0
 10 12  1  0
 12 13  1  0
 13 14  2  0
 13 15  1  0
 15 16  1  0
 16 17  2  0
 17 18  1  0
 18 19  1  0
  4 20  2  0
 20 21  1  0
 21  2  1  0
 19 15  2  0
  1 22  1  0
  1 23  1  0
  1 24  1  0
  3 25  1  0
  7 26  1  0
  8 27  1  0
  8 28  1  0
  9 29  1  0
  9 30  1  0
 10 31  1  0
 11 32  1  0
 11 33  1  0
 11 34  1  0
 12 35  1  0
 16 36  1  0
 17 37  1  0
 18 38  1  0
M  END
>  <Energy>  (485) 
805.47373192452642

>  <compound_id>  (485) 
35574

>  <target_id>  (485) 
1

>  <reference_id>  (485) 
59

>  <inspiration_ids>  (485) 
[59, 96]

>  <energy_score>  (485) 
741.8396332563857

>  <distance_score>  (485) 
9.922695082836775

>  <path>  (485) 
/opt/xchem-fragalysis-2/maxwin/BulkDock/SCRATCH/511013/C35574-P59/C35574-P59.minimised.mol

>  <scratch_subdir>  (485) 
/opt/xchem-fragalysis-2/maxwin/BulkDock/SCRATCH/511013/C35574-P59

>  <fragmenstein_runtime>  (485) 
21.83738350868225

>  <fragmenstein_outcome>  (485) 
too moved

>  <fragmenstein_mode>  (485) 
expansion

>  <fragmenstein_error>  (485) 


$$$$
C35574-P96
     RDKit          3D

 38 39  0  0  0  0  0  0  0  0999 V2000
   -0.0745   -1.5968   30.9394 C   0  0  0  0  0  0  0  0  0  0  0  0
   -0.8983   -2.8184   30.9464 C   0  0  0  0  0  0  0  0  0  0  0  0
   -1.3633   -3.6461   29.9610 C   0  0  0  0  0  0  0  0  0  0  0  0
   -2.1109   -4.6453   30.6410 C   0  0  0  0  0  0  0  0  0  0  0  0
   -3.0387   -5.5884   29.9766 C   0  0  0  0  0  0  0  0  0  0  0  0
   -2.9828   -5.6730   28.7859 O   0  0  0  0  0  0  0  0  0  0  0  0
   -3.9387   -6.1852   30.9130 N   0  0  0  0  0  0  0  0  0  0  0  0
   -5.1488   -7.0138   30.7050 C   0  0  0  0  0  0  0  0  0  0  0  0
   -5.9303   -7.2233   32.0585 C   0  0  0  0  0  0  0  0  0  0  0  0
   -7.6107   -8.1129   32.7640 C   0  0  0  0  0  0  0  0  0  0  0  0
   -7.0204   -7.6696   34.1736 C   0  0  0  0  0  0  0  0  0  0  0  0
   -8.7520   -9.4963   32.0316 N   0  0  0  0  0  0  0  0  0  0  0  0
   -8.5013  -11.2141   31.8823 C   0  0  0  0  0  0  0  0  0  0  0  0
   -7.4894  -11.5211   32.1852 O   0  0  0  0  0  0  0  0  0  0  0  0
   -9.4146  -12.6386   31.5623 C   0  0  0  0  0  0  0  0  0  0  0  0
  -10.3505  -13.3232   32.7178 C   0  0  0  0  0  0  0  0  0  0  0  0
   -9.5844  -14.1652   33.5565 C   0  0  0  0  0  0  0  0  0  0  0  0
   -8.4227  -14.2633   32.8774 N   0  0  0  0  0  0  0  0  0  0  0  0
   -8.4444  -13.6404   31.6843 N   0  0  0  0  0  0  0  0  0  0  0  0
   -2.1090   -4.4171   31.9710 N   0  0  0  0  0  0  0  0  0  0  0  0
   -1.3231   -3.2814   32.1526 O   0  0  0  0  0  0  0  0  0  0  0  0
    0.8390   -1.7490   31.5224 H   0  0  0  0  0  0  0  0  0  0  0  0
    0.2134   -1.3211   29.9202 H   0  0  0  0  0  0  0  0  0  0  0  0
   -0.6279   -0.7600   31.3764 H   0  0  0  0  0  0  0  0  0  0  0  0
   -1.2155   -3.5475   28.8951 H   0  0  0  0  0  0  0  0  0  0  0  0
   -3.6341   -5.9556   31.8574 H   0  0  0  0  0  0  0  0  0  0  0  0
   -5.6564   -6.4186   29.9678 H   0  0  0  0  0  0  0  0  0  0  0  0
   -4.8425   -7.8761   30.1541 H   0  0  0  0  0  0  0  0  0  0  0  0
   -5.7630   -6.2219   32.4663 H   0  0  0  0  0  0  0  0  0  0  0  0
   -5.1242   -7.5023   32.7826 H   0  0  0  0  0  0  0  0  0  0  0  0
   -8.0269   -8.7703   33.4685 H   0  0  0  0  0  0  0  0  0  0  0  0
   -6.8377   -8.0784   35.1374 H   0  0  0  0  0  0  0  0  0  0  0  0
   -6.4845   -6.7158   34.2582 H   0  0  0  0  0  0  0  0  0  0  0  0
   -7.9142   -7.8972   34.6227 H   0  0  0  0  0  0  0  0  0  0  0  0
   -9.6558   -9.2927   31.6558 H   0  0  0  0  0  0  0  0  0  0  0  0
  -11.4117  -13.1772   32.8045 H   0  0  0  0  0  0  0  0  0  0  0  0
   -9.7665  -14.7096   34.4710 H   0  0  0  0  0  0  0  0  0  0  0  0
   -7.5882  -14.7878   33.1146 H   0  0  0  0  0  0  0  0  0  0  0  0
  1  2  1  0
  2  3  2  0
  3  4  1  0
  4  5  1  0
  5  6  2  0
  5  7  1  0
  7  8  1  0
  8  9  1  0
  9 10  1  0
 10 11  1  0
 10 12  1  0
 12 13  1  0
 13 14  2  0
 13 15  1  0
 15 16  1  0
 16 17  2  0
 17 18  1  0
 18 19  1  0
  4 20  2  0
 20 21  1  0
 21  2  1  0
 19 15  2  0
  1 22  1  0
  1 23  1  0
  1 24  1  0
  3 25  1  0
  7 26  1  0
  8 27  1  0
  8 28  1  0
  9 29  1  0
  9 30  1  0
 10 31  1  0
 11 32  1  0
 11 33  1  0
 11 34  1  0
 12 35  1  0
 16 36  1  0
 17 37  1  0
 18 38  1  0
M  END
>  <Energy>  (486) 
563.04321789429605

>  <compound_id>  (486) 
35574

>  <target_id>  (486) 
1

>  <reference_id>  (486) 
96

>  <inspiration_ids>  (486) 
[59, 96]

>  <energy_score>  (486) 
499.4091192261469

>  <distance_score>  (486) 
7.925664785534368

>  <path>  (486) 
/opt/xchem-fragalysis-2/maxwin/BulkDock/SCRATCH/511013/C35574-P96/C35574-P96.minimised.mol

>  <scratch_subdir>  (486) 
/opt/xchem-fragalysis-2/maxwin/BulkDock/SCRATCH/511013/C35574-P96

>  <fragmenstein_runtime>  (486) 
12.477719068527222

>  <fragmenstein_outcome>  (486) 
too moved

>  <fragmenstein_mode>  (486) 
expansion

>  <fragmenstein_error>  (486) 


$$$$
C35575-P59
     RDKit          3D

 44 45  0  0  0  0  0  0  0  0999 V2000
   -6.9850  -11.8408   31.9267 C   0  0  0  0  0  0  0  0  0  0  0  0
   -6.4343  -10.6841   30.3955 C   0  0  0  0  0  0  0  0  0  0  0  0
   -5.8197   -8.6674   30.9572 C   0  0  0  0  0  0  0  0  0  0  0  0
   -6.5874   -6.6196   31.1634 C   0  0  0  0  0  0  0  0  0  0  0  0
   -5.6371   -5.0300   30.4248 N   0  0  0  0  0  0  0  0  0  0  0  0
   -4.7308   -3.6007   31.3514 C   0  0  0  0  0  0  0  0  0  0  0  0
   -4.7771   -3.5327   32.5335 O   0  0  0  0  0  0  0  0  0  0  0  0
   -3.7401   -2.4984   30.8165 C   0  0  0  0  0  0  0  0  0  0  0  0
   -2.5641   -2.5253   29.9547 C   0  0  0  0  0  0  0  0  0  0  0  0
   -1.9655   -1.2938   30.0614 C   0  0  0  0  0  0  0  0  0  0  0  0
   -0.8513   -0.6009   29.3508 C   0  0  0  0  0  0  0  0  0  0  0  0
   -1.3626    0.0402   28.0605 C   0  0  0  0  0  0  0  0  0  0  0  0
    0.3073   -1.5530   29.0546 C   0  0  0  0  0  0  0  0  0  0  0  0
   -2.5788   -0.6157   31.0566 O   0  0  0  0  0  0  0  0  0  0  0  0
   -3.5741   -1.3901   31.6038 N   0  0  0  0  0  0  0  0  0  0  0  0
   -6.0903  -11.7446   28.7466 N   0  0  0  0  0  0  0  0  0  0  0  0
   -6.9720  -13.1171   28.0425 C   0  0  0  0  0  0  0  0  0  0  0  0
   -7.9209  -13.7387   28.5050 O   0  0  0  0  0  0  0  0  0  0  0  0
   -6.6762  -13.6175   26.5661 C   0  0  0  0  0  0  0  0  0  0  0  0
   -7.3761  -14.7922   26.0611 C   0  0  0  0  0  0  0  0  0  0  0  0
   -6.8680  -15.0339   24.8166 C   0  0  0  0  0  0  0  0  0  0  0  0
   -5.9766  -14.0298   24.6033 N   0  0  0  0  0  0  0  0  0  0  0  0
   -5.8470  -13.1561   25.6218 N   0  0  0  0  0  0  0  0  0  0  0  0
   -6.3345  -11.5825   32.7696 H   0  0  0  0  0  0  0  0  0  0  0  0
   -6.9375  -12.9274   31.7353 H   0  0  0  0  0  0  0  0  0  0  0  0
   -7.9823  -11.5898   32.2872 H   0  0  0  0  0  0  0  0  0  0  0  0
   -5.4785  -11.1310   30.5025 H   0  0  0  0  0  0  0  0  0  0  0  0
   -4.8818   -8.6955   31.5851 H   0  0  0  0  0  0  0  0  0  0  0  0
   -5.5807   -8.4089   29.7931 H   0  0  0  0  0  0  0  0  0  0  0  0
   -7.2997   -6.6997   32.0405 H   0  0  0  0  0  0  0  0  0  0  0  0
   -6.1206   -6.2051   31.9443 H   0  0  0  0  0  0  0  0  0  0  0  0
   -5.5605   -4.8753   29.4003 H   0  0  0  0  0  0  0  0  0  0  0  0
   -2.2038   -3.2847   29.2874 H   0  0  0  0  0  0  0  0  0  0  0  0
   -0.4682    0.1982   29.9987 H   0  0  0  0  0  0  0  0  0  0  0  0
   -2.1439    0.7780   28.2741 H   0  0  0  0  0  0  0  0  0  0  0  0
   -1.7900   -0.7062   27.3814 H   0  0  0  0  0  0  0  0  0  0  0  0
   -0.5529    0.5553   27.5327 H   0  0  0  0  0  0  0  0  0  0  0  0
    0.6831   -2.0122   29.9757 H   0  0  0  0  0  0  0  0  0  0  0  0
    0.0062   -2.3610   28.3785 H   0  0  0  0  0  0  0  0  0  0  0  0
    1.1383   -1.0165   28.5840 H   0  0  0  0  0  0  0  0  0  0  0  0
   -5.2957  -11.5031   28.1547 H   0  0  0  0  0  0  0  0  0  0  0  0
   -8.1164  -15.3706   26.5982 H   0  0  0  0  0  0  0  0  0  0  0  0
   -7.0629  -15.7983   24.0791 H   0  0  0  0  0  0  0  0  0  0  0  0
   -5.4164  -13.8702   23.7735 H   0  0  0  0  0  0  0  0  0  0  0  0
  1  2  1  0
  2  3  1  0
  3  4  1  0
  4  5  1  0
  5  6  1  0
  6  7  2  0
  6  8  1  0
  8  9  1  0
  9 10  2  0
 10 11  1  0
 11 12  1  0
 11 13  1  0
 10 14  1  0
 14 15  1  0
  2 16  1  0
 16 17  1  0
 17 18  2  0
 17 19  1  0
 19 20  1  0
 20 21  2  0
 21 22  1  0
 22 23  1  0
 15  8  2  0
 23 19  2  0
  1 24  1  0
  1 25  1  0
  1 26  1  0
  2 27  1  0
  3 28  1  0
  3 29  1  0
  4 30  1  0
  4 31  1  0
  5 32  1  0
  9 33  1  0
 11 34  1  0
 12 35  1  0
 12 36  1  0
 12 37  1  0
 13 38  1  0
 13 39  1  0
 13 40  1  0
 16 41  1  0
 20 42  1  0
 21 43  1  0
 22 44  1  0
M  END
>  <Energy>  (487) 
733.52464950425474

>  <compound_id>  (487) 
35575

>  <target_id>  (487) 
1

>  <reference_id>  (487) 
59

>  <inspiration_ids>  (487) 
[59, 96]

>  <energy_score>  (487) 
641.5144809210063

>  <distance_score>  (487) 
8.228272831171783

>  <path>  (487) 
/opt/xchem-fragalysis-2/maxwin/BulkDock/SCRATCH/511013/C35575-P59/C35575-P59.minimised.mol

>  <scratch_subdir>  (487) 
/opt/xchem-fragalysis-2/maxwin/BulkDock/SCRATCH/511013/C35575-P59

>  <fragmenstein_runtime>  (487) 
20.560495853424072

>  <fragmenstein_outcome>  (487) 
too moved

>  <fragmenstein_mode>  (487) 
expansion

>  <fragmenstein_error>  (487) 


$$$$
C35575-P96
     RDKit          3D

 44 45  0  0  0  0  0  0  0  0999 V2000
   -3.8273  -10.2699   27.6133 C   0  0  0  0  0  0  0  0  0  0  0  0
   -5.4304  -10.3850   28.0674 C   0  0  0  0  0  0  0  0  0  0  0  0
   -5.8348   -9.3211   29.4962 C   0  0  0  0  0  0  0  0  0  0  0  0
   -5.4490   -7.6364   30.2734 C   0  0  0  0  0  0  0  0  0  0  0  0
   -4.3185   -6.7728   30.6431 N   0  0  0  0  0  0  0  0  0  0  0  0
   -3.0860   -6.5159   29.9905 C   0  0  0  0  0  0  0  0  0  0  0  0
   -2.6080   -6.9979   29.0097 O   0  0  0  0  0  0  0  0  0  0  0  0
   -2.3812   -5.3805   30.6395 C   0  0  0  0  0  0  0  0  0  0  0  0
   -1.6265   -4.4223   29.9114 C   0  0  0  0  0  0  0  0  0  0  0  0
   -1.4015   -3.3923   30.7863 C   0  0  0  0  0  0  0  0  0  0  0  0
   -0.6836   -2.0901   30.6455 C   0  0  0  0  0  0  0  0  0  0  0  0
    0.3825   -1.9175   31.7250 C   0  0  0  0  0  0  0  0  0  0  0  0
   -1.6623   -0.9185   30.6633 C   0  0  0  0  0  0  0  0  0  0  0  0
   -1.9773   -3.7003   31.9819 O   0  0  0  0  0  0  0  0  0  0  0  0
   -2.6222   -4.9350   31.8903 N   0  0  0  0  0  0  0  0  0  0  0  0
   -6.5648  -11.3584   27.1686 N   0  0  0  0  0  0  0  0  0  0  0  0
   -6.7801  -11.5194   25.6309 C   0  0  0  0  0  0  0  0  0  0  0  0
   -6.2617  -10.9402   24.7013 O   0  0  0  0  0  0  0  0  0  0  0  0
   -7.7383  -12.6794   25.3281 C   0  0  0  0  0  0  0  0  0  0  0  0
   -8.2012  -13.0955   24.0456 C   0  0  0  0  0  0  0  0  0  0  0  0
   -8.8343  -14.3016   24.2325 C   0  0  0  0  0  0  0  0  0  0  0  0
   -8.7234  -14.5635   25.5576 N   0  0  0  0  0  0  0  0  0  0  0  0
   -8.1001  -13.5993   26.2551 N   0  0  0  0  0  0  0  0  0  0  0  0
   -3.2661  -11.1915   27.7645 H   0  0  0  0  0  0  0  0  0  0  0  0
   -3.6715  -10.0898   26.5481 H   0  0  0  0  0  0  0  0  0  0  0  0
   -3.2638   -9.5029   28.1445 H   0  0  0  0  0  0  0  0  0  0  0  0
   -5.3542  -11.2065   28.7537 H   0  0  0  0  0  0  0  0  0  0  0  0
   -4.7957   -9.3963   29.5183 H   0  0  0  0  0  0  0  0  0  0  0  0
   -6.5489   -9.8144   30.1243 H   0  0  0  0  0  0  0  0  0  0  0  0
   -5.9993   -7.6488   31.2071 H   0  0  0  0  0  0  0  0  0  0  0  0
   -5.8698   -6.8833   29.6135 H   0  0  0  0  0  0  0  0  0  0  0  0
   -4.3562   -6.2304   31.5041 H   0  0  0  0  0  0  0  0  0  0  0  0
   -1.3139   -4.4789   28.8774 H   0  0  0  0  0  0  0  0  0  0  0  0
   -0.1747   -2.0878   29.6726 H   0  0  0  0  0  0  0  0  0  0  0  0
    0.9698   -1.0104   31.5462 H   0  0  0  0  0  0  0  0  0  0  0  0
    1.0732   -2.7673   31.7437 H   0  0  0  0  0  0  0  0  0  0  0  0
   -0.0677   -1.8312   32.7184 H   0  0  0  0  0  0  0  0  0  0  0  0
   -1.1381    0.0270   30.4877 H   0  0  0  0  0  0  0  0  0  0  0  0
   -2.4235   -1.0297   29.8830 H   0  0  0  0  0  0  0  0  0  0  0  0
   -2.1781   -0.8413   31.6269 H   0  0  0  0  0  0  0  0  0  0  0  0
   -7.1070  -12.0686   27.6615 H   0  0  0  0  0  0  0  0  0  0  0  0
   -8.0358  -12.5797   23.1097 H   0  0  0  0  0  0  0  0  0  0  0  0
   -9.3139  -14.9837   23.5466 H   0  0  0  0  0  0  0  0  0  0  0  0
   -9.0424  -15.3879   26.0505 H   0  0  0  0  0  0  0  0  0  0  0  0
  1  2  1  0
  2  3  1  0
  3  4  1  0
  4  5  1  0
  5  6  1  0
  6  7  2  0
  6  8  1  0
  8  9  1  0
  9 10  2  0
 10 11  1  0
 11 12  1  0
 11 13  1  0
 10 14  1  0
 14 15  1  0
  2 16  1  0
 16 17  1  0
 17 18  2  0
 17 19  1  0
 19 20  1  0
 20 21  2  0
 21 22  1  0
 22 23  1  0
 15  8  2  0
 23 19  2  0
  1 24  1  0
  1 25  1  0
  1 26  1  0
  2 27  1  0
  3 28  1  0
  3 29  1  0
  4 30  1  0
  4 31  1  0
  5 32  1  0
  9 33  1  0
 11 34  1  0
 12 35  1  0
 12 36  1  0
 12 37  1  0
 13 38  1  0
 13 39  1  0
 13 40  1  0
 16 41  1  0
 20 42  1  0
 21 43  1  0
 22 44  1  0
M  END
>  <Energy>  (488) 
235.65491703985339

>  <compound_id>  (488) 
35575

>  <target_id>  (488) 
1

>  <reference_id>  (488) 
96

>  <inspiration_ids>  (488) 
[59, 96]

>  <energy_score>  (488) 
143.64474845660743

>  <distance_score>  (488) 
9.048059430469694

>  <path>  (488) 
/opt/xchem-fragalysis-2/maxwin/BulkDock/SCRATCH/511013/C35575-P96/C35575-P96.minimised.mol

>  <scratch_subdir>  (488) 
/opt/xchem-fragalysis-2/maxwin/BulkDock/SCRATCH/511013/C35575-P96

>  <fragmenstein_runtime>  (488) 
26.124804735183716

>  <fragmenstein_outcome>  (488) 
too moved

>  <fragmenstein_mode>  (488) 
expansion

>  <fragmenstein_error>  (488) 


$$$$
C35576-P59
     RDKit          3D

 38 39  0  0  0  0  0  0  0  0999 V2000
   -4.4786   -2.6687   33.4004 C   0  0  0  0  0  0  0  0  0  0  0  0
   -5.1834   -3.0701   34.7317 C   0  0  0  0  0  0  0  0  0  0  0  0
   -5.5153   -1.9546   35.4624 C   0  0  0  0  0  0  0  0  0  0  0  0
   -6.8094   -2.0455   35.7403 O   0  0  0  0  0  0  0  0  0  0  0  0
   -7.3568   -3.2550   35.4874 N   0  0  0  0  0  0  0  0  0  0  0  0
   -6.3523   -4.4665   35.1043 C   0  0  0  0  0  0  0  0  0  0  0  0
   -6.5992   -6.3487   34.5892 C   0  0  0  0  0  0  0  0  0  0  0  0
   -7.6913   -6.6160   34.1267 O   0  0  0  0  0  0  0  0  0  0  0  0
   -5.0651   -7.5550   35.0324 N   0  0  0  0  0  0  0  0  0  0  0  0
   -4.9240   -9.1236   34.9995 C   0  0  0  0  0  0  0  0  0  0  0  0
   -4.4822   -9.6321   36.4449 C   0  0  0  0  0  0  0  0  0  0  0  0
   -5.5087   -9.8894   37.5785 C   0  0  0  0  0  0  0  0  0  0  0  0
   -5.1131   -9.2292   38.9003 C   0  0  0  0  0  0  0  0  0  0  0  0
   -5.8266  -11.3019   37.8559 N   0  0  0  0  0  0  0  0  0  0  0  0
   -5.0385  -12.3481   38.4569 C   0  0  0  0  0  0  0  0  0  0  0  0
   -3.8958  -12.3582   38.8129 O   0  0  0  0  0  0  0  0  0  0  0  0
   -5.8349  -13.6330   38.5863 C   0  0  0  0  0  0  0  0  0  0  0  0
   -5.3095  -14.9637   38.6740 C   0  0  0  0  0  0  0  0  0  0  0  0
   -6.3940  -15.8090   38.6486 C   0  0  0  0  0  0  0  0  0  0  0  0
   -7.4851  -14.9962   38.6061 N   0  0  0  0  0  0  0  0  0  0  0  0
   -7.1813  -13.6876   38.4747 N   0  0  0  0  0  0  0  0  0  0  0  0
   -4.6321   -3.3771   32.5946 H   0  0  0  0  0  0  0  0  0  0  0  0
   -3.4144   -2.4570   33.5530 H   0  0  0  0  0  0  0  0  0  0  0  0
   -4.9242   -1.7329   33.0338 H   0  0  0  0  0  0  0  0  0  0  0  0
   -5.1046   -0.9584   35.5412 H   0  0  0  0  0  0  0  0  0  0  0  0
   -4.2925   -7.0499   35.4927 H   0  0  0  0  0  0  0  0  0  0  0  0
   -5.5396   -9.8082   34.4191 H   0  0  0  0  0  0  0  0  0  0  0  0
   -3.9394   -9.1193   34.5245 H   0  0  0  0  0  0  0  0  0  0  0  0
   -3.9129  -10.5536   36.3227 H   0  0  0  0  0  0  0  0  0  0  0  0
   -3.7316   -8.9209   36.8041 H   0  0  0  0  0  0  0  0  0  0  0  0
   -6.4302   -9.4252   37.2942 H   0  0  0  0  0  0  0  0  0  0  0  0
   -4.0809   -9.4703   39.1753 H   0  0  0  0  0  0  0  0  0  0  0  0
   -5.7588   -9.5729   39.7175 H   0  0  0  0  0  0  0  0  0  0  0  0
   -5.2234   -8.1518   38.8616 H   0  0  0  0  0  0  0  0  0  0  0  0
   -6.7906  -11.6241   37.7622 H   0  0  0  0  0  0  0  0  0  0  0  0
   -4.2642  -15.2374   38.7313 H   0  0  0  0  0  0  0  0  0  0  0  0
   -6.4820  -16.8851   38.6961 H   0  0  0  0  0  0  0  0  0  0  0  0
   -8.4650  -15.2611   38.6197 H   0  0  0  0  0  0  0  0  0  0  0  0
  1  2  1  0
  2  3  2  0
  3  4  1  0
  4  5  1  0
  5  6  2  0
  6  7  1  0
  7  8  2  0
  7  9  1  0
  9 10  1  0
 10 11  1  0
 11 12  1  0
 12 13  1  0
 12 14  1  0
 14 15  1  0
 15 16  2  0
 15 17  1  0
 17 18  1  0
 18 19  2  0
 19 20  1  0
 20 21  1  0
  6  2  1  0
 21 17  2  0
  1 22  1  0
  1 23  1  0
  1 24  1  0
  3 25  1  0
  9 26  1  0
 10 27  1  0
 10 28  1  0
 11 29  1  0
 11 30  1  0
 12 31  1  0
 13 32  1  0
 13 33  1  0
 13 34  1  0
 14 35  1  0
 18 36  1  0
 19 37  1  0
 20 38  1  0
M  END
>  <Energy>  (489) 
383.88513145417323

>  <compound_id>  (489) 
35576

>  <target_id>  (489) 
1

>  <reference_id>  (489) 
59

>  <inspiration_ids>  (489) 
[59, 96]

>  <energy_score>  (489) 
327.4616591892177

>  <distance_score>  (489) 
10.719563594259677

>  <path>  (489) 
/opt/xchem-fragalysis-2/maxwin/BulkDock/SCRATCH/511013/C35576-P59/C35576-P59.minimised.mol

>  <scratch_subdir>  (489) 
/opt/xchem-fragalysis-2/maxwin/BulkDock/SCRATCH/511013/C35576-P59

>  <fragmenstein_runtime>  (489) 
16.627463579177856

>  <fragmenstein_outcome>  (489) 
too moved

>  <fragmenstein_mode>  (489) 
expansion

>  <fragmenstein_error>  (489) 


$$$$
C35576-P96
     RDKit          3D

 38 39  0  0  0  0  0  0  0  0999 V2000
   -2.6029   -5.6497   29.7224 C   0  0  0  0  0  0  0  0  0  0  0  0
   -2.3688   -4.9351   30.9824 C   0  0  0  0  0  0  0  0  0  0  0  0
   -1.5179   -3.8585   31.1011 C   0  0  0  0  0  0  0  0  0  0  0  0
   -1.5871   -3.3580   32.3432 O   0  0  0  0  0  0  0  0  0  0  0  0
   -2.4865   -4.0876   33.0694 N   0  0  0  0  0  0  0  0  0  0  0  0
   -2.9474   -5.0876   32.2924 C   0  0  0  0  0  0  0  0  0  0  0  0
   -4.1026   -5.9054   32.8670 C   0  0  0  0  0  0  0  0  0  0  0  0
   -4.3081   -5.7980   34.0227 O   0  0  0  0  0  0  0  0  0  0  0  0
   -4.7930   -6.5849   31.8920 N   0  0  0  0  0  0  0  0  0  0  0  0
   -6.0305   -7.2967   31.9368 C   0  0  0  0  0  0  0  0  0  0  0  0
   -7.3794   -7.9611   33.2490 C   0  0  0  0  0  0  0  0  0  0  0  0
   -8.6461   -9.4991   32.7164 C   0  0  0  0  0  0  0  0  0  0  0  0
   -9.5732   -9.0556   33.9110 C   0  0  0  0  0  0  0  0  0  0  0  0
   -7.8270  -11.3285   32.1139 N   0  0  0  0  0  0  0  0  0  0  0  0
   -7.2130  -12.8223   33.1361 C   0  0  0  0  0  0  0  0  0  0  0  0
   -7.1407  -12.8518   34.3740 O   0  0  0  0  0  0  0  0  0  0  0  0
   -6.8644  -14.2292   32.5605 C   0  0  0  0  0  0  0  0  0  0  0  0
   -5.8371  -14.9492   31.8430 C   0  0  0  0  0  0  0  0  0  0  0  0
   -5.9172  -16.2860   32.1861 C   0  0  0  0  0  0  0  0  0  0  0  0
   -6.9461  -16.3616   33.0547 N   0  0  0  0  0  0  0  0  0  0  0  0
   -7.5693  -15.1977   33.2344 N   0  0  0  0  0  0  0  0  0  0  0  0
   -2.6703   -6.7276   29.8799 H   0  0  0  0  0  0  0  0  0  0  0  0
   -1.8138   -5.4471   28.9911 H   0  0  0  0  0  0  0  0  0  0  0  0
   -3.5384   -5.3223   29.2744 H   0  0  0  0  0  0  0  0  0  0  0  0
   -0.8425   -3.3523   30.4258 H   0  0  0  0  0  0  0  0  0  0  0  0
   -4.2832   -6.5240   31.0323 H   0  0  0  0  0  0  0  0  0  0  0  0
   -6.0290   -7.9779   31.0788 H   0  0  0  0  0  0  0  0  0  0  0  0
   -6.3727   -6.4112   31.4868 H   0  0  0  0  0  0  0  0  0  0  0  0
   -7.1741   -7.2170   34.0222 H   0  0  0  0  0  0  0  0  0  0  0  0
   -7.0158   -8.3622   34.1749 H   0  0  0  0  0  0  0  0  0  0  0  0
   -8.9476   -9.4073   31.6375 H   0  0  0  0  0  0  0  0  0  0  0  0
   -8.6632   -8.6585   34.2400 H   0  0  0  0  0  0  0  0  0  0  0  0
   -9.6228   -8.8441   35.0342 H   0  0  0  0  0  0  0  0  0  0  0  0
  -10.5978   -8.4712   33.8907 H   0  0  0  0  0  0  0  0  0  0  0  0
   -7.7130  -11.5208   31.1505 H   0  0  0  0  0  0  0  0  0  0  0  0
   -4.9780  -14.5988   31.3214 H   0  0  0  0  0  0  0  0  0  0  0  0
   -5.2922  -17.1350   31.9496 H   0  0  0  0  0  0  0  0  0  0  0  0
   -7.3005  -17.1738   33.5489 H   0  0  0  0  0  0  0  0  0  0  0  0
  1  2  1  0
  2  3  2  0
  3  4  1  0
  4  5  1  0
  5  6  2  0
  6  7  1  0
  7  8  2  0
  7  9  1  0
  9 10  1  0
 10 11  1  0
 11 12  1  0
 12 13  1  0
 12 14  1  0
 14 15  1  0
 15 16  2  0
 15 17  1  0
 17 18  1  0
 18 19  2  0
 19 20  1  0
 20 21  1  0
  6  2  1  0
 21 17  2  0
  1 22  1  0
  1 23  1  0
  1 24  1  0
  3 25  1  0
  9 26  1  0
 10 27  1  0
 10 28  1  0
 11 29  1  0
 11 30  1  0
 12 31  1  0
 13 32  1  0
 13 33  1  0
 13 34  1  0
 14 35  1  0
 18 36  1  0
 19 37  1  0
 20 38  1  0
M  END
>  <Energy>  (490) 
611.80639490405144

>  <compound_id>  (490) 
35576

>  <target_id>  (490) 
1

>  <reference_id>  (490) 
96

>  <inspiration_ids>  (490) 
[59, 96]

>  <energy_score>  (490) 
555.3829226391051

>  <distance_score>  (490) 
7.842922687330652

>  <path>  (490) 
/opt/xchem-fragalysis-2/maxwin/BulkDock/SCRATCH/511013/C35576-P96/C35576-P96.minimised.mol

>  <scratch_subdir>  (490) 
/opt/xchem-fragalysis-2/maxwin/BulkDock/SCRATCH/511013/C35576-P96

>  <fragmenstein_runtime>  (490) 
11.986618280410767

>  <fragmenstein_outcome>  (490) 
too moved

>  <fragmenstein_mode>  (490) 
expansion

>  <fragmenstein_error>  (490) 


$$$$
C35577-P59
     RDKit          3D

 47 48  0  0  0  0  0  0  0  0999 V2000
  -11.2187   -2.2257   26.8769 C   0  0  0  0  0  0  0  0  0  0  0  0
   -9.9948   -3.1080   26.6651 C   0  0  0  0  0  0  0  0  0  0  0  0
   -9.3034   -3.3606   28.0272 C   0  0  0  0  0  0  0  0  0  0  0  0
   -8.6741   -2.2638   28.9126 C   0  0  0  0  0  0  0  0  0  0  0  0
   -7.6020   -2.5866   30.2028 N   0  0  0  0  0  0  0  0  0  0  0  0
   -7.1389   -1.6273   31.5138 C   0  0  0  0  0  0  0  0  0  0  0  0
   -7.5662   -0.5421   31.8297 O   0  0  0  0  0  0  0  0  0  0  0  0
   -5.9430   -2.0109   32.4362 C   0  0  0  0  0  0  0  0  0  0  0  0
   -4.6433   -2.4982   32.0708 C   0  0  0  0  0  0  0  0  0  0  0  0
   -3.7377   -1.8123   32.8485 C   0  0  0  0  0  0  0  0  0  0  0  0
   -2.2581   -1.5130   32.7207 C   0  0  0  0  0  0  0  0  0  0  0  0
   -1.4107   -2.7398   33.0830 C   0  0  0  0  0  0  0  0  0  0  0  0
   -1.8483   -0.3521   33.6482 C   0  0  0  0  0  0  0  0  0  0  0  0
   -1.9408   -1.1065   31.2674 C   0  0  0  0  0  0  0  0  0  0  0  0
   -4.4379   -1.2146   33.8446 O   0  0  0  0  0  0  0  0  0  0  0  0
   -5.7910   -1.3429   33.6076 N   0  0  0  0  0  0  0  0  0  0  0  0
  -10.2935   -4.4212   25.9669 N   0  0  0  0  0  0  0  0  0  0  0  0
  -11.5134   -5.2067   25.8953 C   0  0  0  0  0  0  0  0  0  0  0  0
  -12.6161   -4.9754   26.3051 O   0  0  0  0  0  0  0  0  0  0  0  0
  -11.3165   -6.5845   25.2262 C   0  0  0  0  0  0  0  0  0  0  0  0
  -12.3082   -7.6253   25.1165 C   0  0  0  0  0  0  0  0  0  0  0  0
  -11.6693   -8.7492   24.6513 C   0  0  0  0  0  0  0  0  0  0  0  0
  -10.3933   -8.3536   24.4085 N   0  0  0  0  0  0  0  0  0  0  0  0
  -10.1480   -7.0521   24.7207 N   0  0  0  0  0  0  0  0  0  0  0  0
  -11.9304   -2.6789   27.5749 H   0  0  0  0  0  0  0  0  0  0  0  0
  -11.7431   -2.0652   25.9288 H   0  0  0  0  0  0  0  0  0  0  0  0
  -10.9357   -1.2443   27.2705 H   0  0  0  0  0  0  0  0  0  0  0  0
   -9.2929   -2.5903   26.0019 H   0  0  0  0  0  0  0  0  0  0  0  0
  -10.1102   -3.8146   28.6169 H   0  0  0  0  0  0  0  0  0  0  0  0
   -8.4918   -4.0363   27.7466 H   0  0  0  0  0  0  0  0  0  0  0  0
   -7.9932   -1.7674   28.2174 H   0  0  0  0  0  0  0  0  0  0  0  0
   -9.3831   -1.4509   29.0866 H   0  0  0  0  0  0  0  0  0  0  0  0
   -7.0137   -3.3900   30.1546 H   0  0  0  0  0  0  0  0  0  0  0  0
   -4.3643   -2.9644   31.1605 H   0  0  0  0  0  0  0  0  0  0  0  0
   -1.5601   -3.0334   34.1273 H   0  0  0  0  0  0  0  0  0  0  0  0
   -0.3418   -2.5318   32.9556 H   0  0  0  0  0  0  0  0  0  0  0  0
   -1.6515   -3.5995   32.4498 H   0  0  0  0  0  0  0  0  0  0  0  0
   -2.0038   -0.6087   34.7029 H   0  0  0  0  0  0  0  0  0  0  0  0
   -2.4331    0.5505   33.4415 H   0  0  0  0  0  0  0  0  0  0  0  0
   -0.7893   -0.0983   33.5242 H   0  0  0  0  0  0  0  0  0  0  0  0
   -0.8872   -0.8267   31.1538 H   0  0  0  0  0  0  0  0  0  0  0  0
   -2.5488   -0.2526   30.9493 H   0  0  0  0  0  0  0  0  0  0  0  0
   -2.1382   -1.9270   30.5673 H   0  0  0  0  0  0  0  0  0  0  0  0
   -9.5239   -4.9679   25.5842 H   0  0  0  0  0  0  0  0  0  0  0  0
  -13.3505   -7.5437   25.3899 H   0  0  0  0  0  0  0  0  0  0  0  0
  -12.0086   -9.7552   24.4499 H   0  0  0  0  0  0  0  0  0  0  0  0
   -9.6293   -8.9108   24.0368 H   0  0  0  0  0  0  0  0  0  0  0  0
  1  2  1  0
  2  3  1  0
  3  4  1  0
  4  5  1  0
  5  6  1  0
  6  7  2  0
  6  8  1  0
  8  9  1  0
  9 10  2  0
 10 11  1  0
 11 12  1  0
 11 13  1  0
 11 14  1  0
 10 15  1  0
 15 16  1  0
  2 17  1  0
 17 18  1  0
 18 19  2  0
 18 20  1  0
 20 21  1  0
 21 22  2  0
 22 23  1  0
 23 24  1  0
 16  8  2  0
 24 20  2  0
  1 25  1  0
  1 26  1  0
  1 27  1  0
  2 28  1  0
  3 29  1  0
  3 30  1  0
  4 31  1  0
  4 32  1  0
  5 33  1  0
  9 34  1  0
 12 35  1  0
 12 36  1  0
 12 37  1  0
 13 38  1  0
 13 39  1  0
 13 40  1  0
 14 41  1  0
 14 42  1  0
 14 43  1  0
 17 44  1  0
 21 45  1  0
 22 46  1  0
 23 47  1  0
M  END
>  <Energy>  (491) 
145.3202811873528

>  <compound_id>  (491) 
35577

>  <target_id>  (491) 
1

>  <reference_id>  (491) 
59

>  <inspiration_ids>  (491) 
[59, 96]

>  <energy_score>  (491) 
52.81853587436137

>  <distance_score>  (491) 
11.167314798998467

>  <path>  (491) 
/opt/xchem-fragalysis-2/maxwin/BulkDock/SCRATCH/511013/C35577-P59/C35577-P59.minimised.mol

>  <scratch_subdir>  (491) 
/opt/xchem-fragalysis-2/maxwin/BulkDock/SCRATCH/511013/C35577-P59

>  <fragmenstein_runtime>  (491) 
22.215618133544922

>  <fragmenstein_outcome>  (491) 
too moved

>  <fragmenstein_mode>  (491) 
expansion

>  <fragmenstein_error>  (491) 


$$$$
C35577-P96
     RDKit          3D

 47 48  0  0  0  0  0  0  0  0999 V2000
  -11.1817   -7.6997   31.6223 C   0  0  0  0  0  0  0  0  0  0  0  0
   -9.9035   -8.5712   30.4599 C   0  0  0  0  0  0  0  0  0  0  0  0
   -9.8806   -6.3378   30.9346 C   0  0  0  0  0  0  0  0  0  0  0  0
   -8.1468   -5.2965   30.7029 C   0  0  0  0  0  0  0  0  0  0  0  0
   -6.3334   -5.8210   31.3092 N   0  0  0  0  0  0  0  0  0  0  0  0
   -5.1844   -6.3468   30.5815 C   0  0  0  0  0  0  0  0  0  0  0  0
   -5.0750   -6.6731   29.4612 O   0  0  0  0  0  0  0  0  0  0  0  0
   -3.9031   -6.3397   31.4578 C   0  0  0  0  0  0  0  0  0  0  0  0
   -2.6743   -5.9752   30.7668 C   0  0  0  0  0  0  0  0  0  0  0  0
   -2.3218   -4.7424   31.3062 C   0  0  0  0  0  0  0  0  0  0  0  0
   -1.4500   -3.5702   30.8381 C   0  0  0  0  0  0  0  0  0  0  0  0
   -0.2365   -3.3984   31.7644 C   0  0  0  0  0  0  0  0  0  0  0  0
   -2.1318   -2.2008   30.9238 C   0  0  0  0  0  0  0  0  0  0  0  0
   -1.1266   -3.7251   29.3326 C   0  0  0  0  0  0  0  0  0  0  0  0
   -2.9677   -4.6343   32.5052 O   0  0  0  0  0  0  0  0  0  0  0  0
   -3.9016   -5.6712   32.6436 N   0  0  0  0  0  0  0  0  0  0  0  0
   -9.9365   -9.5722   28.5928 N   0  0  0  0  0  0  0  0  0  0  0  0
   -9.5278  -11.7319   27.9820 C   0  0  0  0  0  0  0  0  0  0  0  0
   -9.2920  -12.6790   28.7924 O   0  0  0  0  0  0  0  0  0  0  0  0
   -9.5270  -12.4012   26.2914 C   0  0  0  0  0  0  0  0  0  0  0  0
  -10.6721  -13.0625   25.6877 C   0  0  0  0  0  0  0  0  0  0  0  0
  -10.1575  -14.0010   24.8264 C   0  0  0  0  0  0  0  0  0  0  0  0
   -8.8062  -13.9069   24.9495 N   0  0  0  0  0  0  0  0  0  0  0  0
   -8.3936  -12.9994   25.8435 N   0  0  0  0  0  0  0  0  0  0  0  0
  -12.0452   -8.2402   31.9073 H   0  0  0  0  0  0  0  0  0  0  0  0
  -10.7989   -7.6237   32.6395 H   0  0  0  0  0  0  0  0  0  0  0  0
  -11.4459   -6.6848   31.5869 H   0  0  0  0  0  0  0  0  0  0  0  0
   -9.2202   -9.2471   31.0098 H   0  0  0  0  0  0  0  0  0  0  0  0
  -10.0908   -5.8013   31.8450 H   0  0  0  0  0  0  0  0  0  0  0  0
  -10.6074   -5.6692   30.3733 H   0  0  0  0  0  0  0  0  0  0  0  0
   -7.9876   -4.9345   29.6964 H   0  0  0  0  0  0  0  0  0  0  0  0
   -8.3898   -4.4602   31.3761 H   0  0  0  0  0  0  0  0  0  0  0  0
   -6.0902   -5.7241   32.2979 H   0  0  0  0  0  0  0  0  0  0  0  0
   -2.3925   -6.2974   29.7755 H   0  0  0  0  0  0  0  0  0  0  0  0
   -0.5305   -2.9130   32.7002 H   0  0  0  0  0  0  0  0  0  0  0  0
    0.5362   -2.7688   31.3089 H   0  0  0  0  0  0  0  0  0  0  0  0
    0.2114   -4.3366   32.0677 H   0  0  0  0  0  0  0  0  0  0  0  0
   -2.9359   -2.1181   30.1927 H   0  0  0  0  0  0  0  0  0  0  0  0
   -2.5001   -2.0005   31.9341 H   0  0  0  0  0  0  0  0  0  0  0  0
   -1.4293   -1.3922   30.6802 H   0  0  0  0  0  0  0  0  0  0  0  0
   -0.8502   -4.7407   29.0454 H   0  0  0  0  0  0  0  0  0  0  0  0
   -2.0064   -3.4986   28.7159 H   0  0  0  0  0  0  0  0  0  0  0  0
   -0.3287   -3.0417   29.0210 H   0  0  0  0  0  0  0  0  0  0  0  0
  -10.1859   -8.9811   27.7772 H   0  0  0  0  0  0  0  0  0  0  0  0
  -11.7103  -12.9294   25.9537 H   0  0  0  0  0  0  0  0  0  0  0  0
  -10.6208  -14.7325   24.1823 H   0  0  0  0  0  0  0  0  0  0  0  0
   -8.0961  -14.4519   24.4736 H   0  0  0  0  0  0  0  0  0  0  0  0
  1  2  1  0
  2  3  1  0
  3  4  1  0
  4  5  1  0
  5  6  1  0
  6  7  2  0
  6  8  1  0
  8  9  1  0
  9 10  2  0
 10 11  1  0
 11 12  1  0
 11 13  1  0
 11 14  1  0
 10 15  1  0
 15 16  1  0
  2 17  1  0
 17 18  1  0
 18 19  2  0
 18 20  1  0
 20 21  1  0
 21 22  2  0
 22 23  1  0
 23 24  1  0
 16  8  2  0
 24 20  2  0
  1 25  1  0
  1 26  1  0
  1 27  1  0
  2 28  1  0
  3 29  1  0
  3 30  1  0
  4 31  1  0
  4 32  1  0
  5 33  1  0
  9 34  1  0
 12 35  1  0
 12 36  1  0
 12 37  1  0
 13 38  1  0
 13 39  1  0
 13 40  1  0
 14 41  1  0
 14 42  1  0
 14 43  1  0
 17 44  1  0
 21 45  1  0
 22 46  1  0
 23 47  1  0
M  END
>  <Energy>  (492) 
1167.92473153585

>  <compound_id>  (492) 
35577

>  <target_id>  (492) 
1

>  <reference_id>  (492) 
96

>  <inspiration_ids>  (492) 
[59, 96]

>  <energy_score>  (492) 
1075.4229862228594

>  <distance_score>  (492) 
8.622524905095705

>  <path>  (492) 
/opt/xchem-fragalysis-2/maxwin/BulkDock/SCRATCH/511013/C35577-P96/C35577-P96.minimised.mol

>  <scratch_subdir>  (492) 
/opt/xchem-fragalysis-2/maxwin/BulkDock/SCRATCH/511013/C35577-P96

>  <fragmenstein_runtime>  (492) 
13.856883525848389

>  <fragmenstein_outcome>  (492) 
too moved

>  <fragmenstein_mode>  (492) 
expansion

>  <fragmenstein_error>  (492) 


$$$$
C35578-P59
     RDKit          3D

 42 44  0  0  0  0  0  0  0  0999 V2000
   -7.0907  -11.9393   32.6367 C   0  0  0  0  0  0  0  0  0  0  0  0
   -8.5807  -11.9861   32.8786 C   0  0  0  0  0  0  0  0  0  0  0  0
   -9.3015  -10.4222   32.1512 C   0  0  0  0  0  0  0  0  0  0  0  0
   -9.5222   -8.5662   33.2012 C   0  0  0  0  0  0  0  0  0  0  0  0
   -8.3217   -7.0610   33.6745 N   0  0  0  0  0  0  0  0  0  0  0  0
   -6.9305   -6.2098   32.7500 C   0  0  0  0  0  0  0  0  0  0  0  0
   -6.7037   -6.7316   31.7522 O   0  0  0  0  0  0  0  0  0  0  0  0
   -5.5290   -4.6566   33.0326 C   0  0  0  0  0  0  0  0  0  0  0  0
   -5.0390   -3.1659   34.0949 C   0  0  0  0  0  0  0  0  0  0  0  0
   -4.1988   -2.2845   33.4703 C   0  0  0  0  0  0  0  0  0  0  0  0
   -3.5149   -1.1295   33.9530 C   0  0  0  0  0  0  0  0  0  0  0  0
   -3.6893   -0.4513   35.1499 C   0  0  0  0  0  0  0  0  0  0  0  0
   -2.7136    0.5734   35.2009 C   0  0  0  0  0  0  0  0  0  0  0  0
   -1.9969    0.4669   34.0359 C   0  0  0  0  0  0  0  0  0  0  0  0
   -2.4949   -0.5277   33.2610 O   0  0  0  0  0  0  0  0  0  0  0  0
   -4.0313   -2.7918   32.2563 O   0  0  0  0  0  0  0  0  0  0  0  0
   -4.8414   -3.7902   31.9528 N   0  0  0  0  0  0  0  0  0  0  0  0
   -8.5887  -13.5880   32.9731 N   0  0  0  0  0  0  0  0  0  0  0  0
   -9.8928  -14.7442   33.2341 C   0  0  0  0  0  0  0  0  0  0  0  0
  -11.0814  -14.5716   33.2967 O   0  0  0  0  0  0  0  0  0  0  0  0
   -9.5142  -16.4262   33.6470 C   0  0  0  0  0  0  0  0  0  0  0  0
   -8.3860  -17.4014   33.7725 C   0  0  0  0  0  0  0  0  0  0  0  0
   -8.7381  -18.4190   34.6240 C   0  0  0  0  0  0  0  0  0  0  0  0
   -9.9627  -18.0770   35.0492 N   0  0  0  0  0  0  0  0  0  0  0  0
  -10.3759  -16.8919   34.6235 N   0  0  0  0  0  0  0  0  0  0  0  0
   -6.6224  -12.8700   32.8283 H   0  0  0  0  0  0  0  0  0  0  0  0
   -6.9454  -11.8668   31.6087 H   0  0  0  0  0  0  0  0  0  0  0  0
   -6.4622  -11.2196   33.1548 H   0  0  0  0  0  0  0  0  0  0  0  0
   -8.4449  -11.8046   33.9591 H   0  0  0  0  0  0  0  0  0  0  0  0
   -9.9800  -10.6416   31.3671 H   0  0  0  0  0  0  0  0  0  0  0  0
   -8.5921  -10.4375   31.3250 H   0  0  0  0  0  0  0  0  0  0  0  0
  -10.3121   -9.1695   33.6548 H   0  0  0  0  0  0  0  0  0  0  0  0
  -10.2517   -7.8239   32.7941 H   0  0  0  0  0  0  0  0  0  0  0  0
   -8.4129   -6.6115   34.5701 H   0  0  0  0  0  0  0  0  0  0  0  0
   -5.3978   -3.0636   35.1018 H   0  0  0  0  0  0  0  0  0  0  0  0
   -4.4202   -0.6867   35.9106 H   0  0  0  0  0  0  0  0  0  0  0  0
   -2.5399    1.2838   35.9971 H   0  0  0  0  0  0  0  0  0  0  0  0
   -1.1483    0.9968   33.6254 H   0  0  0  0  0  0  0  0  0  0  0  0
   -7.7467  -14.0338   32.8858 H   0  0  0  0  0  0  0  0  0  0  0  0
   -7.4767  -17.4406   33.1794 H   0  0  0  0  0  0  0  0  0  0  0  0
   -8.2468  -19.3388   34.9036 H   0  0  0  0  0  0  0  0  0  0  0  0
  -10.5674  -18.5808   35.6875 H   0  0  0  0  0  0  0  0  0  0  0  0
  1  2  1  0
  2  3  1  0
  3  4  1  0
  4  5  1  0
  5  6  1  0
  6  7  2  0
  6  8  1  0
  8  9  1  0
  9 10  2  0
 10 11  1  0
 11 12  2  0
 12 13  1  0
 13 14  2  0
 14 15  1  0
 10 16  1  0
 16 17  1  0
  2 18  1  0
 18 19  1  0
 19 20  2  0
 19 21  1  0
 21 22  1  0
 22 23  2  0
 23 24  1  0
 24 25  1  0
 17  8  2  0
 25 21  2  0
 15 11  1  0
  1 26  1  0
  1 27  1  0
  1 28  1  0
  2 29  1  0
  3 30  1  0
  3 31  1  0
  4 32  1  0
  4 33  1  0
  5 34  1  0
  9 35  1  0
 12 36  1  0
 13 37  1  0
 14 38  1  0
 18 39  1  0
 22 40  1  0
 23 41  1  0
 24 42  1  0
M  END
>  <Energy>  (493) 
832.74116111579826

>  <compound_id>  (493) 
35578

>  <target_id>  (493) 
1

>  <reference_id>  (493) 
59

>  <inspiration_ids>  (493) 
[59, 96]

>  <energy_score>  (493) 
761.0260110225122

>  <distance_score>  (493) 
8.4551090965135

>  <path>  (493) 
/opt/xchem-fragalysis-2/maxwin/BulkDock/SCRATCH/511013/C35578-P59/C35578-P59.minimised.mol

>  <scratch_subdir>  (493) 
/opt/xchem-fragalysis-2/maxwin/BulkDock/SCRATCH/511013/C35578-P59

>  <fragmenstein_runtime>  (493) 
29.94909167289734

>  <fragmenstein_outcome>  (493) 
too moved

>  <fragmenstein_mode>  (493) 
expansion

>  <fragmenstein_error>  (493) 


$$$$
C35578-P96
     RDKit          3D

 42 44  0  0  0  0  0  0  0  0999 V2000
   -1.1236   -3.5076   28.4217 C   0  0  0  0  0  0  0  0  0  0  0  0
   -1.8437   -4.6109   29.1662 C   0  0  0  0  0  0  0  0  0  0  0  0
   -2.1920   -4.3109   30.6554 C   0  0  0  0  0  0  0  0  0  0  0  0
   -1.1887   -3.6521   31.5996 C   0  0  0  0  0  0  0  0  0  0  0  0
   -0.7809   -2.3497   31.1753 N   0  0  0  0  0  0  0  0  0  0  0  0
   -1.2476   -1.0582   31.5454 C   0  0  0  0  0  0  0  0  0  0  0  0
   -2.0480   -0.7235   32.3658 O   0  0  0  0  0  0  0  0  0  0  0  0
   -0.6416   -0.0433   30.6659 C   0  0  0  0  0  0  0  0  0  0  0  0
   -1.0195    1.3102   30.5123 C   0  0  0  0  0  0  0  0  0  0  0  0
   -0.2142    1.8008   29.5070 C   0  0  0  0  0  0  0  0  0  0  0  0
   -0.1831    3.0984   28.9081 C   0  0  0  0  0  0  0  0  0  0  0  0
   -0.9561    4.2149   29.1876 C   0  0  0  0  0  0  0  0  0  0  0  0
   -0.5364    5.2475   28.3130 C   0  0  0  0  0  0  0  0  0  0  0  0
    0.4680    4.7090   27.5482 C   0  0  0  0  0  0  0  0  0  0  0  0
    0.6896    3.4184   27.8993 O   0  0  0  0  0  0  0  0  0  0  0  0
    0.6227    0.7955   29.1118 O   0  0  0  0  0  0  0  0  0  0  0  0
    0.3594   -0.3545   29.8257 N   0  0  0  0  0  0  0  0  0  0  0  0
   -1.3662   -5.9662   28.8879 N   0  0  0  0  0  0  0  0  0  0  0  0
   -1.9746   -7.2285   29.1038 C   0  0  0  0  0  0  0  0  0  0  0  0
   -2.9979   -7.5124   29.6396 O   0  0  0  0  0  0  0  0  0  0  0  0
   -1.2648   -8.4256   28.4602 C   0  0  0  0  0  0  0  0  0  0  0  0
   -1.9125   -9.5415   27.7978 C   0  0  0  0  0  0  0  0  0  0  0  0
   -0.9642  -10.5178   27.6364 C   0  0  0  0  0  0  0  0  0  0  0  0
    0.1626   -9.9933   28.1792 N   0  0  0  0  0  0  0  0  0  0  0  0
    0.0368   -8.7215   28.6254 N   0  0  0  0  0  0  0  0  0  0  0  0
   -1.6123   -2.5400   28.5719 H   0  0  0  0  0  0  0  0  0  0  0  0
   -1.1391   -3.7091   27.3440 H   0  0  0  0  0  0  0  0  0  0  0  0
   -0.0722   -3.4264   28.7023 H   0  0  0  0  0  0  0  0  0  0  0  0
   -2.8337   -4.6515   28.6936 H   0  0  0  0  0  0  0  0  0  0  0  0
   -3.0411   -3.6256   30.6250 H   0  0  0  0  0  0  0  0  0  0  0  0
   -2.5569   -5.2289   31.1315 H   0  0  0  0  0  0  0  0  0  0  0  0
   -0.2948   -4.2356   31.7710 H   0  0  0  0  0  0  0  0  0  0  0  0
   -1.6756   -3.5318   32.5743 H   0  0  0  0  0  0  0  0  0  0  0  0
   -0.0311   -2.2476   30.4902 H   0  0  0  0  0  0  0  0  0  0  0  0
   -1.8003    1.8324   31.0448 H   0  0  0  0  0  0  0  0  0  0  0  0
   -1.7343    4.2790   29.9352 H   0  0  0  0  0  0  0  0  0  0  0  0
   -0.9186    6.2565   28.2476 H   0  0  0  0  0  0  0  0  0  0  0  0
    1.0938    5.0903   26.7530 H   0  0  0  0  0  0  0  0  0  0  0  0
   -0.5262   -6.0958   28.3157 H   0  0  0  0  0  0  0  0  0  0  0  0
   -2.9598   -9.6580   27.5659 H   0  0  0  0  0  0  0  0  0  0  0  0
   -1.0042  -11.5189   27.2318 H   0  0  0  0  0  0  0  0  0  0  0  0
    1.0690  -10.4396   28.2701 H   0  0  0  0  0  0  0  0  0  0  0  0
  1  2  1  0
  2  3  1  0
  3  4  1  0
  4  5  1  0
  5  6  1  0
  6  7  2  0
  6  8  1  0
  8  9  1  0
  9 10  2  0
 10 11  1  0
 11 12  2  0
 12 13  1  0
 13 14  2  0
 14 15  1  0
 10 16  1  0
 16 17  1  0
  2 18  1  0
 18 19  1  0
 19 20  2  0
 19 21  1  0
 21 22  1  0
 22 23  2  0
 23 24  1  0
 24 25  1  0
 17  8  2  0
 25 21  2  0
 15 11  1  0
  1 26  1  0
  1 27  1  0
  1 28  1  0
  2 29  1  0
  3 30  1  0
  3 31  1  0
  4 32  1  0
  4 33  1  0
  5 34  1  0
  9 35  1  0
 12 36  1  0
 13 37  1  0
 14 38  1  0
 18 39  1  0
 22 40  1  0
 23 41  1  0
 24 42  1  0
M  END
>  <Energy>  (494) 
58.741330911680556

>  <compound_id>  (494) 
35578

>  <target_id>  (494) 
1

>  <reference_id>  (494) 
96

>  <inspiration_ids>  (494) 
[59, 96]

>  <energy_score>  (494) 
-12.973819181592717

>  <distance_score>  (494) 
10.863743614355753

>  <path>  (494) 
/opt/xchem-fragalysis-2/maxwin/BulkDock/SCRATCH/511013/C35578-P96/C35578-P96.minimised.mol

>  <scratch_subdir>  (494) 
/opt/xchem-fragalysis-2/maxwin/BulkDock/SCRATCH/511013/C35578-P96

>  <fragmenstein_runtime>  (494) 
14.14196228981018

>  <fragmenstein_outcome>  (494) 
too moved

>  <fragmenstein_mode>  (494) 
expansion

>  <fragmenstein_error>  (494) 


$$$$
C35579-P59
     RDKit          3D

 44 45  0  0  0  0  0  0  0  0999 V2000
   -1.5711    1.6409   27.6298 C   0  0  0  0  0  0  0  0  0  0  0  0
   -1.1897    0.5630   28.6356 C   0  0  0  0  0  0  0  0  0  0  0  0
   -0.7515   -0.7081   27.9178 C   0  0  0  0  0  0  0  0  0  0  0  0
   -0.3799   -1.8019   28.8463 C   0  0  0  0  0  0  0  0  0  0  0  0
   -1.0601   -2.5361   29.7840 C   0  0  0  0  0  0  0  0  0  0  0  0
   -0.1288   -3.5131   30.2241 C   0  0  0  0  0  0  0  0  0  0  0  0
   -0.3569   -4.5907   31.2127 C   0  0  0  0  0  0  0  0  0  0  0  0
   -1.3734   -4.5695   31.8427 O   0  0  0  0  0  0  0  0  0  0  0  0
    0.7494   -5.4979   31.2542 N   0  0  0  0  0  0  0  0  0  0  0  0
    1.0292   -6.6107   32.1299 C   0  0  0  0  0  0  0  0  0  0  0  0
    0.8108   -8.0040   31.5284 C   0  0  0  0  0  0  0  0  0  0  0  0
   -0.6249   -8.4243   31.1873 C   0  0  0  0  0  0  0  0  0  0  0  0
   -1.6076   -8.0806   32.3134 C   0  0  0  0  0  0  0  0  0  0  0  0
   -0.7524   -9.8655   30.8573 N   0  0  0  0  0  0  0  0  0  0  0  0
   -0.2852  -10.6249   29.7123 C   0  0  0  0  0  0  0  0  0  0  0  0
    0.3903  -10.2950   28.7820 O   0  0  0  0  0  0  0  0  0  0  0  0
   -0.8520  -12.0402   29.7116 C   0  0  0  0  0  0  0  0  0  0  0  0
   -0.5114  -13.1583   30.5361 C   0  0  0  0  0  0  0  0  0  0  0  0
   -1.3441  -14.1917   30.1573 C   0  0  0  0  0  0  0  0  0  0  0  0
   -2.1111  -13.6933   29.1481 N   0  0  0  0  0  0  0  0  0  0  0  0
   -1.8568  -12.4015   28.8816 N   0  0  0  0  0  0  0  0  0  0  0  0
    1.0559   -3.3486   29.6099 N   0  0  0  0  0  0  0  0  0  0  0  0
    0.8936   -2.2695   28.7577 O   0  0  0  0  0  0  0  0  0  0  0  0
   -1.8680    2.5604   28.1419 H   0  0  0  0  0  0  0  0  0  0  0  0
   -2.4103    1.3146   27.0066 H   0  0  0  0  0  0  0  0  0  0  0  0
   -0.7287    1.8791   26.9724 H   0  0  0  0  0  0  0  0  0  0  0  0
   -0.3816    0.9327   29.2782 H   0  0  0  0  0  0  0  0  0  0  0  0
   -2.0473    0.3552   29.2863 H   0  0  0  0  0  0  0  0  0  0  0  0
    0.0994   -0.4742   27.2691 H   0  0  0  0  0  0  0  0  0  0  0  0
   -1.5680   -1.0584   27.2762 H   0  0  0  0  0  0  0  0  0  0  0  0
   -2.0926   -2.4230   30.0765 H   0  0  0  0  0  0  0  0  0  0  0  0
    1.4817   -5.1571   30.6299 H   0  0  0  0  0  0  0  0  0  0  0  0
    0.4519   -6.4810   33.0502 H   0  0  0  0  0  0  0  0  0  0  0  0
    2.0856   -6.5144   32.4057 H   0  0  0  0  0  0  0  0  0  0  0  0
    1.2171   -8.7333   32.2425 H   0  0  0  0  0  0  0  0  0  0  0  0
    1.4260   -8.1022   30.6242 H   0  0  0  0  0  0  0  0  0  0  0  0
   -0.9212   -7.8801   30.2835 H   0  0  0  0  0  0  0  0  0  0  0  0
   -2.6181   -8.3741   32.0274 H   0  0  0  0  0  0  0  0  0  0  0  0
   -1.3552   -8.6213   33.2321 H   0  0  0  0  0  0  0  0  0  0  0  0
   -1.6237   -7.0151   32.5373 H   0  0  0  0  0  0  0  0  0  0  0  0
   -1.2339  -10.4864   31.4899 H   0  0  0  0  0  0  0  0  0  0  0  0
    0.2558  -13.1919   31.2970 H   0  0  0  0  0  0  0  0  0  0  0  0
   -1.4388  -15.2152   30.4909 H   0  0  0  0  0  0  0  0  0  0  0  0
   -2.8285  -14.1626   28.6022 H   0  0  0  0  0  0  0  0  0  0  0  0
  1  2  1  0
  2  3  1  0
  3  4  1  0
  4  5  2  0
  5  6  1  0
  6  7  1  0
  7  8  2  0
  7  9  1  0
  9 10  1  0
 10 11  1  0
 11 12  1  0
 12 13  1  0
 12 14  1  0
 14 15  1  0
 15 16  2  0
 15 17  1  0
 17 18  1  0
 18 19  2  0
 19 20  1  0
 20 21  1  0
  6 22  2  0
 22 23  1  0
 23  4  1  0
 21 17  2  0
  1 24  1  0
  1 25  1  0
  1 26  1  0
  2 27  1  0
  2 28  1  0
  3 29  1  0
  3 30  1  0
  5 31  1  0
  9 32  1  0
 10 33  1  0
 10 34  1  0
 11 35  1  0
 11 36  1  0
 12 37  1  0
 13 38  1  0
 13 39  1  0
 13 40  1  0
 14 41  1  0
 18 42  1  0
 19 43  1  0
 20 44  1  0
M  END
>  <Energy>  (495) 
51.021451979956929

>  <compound_id>  (495) 
35579

>  <target_id>  (495) 
1

>  <reference_id>  (495) 
59

>  <inspiration_ids>  (495) 
[59, 96]

>  <energy_score>  (495) 
-19.069083786724832

>  <distance_score>  (495) 
9.912340062562583

>  <path>  (495) 
/opt/xchem-fragalysis-2/maxwin/BulkDock/SCRATCH/511013/C35579-P59/C35579-P59.minimised.mol

>  <scratch_subdir>  (495) 
/opt/xchem-fragalysis-2/maxwin/BulkDock/SCRATCH/511013/C35579-P59

>  <fragmenstein_runtime>  (495) 
28.46173882484436

>  <fragmenstein_outcome>  (495) 
too moved

>  <fragmenstein_mode>  (495) 
expansion

>  <fragmenstein_error>  (495) 


$$$$
C35579-P96
     RDKit          3D

 44 45  0  0  0  0  0  0  0  0999 V2000
    0.9459    0.1700   33.4314 C   0  0  0  0  0  0  0  0  0  0  0  0
    1.0322    0.9476   32.1247 C   0  0  0  0  0  0  0  0  0  0  0  0
    1.2917    0.0565   30.9086 C   0  0  0  0  0  0  0  0  0  0  0  0
    0.1504   -0.8311   30.5958 C   0  0  0  0  0  0  0  0  0  0  0  0
   -0.1006   -2.1717   30.7600 C   0  0  0  0  0  0  0  0  0  0  0  0
   -1.3523   -2.3817   30.1279 C   0  0  0  0  0  0  0  0  0  0  0  0
   -2.1004   -3.6340   29.8717 C   0  0  0  0  0  0  0  0  0  0  0  0
   -2.6728   -3.7077   28.8264 O   0  0  0  0  0  0  0  0  0  0  0  0
   -2.0381   -4.5573   30.9735 N   0  0  0  0  0  0  0  0  0  0  0  0
   -2.7232   -5.8156   31.1996 C   0  0  0  0  0  0  0  0  0  0  0  0
   -3.0915   -6.6239   29.9490 C   0  0  0  0  0  0  0  0  0  0  0  0
   -1.9319   -7.4435   29.2807 C   0  0  0  0  0  0  0  0  0  0  0  0
   -1.1486   -6.5258   28.4198 C   0  0  0  0  0  0  0  0  0  0  0  0
   -2.2822   -8.6451   28.4381 N   0  0  0  0  0  0  0  0  0  0  0  0
   -1.4362   -9.6049   27.7477 C   0  0  0  0  0  0  0  0  0  0  0  0
   -0.2460   -9.6380   27.6074 O   0  0  0  0  0  0  0  0  0  0  0  0
   -2.2574  -10.7863   27.2252 C   0  0  0  0  0  0  0  0  0  0  0  0
   -1.7816  -12.0637   26.7770 C   0  0  0  0  0  0  0  0  0  0  0  0
   -2.8959  -12.8474   26.5649 C   0  0  0  0  0  0  0  0  0  0  0  0
   -3.9604  -12.0460   26.8414 N   0  0  0  0  0  0  0  0  0  0  0  0
   -3.6072  -10.8164   27.2594 N   0  0  0  0  0  0  0  0  0  0  0  0
   -1.8448   -1.2111   29.6807 N   0  0  0  0  0  0  0  0  0  0  0  0
   -0.9047   -0.2511   29.9742 O   0  0  0  0  0  0  0  0  0  0  0  0
    0.8315    0.8602   34.2733 H   0  0  0  0  0  0  0  0  0  0  0  0
    1.8520   -0.4209   33.5983 H   0  0  0  0  0  0  0  0  0  0  0  0
    0.0864   -0.5063   33.4370 H   0  0  0  0  0  0  0  0  0  0  0  0
    0.1097    1.5245   31.9865 H   0  0  0  0  0  0  0  0  0  0  0  0
    1.8515    1.6718   32.2071 H   0  0  0  0  0  0  0  0  0  0  0  0
    2.1951   -0.5430   31.0730 H   0  0  0  0  0  0  0  0  0  0  0  0
    1.4950    0.6934   30.0390 H   0  0  0  0  0  0  0  0  0  0  0  0
    0.5672   -2.9004   31.1914 H   0  0  0  0  0  0  0  0  0  0  0  0
   -1.3901   -4.2027   31.6643 H   0  0  0  0  0  0  0  0  0  0  0  0
   -3.6331   -5.5571   31.7448 H   0  0  0  0  0  0  0  0  0  0  0  0
   -2.1681   -6.4136   31.9074 H   0  0  0  0  0  0  0  0  0  0  0  0
   -3.9014   -7.3006   30.1986 H   0  0  0  0  0  0  0  0  0  0  0  0
   -3.5461   -5.9218   29.2506 H   0  0  0  0  0  0  0  0  0  0  0  0
   -1.2776   -7.8321   30.0660 H   0  0  0  0  0  0  0  0  0  0  0  0
   -0.2736   -7.1151   28.1510 H   0  0  0  0  0  0  0  0  0  0  0  0
   -1.6475   -6.2336   27.4928 H   0  0  0  0  0  0  0  0  0  0  0  0
   -0.8374   -5.6204   28.9220 H   0  0  0  0  0  0  0  0  0  0  0  0
   -3.2434   -8.9809   28.4240 H   0  0  0  0  0  0  0  0  0  0  0  0
   -0.7466  -12.3577   26.6689 H   0  0  0  0  0  0  0  0  0  0  0  0
   -3.0184  -13.8698   26.2381 H   0  0  0  0  0  0  0  0  0  0  0  0
   -4.9510  -12.2631   26.7824 H   0  0  0  0  0  0  0  0  0  0  0  0
  1  2  1  0
  2  3  1  0
  3  4  1  0
  4  5  2  0
  5  6  1  0
  6  7  1  0
  7  8  2  0
  7  9  1  0
  9 10  1  0
 10 11  1  0
 11 12  1  0
 12 13  1  0
 12 14  1  0
 14 15  1  0
 15 16  2  0
 15 17  1  0
 17 18  1  0
 18 19  2  0
 19 20  1  0
 20 21  1  0
  6 22  2  0
 22 23  1  0
 23  4  1  0
 21 17  2  0
  1 24  1  0
  1 25  1  0
  1 26  1  0
  2 27  1  0
  2 28  1  0
  3 29  1  0
  3 30  1  0
  5 31  1  0
  9 32  1  0
 10 33  1  0
 10 34  1  0
 11 35  1  0
 11 36  1  0
 12 37  1  0
 13 38  1  0
 13 39  1  0
 13 40  1  0
 14 41  1  0
 18 42  1  0
 19 43  1  0
 20 44  1  0
M  END
>  <Energy>  (496) 
60.972116483040963

>  <compound_id>  (496) 
35579

>  <target_id>  (496) 
1

>  <reference_id>  (496) 
96

>  <inspiration_ids>  (496) 
[59, 96]

>  <energy_score>  (496) 
-9.118419283642197

>  <distance_score>  (496) 
9.694091928727882

>  <path>  (496) 
/opt/xchem-fragalysis-2/maxwin/BulkDock/SCRATCH/511013/C35579-P96/C35579-P96.minimised.mol

>  <scratch_subdir>  (496) 
/opt/xchem-fragalysis-2/maxwin/BulkDock/SCRATCH/511013/C35579-P96

>  <fragmenstein_runtime>  (496) 
14.201580286026001

>  <fragmenstein_outcome>  (496) 
too moved

>  <fragmenstein_mode>  (496) 
expansion

>  <fragmenstein_error>  (496) 


$$$$
C35580-P59
     RDKit          3D

 44 45  0  0  0  0  0  0  0  0999 V2000
   -7.1208   -1.5508   33.2091 C   0  0  0  0  0  0  0  0  0  0  0  0
   -6.8360   -2.8229   32.2572 C   0  0  0  0  0  0  0  0  0  0  0  0
   -5.3842   -4.0313   33.0711 N   0  0  0  0  0  0  0  0  0  0  0  0
   -4.0013   -3.5583   32.3372 C   0  0  0  0  0  0  0  0  0  0  0  0
   -3.4379   -3.9768   31.3789 O   0  0  0  0  0  0  0  0  0  0  0  0
   -3.4115   -2.3062   32.9466 C   0  0  0  0  0  0  0  0  0  0  0  0
   -3.6524   -1.6779   34.1942 C   0  0  0  0  0  0  0  0  0  0  0  0
   -2.8298   -0.5762   34.2277 C   0  0  0  0  0  0  0  0  0  0  0  0
   -2.1368   -0.5967   33.0593 N   0  0  0  0  0  0  0  0  0  0  0  0
   -2.5112   -1.5817   32.2412 N   0  0  0  0  0  0  0  0  0  0  0  0
   -6.7756   -5.8848   32.7755 C   0  0  0  0  0  0  0  0  0  0  0  0
   -7.0801   -5.9122   34.6759 C   0  0  0  0  0  0  0  0  0  0  0  0
   -8.3651   -7.5264   33.0439 C   0  0  0  0  0  0  0  0  0  0  0  0
   -9.4595   -9.4606   33.0323 N   0  0  0  0  0  0  0  0  0  0  0  0
   -8.8171  -11.3719   32.6233 C   0  0  0  0  0  0  0  0  0  0  0  0
   -7.6847  -11.5347   32.2321 O   0  0  0  0  0  0  0  0  0  0  0  0
   -9.6864  -13.2391   32.9422 C   0  0  0  0  0  0  0  0  0  0  0  0
  -10.2778  -14.9098   33.6000 C   0  0  0  0  0  0  0  0  0  0  0  0
  -11.5547  -15.6531   34.3348 C   0  0  0  0  0  0  0  0  0  0  0  0
  -12.9706  -15.6350   34.1163 C   0  0  0  0  0  0  0  0  0  0  0  0
  -13.4825  -16.6983   34.8107 C   0  0  0  0  0  0  0  0  0  0  0  0
  -12.4696  -17.3676   35.3940 O   0  0  0  0  0  0  0  0  0  0  0  0
  -11.2810  -16.7569   35.0850 N   0  0  0  0  0  0  0  0  0  0  0  0
   -7.3154   -0.6732   32.5868 H   0  0  0  0  0  0  0  0  0  0  0  0
   -7.9918   -1.6903   33.8550 H   0  0  0  0  0  0  0  0  0  0  0  0
   -6.2672   -1.3298   33.8500 H   0  0  0  0  0  0  0  0  0  0  0  0
   -7.1170   -2.6965   31.1696 H   0  0  0  0  0  0  0  0  0  0  0  0
   -5.9331   -2.2860   31.8973 H   0  0  0  0  0  0  0  0  0  0  0  0
   -4.3139   -2.0213   34.9762 H   0  0  0  0  0  0  0  0  0  0  0  0
   -2.6526    0.1738   34.9847 H   0  0  0  0  0  0  0  0  0  0  0  0
   -1.4012    0.0294   32.7476 H   0  0  0  0  0  0  0  0  0  0  0  0
   -7.8353   -5.8517   32.9345 H   0  0  0  0  0  0  0  0  0  0  0  0
   -6.7430   -4.9960   35.1371 H   0  0  0  0  0  0  0  0  0  0  0  0
   -8.1436   -5.9165   34.9334 H   0  0  0  0  0  0  0  0  0  0  0  0
   -7.1009   -6.6995   35.3737 H   0  0  0  0  0  0  0  0  0  0  0  0
   -8.6431   -7.2880   34.0159 H   0  0  0  0  0  0  0  0  0  0  0  0
   -9.2509   -7.0793   32.6142 H   0  0  0  0  0  0  0  0  0  0  0  0
  -10.3884   -9.4995   33.4248 H   0  0  0  0  0  0  0  0  0  0  0  0
   -8.6455  -13.5491   33.1343 H   0  0  0  0  0  0  0  0  0  0  0  0
   -9.7312  -13.8991   32.0855 H   0  0  0  0  0  0  0  0  0  0  0  0
  -10.0639  -15.5788   32.8067 H   0  0  0  0  0  0  0  0  0  0  0  0
   -9.5421  -15.3260   34.2360 H   0  0  0  0  0  0  0  0  0  0  0  0
  -13.4975  -15.0177   33.4316 H   0  0  0  0  0  0  0  0  0  0  0  0
  -14.4640  -17.1280   34.9337 H   0  0  0  0  0  0  0  0  0  0  0  0
  1  2  1  0
  2  3  1  0
  3  4  1  0
  4  5  2  0
  4  6  1  0
  6  7  1  0
  7  8  2  0
  8  9  1  0
  9 10  1  0
  3 11  1  0
 11 12  1  0
 11 13  1  0
 13 14  1  0
 14 15  1  0
 15 16  2  0
 15 17  1  0
 17 18  1  0
 18 19  1  0
 19 20  1  0
 20 21  2  0
 21 22  1  0
 22 23  1  0
 10  6  2  0
 23 19  2  0
  1 24  1  0
  1 25  1  0
  1 26  1  0
  2 27  1  0
  2 28  1  0
  7 29  1  0
  8 30  1  0
  9 31  1  0
 11 32  1  0
 12 33  1  0
 12 34  1  0
 12 35  1  0
 13 36  1  0
 13 37  1  0
 14 38  1  0
 17 39  1  0
 17 40  1  0
 18 41  1  0
 18 42  1  0
 20 43  1  0
 21 44  1  0
M  END
>  <Energy>  (497) 
1605.3965524685602

>  <compound_id>  (497) 
35580

>  <target_id>  (497) 
1

>  <reference_id>  (497) 
59

>  <inspiration_ids>  (497) 
[59, 96]

>  <energy_score>  (497) 
1537.5729200233486

>  <distance_score>  (497) 
7.680406263343263

>  <path>  (497) 
/opt/xchem-fragalysis-2/maxwin/BulkDock/SCRATCH/511013/C35580-P59/C35580-P59.minimised.mol

>  <scratch_subdir>  (497) 
/opt/xchem-fragalysis-2/maxwin/BulkDock/SCRATCH/511013/C35580-P59

>  <fragmenstein_runtime>  (497) 
26.36000967025757

>  <fragmenstein_outcome>  (497) 
too moved

>  <fragmenstein_mode>  (497) 
expansion

>  <fragmenstein_error>  (497) 


$$$$
C35580-P96
     RDKit          3D

 44 45  0  0  0  0  0  0  0  0999 V2000
   -4.0962   -6.8494   30.1104 C   0  0  0  0  0  0  0  0  0  0  0  0
   -3.4390   -6.7268   31.4405 C   0  0  0  0  0  0  0  0  0  0  0  0
   -4.0230   -5.7124   32.2511 N   0  0  0  0  0  0  0  0  0  0  0  0
   -3.0108   -4.8287   32.7163 C   0  0  0  0  0  0  0  0  0  0  0  0
   -2.3602   -4.8576   33.7077 O   0  0  0  0  0  0  0  0  0  0  0  0
   -2.5930   -3.7183   31.7615 C   0  0  0  0  0  0  0  0  0  0  0  0
   -1.6259   -2.6999   32.0323 C   0  0  0  0  0  0  0  0  0  0  0  0
   -1.3340   -2.0853   30.8421 C   0  0  0  0  0  0  0  0  0  0  0  0
   -2.0359   -2.7777   29.9142 N   0  0  0  0  0  0  0  0  0  0  0  0
   -2.7692   -3.7793   30.4226 N   0  0  0  0  0  0  0  0  0  0  0  0
   -4.8089   -7.1509   33.0537 C   0  0  0  0  0  0  0  0  0  0  0  0
   -3.6202   -8.4555   33.5521 C   0  0  0  0  0  0  0  0  0  0  0  0
   -6.7666   -7.3598   33.3943 C   0  0  0  0  0  0  0  0  0  0  0  0
   -8.1988   -8.7459   33.1603 N   0  0  0  0  0  0  0  0  0  0  0  0
   -8.7154   -9.7563   31.6743 C   0  0  0  0  0  0  0  0  0  0  0  0
   -8.2412   -9.5439   30.6095 O   0  0  0  0  0  0  0  0  0  0  0  0
   -9.7656  -11.2678   31.6828 C   0  0  0  0  0  0  0  0  0  0  0  0
   -9.6025  -13.1753   31.9531 C   0  0  0  0  0  0  0  0  0  0  0  0
  -10.3311  -13.7782   33.2891 C   0  0  0  0  0  0  0  0  0  0  0  0
   -9.7696  -14.6142   34.2858 C   0  0  0  0  0  0  0  0  0  0  0  0
  -10.8721  -15.1536   34.9218 C   0  0  0  0  0  0  0  0  0  0  0  0
  -12.0185  -14.6475   34.3924 O   0  0  0  0  0  0  0  0  0  0  0  0
  -11.6955  -13.7124   33.4070 N   0  0  0  0  0  0  0  0  0  0  0  0
   -3.5893   -7.6414   29.5648 H   0  0  0  0  0  0  0  0  0  0  0  0
   -5.1488   -7.0572   30.2371 H   0  0  0  0  0  0  0  0  0  0  0  0
   -3.9978   -5.9358   29.5229 H   0  0  0  0  0  0  0  0  0  0  0  0
   -2.5519   -6.1958   31.0406 H   0  0  0  0  0  0  0  0  0  0  0  0
   -2.7246   -7.4536   31.7815 H   0  0  0  0  0  0  0  0  0  0  0  0
   -1.1289   -2.5042   32.9604 H   0  0  0  0  0  0  0  0  0  0  0  0
   -0.6546   -1.2894   30.5755 H   0  0  0  0  0  0  0  0  0  0  0  0
   -2.0223   -2.6558   28.9078 H   0  0  0  0  0  0  0  0  0  0  0  0
   -4.6981   -6.5937   34.0052 H   0  0  0  0  0  0  0  0  0  0  0  0
   -3.9757   -9.4804   33.4653 H   0  0  0  0  0  0  0  0  0  0  0  0
   -2.6355   -8.4848   33.0839 H   0  0  0  0  0  0  0  0  0  0  0  0
   -3.4331   -8.5200   34.6256 H   0  0  0  0  0  0  0  0  0  0  0  0
   -6.7317   -6.5493   34.1358 H   0  0  0  0  0  0  0  0  0  0  0  0
   -6.7690   -7.8679   34.3165 H   0  0  0  0  0  0  0  0  0  0  0  0
   -8.7513   -9.0062   33.9280 H   0  0  0  0  0  0  0  0  0  0  0  0
  -10.4346  -11.7657   32.2908 H   0  0  0  0  0  0  0  0  0  0  0  0
   -9.5237  -10.7001   32.4851 H   0  0  0  0  0  0  0  0  0  0  0  0
   -8.5868  -13.5567   31.8216 H   0  0  0  0  0  0  0  0  0  0  0  0
  -10.4439  -13.6694   31.4834 H   0  0  0  0  0  0  0  0  0  0  0  0
   -8.7185  -14.8122   34.4266 H   0  0  0  0  0  0  0  0  0  0  0  0
  -11.0279  -15.8639   35.7185 H   0  0  0  0  0  0  0  0  0  0  0  0
  1  2  1  0
  2  3  1  0
  3  4  1  0
  4  5  2  0
  4  6  1  0
  6  7  1  0
  7  8  2  0
  8  9  1  0
  9 10  1  0
  3 11  1  0
 11 12  1  0
 11 13  1  0
 13 14  1  0
 14 15  1  0
 15 16  2  0
 15 17  1  0
 17 18  1  0
 18 19  1  0
 19 20  1  0
 20 21  2  0
 21 22  1  0
 22 23  1  0
 10  6  2  0
 23 19  2  0
  1 24  1  0
  1 25  1  0
  1 26  1  0
  2 27  1  0
  2 28  1  0
  7 29  1  0
  8 30  1  0
  9 31  1  0
 11 32  1  0
 12 33  1  0
 12 34  1  0
 12 35  1  0
 13 36  1  0
 13 37  1  0
 14 38  1  0
 17 39  1  0
 17 40  1  0
 18 41  1  0
 18 42  1  0
 20 43  1  0
 21 44  1  0
M  END
>  <Energy>  (498) 
686.08646340298731

>  <compound_id>  (498) 
35580

>  <target_id>  (498) 
1

>  <reference_id>  (498) 
96

>  <inspiration_ids>  (498) 
[59, 96]

>  <energy_score>  (498) 
618.2628309577551

>  <distance_score>  (498) 
7.684421894973689

>  <path>  (498) 
/opt/xchem-fragalysis-2/maxwin/BulkDock/SCRATCH/511013/C35580-P96/C35580-P96.minimised.mol

>  <scratch_subdir>  (498) 
/opt/xchem-fragalysis-2/maxwin/BulkDock/SCRATCH/511013/C35580-P96

>  <fragmenstein_runtime>  (498) 
9.466255903244019

>  <fragmenstein_outcome>  (498) 
too moved

>  <fragmenstein_mode>  (498) 
expansion

>  <fragmenstein_error>  (498) 


$$$$
C35589-P59
     RDKit          3D

 41 42  0  0  0  0  0  0  0  0999 V2000
  -11.1210   -5.6963   35.9116 C   0  0  0  0  0  0  0  0  0  0  0  0
  -10.0583   -6.7869   35.7624 C   0  0  0  0  0  0  0  0  0  0  0  0
  -10.8451   -8.4074   35.0834 C   0  0  0  0  0  0  0  0  0  0  0  0
   -9.9184   -9.6055   34.0843 N   0  0  0  0  0  0  0  0  0  0  0  0
   -8.8801  -11.1870   34.5701 C   0  0  0  0  0  0  0  0  0  0  0  0
   -8.5611  -11.6584   35.6892 O   0  0  0  0  0  0  0  0  0  0  0  0
   -8.3733  -12.3035   33.1473 C   0  0  0  0  0  0  0  0  0  0  0  0
   -9.2413  -14.0564   33.0238 C   0  0  0  0  0  0  0  0  0  0  0  0
  -10.1134  -15.4413   33.8675 C   0  0  0  0  0  0  0  0  0  0  0  0
   -9.6646  -16.8158   34.2233 C   0  0  0  0  0  0  0  0  0  0  0  0
  -10.4725  -17.5761   34.9603 N   0  0  0  0  0  0  0  0  0  0  0  0
  -11.6119  -16.8270   35.0406 O   0  0  0  0  0  0  0  0  0  0  0  0
  -11.4431  -15.6728   34.3210 C   0  0  0  0  0  0  0  0  0  0  0  0
   -8.3933   -6.2447   35.5080 C   0  0  0  0  0  0  0  0  0  0  0  0
   -7.3303   -4.7784   35.5055 N   0  0  0  0  0  0  0  0  0  0  0  0
   -7.7123   -3.0417   35.8655 C   0  0  0  0  0  0  0  0  0  0  0  0
   -8.7779   -2.6043   36.2691 O   0  0  0  0  0  0  0  0  0  0  0  0
   -6.6495   -1.9394   35.5308 C   0  0  0  0  0  0  0  0  0  0  0  0
   -5.2688   -1.9595   35.1757 C   0  0  0  0  0  0  0  0  0  0  0  0
   -4.9611   -0.7063   34.6926 C   0  0  0  0  0  0  0  0  0  0  0  0
   -6.1161    0.0040   34.7785 N   0  0  0  0  0  0  0  0  0  0  0  0
   -7.1055   -0.6822   35.3559 N   0  0  0  0  0  0  0  0  0  0  0  0
  -10.6934   -4.6958   35.9965 H   0  0  0  0  0  0  0  0  0  0  0  0
  -11.6996   -5.8693   36.8276 H   0  0  0  0  0  0  0  0  0  0  0  0
  -11.8518   -5.7286   35.0993 H   0  0  0  0  0  0  0  0  0  0  0  0
   -9.9601   -7.1086   36.8163 H   0  0  0  0  0  0  0  0  0  0  0  0
  -11.3547   -8.9621   35.8866 H   0  0  0  0  0  0  0  0  0  0  0  0
  -11.5761   -8.0556   34.3469 H   0  0  0  0  0  0  0  0  0  0  0  0
   -9.9091   -9.4810   33.0842 H   0  0  0  0  0  0  0  0  0  0  0  0
   -7.3037  -12.4611   33.0496 H   0  0  0  0  0  0  0  0  0  0  0  0
   -8.6072  -11.5856   32.3622 H   0  0  0  0  0  0  0  0  0  0  0  0
  -10.1442  -13.6816   32.7208 H   0  0  0  0  0  0  0  0  0  0  0  0
   -8.6745  -14.5661   32.2525 H   0  0  0  0  0  0  0  0  0  0  0  0
   -8.7877  -17.3308   33.9147 H   0  0  0  0  0  0  0  0  0  0  0  0
  -12.4229  -15.2743   34.1423 H   0  0  0  0  0  0  0  0  0  0  0  0
   -7.7732   -6.9689   36.0081 H   0  0  0  0  0  0  0  0  0  0  0  0
   -8.3228   -6.4457   34.4439 H   0  0  0  0  0  0  0  0  0  0  0  0
   -6.4043   -4.8458   35.1093 H   0  0  0  0  0  0  0  0  0  0  0  0
   -4.5780   -2.7768   35.2100 H   0  0  0  0  0  0  0  0  0  0  0  0
   -4.0515   -0.2829   34.2935 H   0  0  0  0  0  0  0  0  0  0  0  0
   -6.3230    0.9532   34.4722 H   0  0  0  0  0  0  0  0  0  0  0  0
  1  2  1  0
  2  3  1  0
  3  4  1  0
  4  5  1  0
  5  6  2  0
  5  7  1  0
  7  8  1  0
  8  9  1  0
  9 10  1  0
 10 11  2  0
 11 12  1  0
 12 13  1  0
  2 14  1  0
 14 15  1  0
 15 16  1  0
 16 17  2  0
 16 18  1  0
 18 19  1  0
 19 20  2  0
 20 21  1  0
 21 22  1  0
 13  9  2  0
 22 18  2  0
  1 23  1  0
  1 24  1  0
  1 25  1  0
  2 26  1  0
  3 27  1  0
  3 28  1  0
  4 29  1  0
  7 30  1  0
  7 31  1  0
  8 32  1  0
  8 33  1  0
 10 34  1  0
 13 35  1  0
 14 36  1  0
 14 37  1  0
 15 38  1  0
 19 39  1  0
 20 40  1  0
 21 41  1  0
M  END
>  <Energy>  (499) 
493.28940013273069

>  <compound_id>  (499) 
35589

>  <target_id>  (499) 
1

>  <reference_id>  (499) 
59

>  <inspiration_ids>  (499) 
[59, 96]

>  <energy_score>  (499) 
441.31310642222684

>  <distance_score>  (499) 
8.248335922862994

>  <path>  (499) 
/opt/xchem-fragalysis-2/maxwin/BulkDock/SCRATCH/511013/C35589-P59/C35589-P59.minimised.mol

>  <scratch_subdir>  (499) 
/opt/xchem-fragalysis-2/maxwin/BulkDock/SCRATCH/511013/C35589-P59

>  <fragmenstein_runtime>  (499) 
16.2428195476532

>  <fragmenstein_outcome>  (499) 
too moved

>  <fragmenstein_mode>  (499) 
expansion

>  <fragmenstein_error>  (499) 


$$$$
C35589-P96
     RDKit          3D

 41 42  0  0  0  0  0  0  0  0999 V2000
  -13.2932   -7.5549   36.8101 C   0  0  0  0  0  0  0  0  0  0  0  0
  -11.8179   -7.9433   37.0668 C   0  0  0  0  0  0  0  0  0  0  0  0
  -10.7934   -7.9459   35.6195 C   0  0  0  0  0  0  0  0  0  0  0  0
  -10.5890   -8.6749   34.2771 N   0  0  0  0  0  0  0  0  0  0  0  0
   -9.0965   -8.9684   33.3172 C   0  0  0  0  0  0  0  0  0  0  0  0
   -8.0003   -8.5081   33.5529 O   0  0  0  0  0  0  0  0  0  0  0  0
   -9.2012  -10.3157   31.8493 C   0  0  0  0  0  0  0  0  0  0  0  0
   -9.4148  -12.3085   31.6004 C   0  0  0  0  0  0  0  0  0  0  0  0
  -10.3821  -13.3743   32.6389 C   0  0  0  0  0  0  0  0  0  0  0  0
  -11.8111  -13.6022   32.7798 C   0  0  0  0  0  0  0  0  0  0  0  0
  -12.1346  -14.3019   33.8858 N   0  0  0  0  0  0  0  0  0  0  0  0
  -10.8948  -14.7741   34.3724 O   0  0  0  0  0  0  0  0  0  0  0  0
   -9.8716  -14.2093   33.6491 C   0  0  0  0  0  0  0  0  0  0  0  0
  -11.4281   -7.2816   38.4187 C   0  0  0  0  0  0  0  0  0  0  0  0
  -11.2699   -5.8483   38.4922 N   0  0  0  0  0  0  0  0  0  0  0  0
  -11.0373   -4.9838   39.6133 C   0  0  0  0  0  0  0  0  0  0  0  0
  -10.9964   -5.2186   40.7847 O   0  0  0  0  0  0  0  0  0  0  0  0
  -10.7101   -3.6098   39.0988 C   0  0  0  0  0  0  0  0  0  0  0  0
  -10.0124   -2.5764   39.7870 C   0  0  0  0  0  0  0  0  0  0  0  0
   -9.6248   -1.6717   38.8259 C   0  0  0  0  0  0  0  0  0  0  0  0
  -10.1118   -2.1542   37.6554 N   0  0  0  0  0  0  0  0  0  0  0  0
  -10.7757   -3.3196   37.7800 N   0  0  0  0  0  0  0  0  0  0  0  0
  -13.4592   -6.4787   36.8666 H   0  0  0  0  0  0  0  0  0  0  0  0
  -13.6723   -7.9284   35.8534 H   0  0  0  0  0  0  0  0  0  0  0  0
  -13.9273   -8.0018   37.5860 H   0  0  0  0  0  0  0  0  0  0  0  0
  -11.8326   -9.0026   37.3474 H   0  0  0  0  0  0  0  0  0  0  0  0
  -10.0153   -8.5153   36.1447 H   0  0  0  0  0  0  0  0  0  0  0  0
  -11.7131   -8.5349   35.4310 H   0  0  0  0  0  0  0  0  0  0  0  0
  -11.3765   -9.1054   33.8148 H   0  0  0  0  0  0  0  0  0  0  0  0
   -9.1030   -9.5901   31.0068 H   0  0  0  0  0  0  0  0  0  0  0  0
   -8.2794  -10.8759   31.8781 H   0  0  0  0  0  0  0  0  0  0  0  0
   -8.3896  -12.7944   31.6229 H   0  0  0  0  0  0  0  0  0  0  0  0
   -9.4412  -12.5939   30.5830 H   0  0  0  0  0  0  0  0  0  0  0  0
  -12.6206  -13.2687   32.1541 H   0  0  0  0  0  0  0  0  0  0  0  0
   -8.8742  -14.4630   33.9753 H   0  0  0  0  0  0  0  0  0  0  0  0
  -10.4723   -7.7086   38.7453 H   0  0  0  0  0  0  0  0  0  0  0  0
  -12.1499   -7.5572   39.1978 H   0  0  0  0  0  0  0  0  0  0  0  0
  -11.3155   -5.2883   37.6494 H   0  0  0  0  0  0  0  0  0  0  0  0
   -9.7531   -2.5600   40.8371 H   0  0  0  0  0  0  0  0  0  0  0  0
   -9.0423   -0.7628   38.8755 H   0  0  0  0  0  0  0  0  0  0  0  0
  -10.0195   -1.7513   36.7295 H   0  0  0  0  0  0  0  0  0  0  0  0
  1  2  1  0
  2  3  1  0
  3  4  1  0
  4  5  1  0
  5  6  2  0
  5  7  1  0
  7  8  1  0
  8  9  1  0
  9 10  1  0
 10 11  2  0
 11 12  1  0
 12 13  1  0
  2 14  1  0
 14 15  1  0
 15 16  1  0
 16 17  2  0
 16 18  1  0
 18 19  1  0
 19 20  2  0
 20 21  1  0
 21 22  1  0
 13  9  2  0
 22 18  2  0
  1 23  1  0
  1 24  1  0
  1 25  1  0
  2 26  1  0
  3 27  1  0
  3 28  1  0
  4 29  1  0
  7 30  1  0
  7 31  1  0
  8 32  1  0
  8 33  1  0
 10 34  1  0
 13 35  1  0
 14 36  1  0
 14 37  1  0
 15 38  1  0
 19 39  1  0
 20 40  1  0
 21 41  1  0
M  END
>  <Energy>  (500) 
357.81738072620209

>  <compound_id>  (500) 
35589

>  <target_id>  (500) 
1

>  <reference_id>  (500) 
96

>  <inspiration_ids>  (500) 
[59, 96]

>  <energy_score>  (500) 
305.8410870157061

>  <distance_score>  (500) 
11.452850198514081

>  <path>  (500) 
/opt/xchem-fragalysis-2/maxwin/BulkDock/SCRATCH/511013/C35589-P96/C35589-P96.minimised.mol

>  <scratch_subdir>  (500) 
/opt/xchem-fragalysis-2/maxwin/BulkDock/SCRATCH/511013/C35589-P96

>  <fragmenstein_runtime>  (500) 
11.075835227966309

>  <fragmenstein_outcome>  (500) 
too moved

>  <fragmenstein_mode>  (500) 
expansion

>  <fragmenstein_error>  (500) 


$$$$
C35591-P59
     RDKit          3D

 36 37  0  0  0  0  0  0  0  0999 V2000
   -4.8790  -11.7965   29.6905 O   0  0  0  0  0  0  0  0  0  0  0  0
   -6.0019  -11.3418   29.3859 C   0  0  0  0  0  0  0  0  0  0  0  0
   -7.0172  -12.7401   28.1738 C   0  0  0  0  0  0  0  0  0  0  0  0
   -8.5600  -13.6973   27.6137 C   0  0  0  0  0  0  0  0  0  0  0  0
   -9.8930  -13.5036   26.9612 C   0  0  0  0  0  0  0  0  0  0  0  0
  -10.3300  -14.6817   26.4029 C   0  0  0  0  0  0  0  0  0  0  0  0
   -9.3759  -15.5806   26.6267 O   0  0  0  0  0  0  0  0  0  0  0  0
   -8.4629  -15.0313   27.4627 N   0  0  0  0  0  0  0  0  0  0  0  0
   -6.7048   -9.6370   30.0389 N   0  0  0  0  0  0  0  0  0  0  0  0
   -5.8773   -8.1848   31.3528 C   0  0  0  0  0  0  0  0  0  0  0  0
   -7.2478   -7.3698   32.8137 C   0  0  0  0  0  0  0  0  0  0  0  0
   -6.9315   -6.7668   34.1750 O   0  0  0  0  0  0  0  0  0  0  0  0
   -6.1107   -6.0819   31.5604 C   0  0  0  0  0  0  0  0  0  0  0  0
   -5.2792   -4.4934   32.5628 N   0  0  0  0  0  0  0  0  0  0  0  0
   -4.6564   -3.2408   32.0662 C   0  0  0  0  0  0  0  0  0  0  0  0
   -4.4174   -2.8899   30.9671 O   0  0  0  0  0  0  0  0  0  0  0  0
   -4.2008   -2.2628   33.0913 C   0  0  0  0  0  0  0  0  0  0  0  0
   -4.9737   -1.4551   33.9607 C   0  0  0  0  0  0  0  0  0  0  0  0
   -4.0744   -0.6065   34.5631 C   0  0  0  0  0  0  0  0  0  0  0  0
   -2.8533   -0.9261   34.0538 N   0  0  0  0  0  0  0  0  0  0  0  0
   -2.9038   -1.8849   33.1262 N   0  0  0  0  0  0  0  0  0  0  0  0
   -6.8677  -13.6394   28.8429 H   0  0  0  0  0  0  0  0  0  0  0  0
   -6.6258  -12.6647   27.1266 H   0  0  0  0  0  0  0  0  0  0  0  0
  -10.4172  -12.6202   26.6534 H   0  0  0  0  0  0  0  0  0  0  0  0
  -11.1592  -14.9767   25.7809 H   0  0  0  0  0  0  0  0  0  0  0  0
   -7.5992   -9.4434   29.5865 H   0  0  0  0  0  0  0  0  0  0  0  0
   -4.9052   -8.5332   31.8206 H   0  0  0  0  0  0  0  0  0  0  0  0
   -8.2440   -7.7344   33.0958 H   0  0  0  0  0  0  0  0  0  0  0  0
   -7.9808   -6.7673   32.3030 H   0  0  0  0  0  0  0  0  0  0  0  0
   -7.7692   -6.3548   34.4590 H   0  0  0  0  0  0  0  0  0  0  0  0
   -6.3640   -5.7345   30.4935 H   0  0  0  0  0  0  0  0  0  0  0  0
   -6.6755   -5.9769   32.3626 H   0  0  0  0  0  0  0  0  0  0  0  0
   -5.2805   -4.4846   33.5417 H   0  0  0  0  0  0  0  0  0  0  0  0
   -6.0463   -1.4516   34.0913 H   0  0  0  0  0  0  0  0  0  0  0  0
   -4.1961    0.1825   35.2915 H   0  0  0  0  0  0  0  0  0  0  0  0
   -1.9493   -0.5209   34.2757 H   0  0  0  0  0  0  0  0  0  0  0  0
  1  2  2  0
  2  3  1  0
  3  4  1  0
  4  5  1  0
  5  6  2  0
  6  7  1  0
  7  8  1  0
  2  9  1  0
  9 10  1  0
 10 11  1  0
 11 12  1  0
 10 13  1  0
 13 14  1  0
 14 15  1  0
 15 16  2  0
 15 17  1  0
 17 18  1  0
 18 19  2  0
 19 20  1  0
 20 21  1  0
  8  4  2  0
 21 17  2  0
  3 22  1  0
  3 23  1  0
  5 24  1  0
  6 25  1  0
  9 26  1  0
 10 27  1  0
 11 28  1  0
 11 29  1  0
 12 30  1  0
 13 31  1  0
 13 32  1  0
 14 33  1  0
 18 34  1  0
 19 35  1  0
 20 36  1  0
M  END
>  <Energy>  (501) 
991.28210497815826

>  <compound_id>  (501) 
35591

>  <target_id>  (501) 
1

>  <reference_id>  (501) 
59

>  <inspiration_ids>  (501) 
[59, 96]

>  <energy_score>  (501) 
904.8566099522812

>  <distance_score>  (501) 
7.735350150891578

>  <path>  (501) 
/opt/xchem-fragalysis-2/maxwin/BulkDock/SCRATCH/511013/C35591-P59/C35591-P59.minimised.mol

>  <scratch_subdir>  (501) 
/opt/xchem-fragalysis-2/maxwin/BulkDock/SCRATCH/511013/C35591-P59

>  <fragmenstein_runtime>  (501) 
16.445905208587646

>  <fragmenstein_outcome>  (501) 
too moved

>  <fragmenstein_mode>  (501) 
expansion

>  <fragmenstein_error>  (501) 


$$$$
C35591-P96
     RDKit          3D

 36 37  0  0  0  0  0  0  0  0999 V2000
   -6.1815  -11.3846   36.8764 O   0  0  0  0  0  0  0  0  0  0  0  0
   -5.1640  -12.0154   36.7798 C   0  0  0  0  0  0  0  0  0  0  0  0
   -5.2489  -13.5428   37.1359 C   0  0  0  0  0  0  0  0  0  0  0  0
   -6.1354  -14.4515   36.2797 C   0  0  0  0  0  0  0  0  0  0  0  0
   -7.1767  -14.1630   35.3636 C   0  0  0  0  0  0  0  0  0  0  0  0
   -7.5717  -15.3772   34.8601 C   0  0  0  0  0  0  0  0  0  0  0  0
   -6.8455  -16.3557   35.4462 O   0  0  0  0  0  0  0  0  0  0  0  0
   -5.9555  -15.7871   36.3462 N   0  0  0  0  0  0  0  0  0  0  0  0
   -3.7963  -11.5797   36.4694 N   0  0  0  0  0  0  0  0  0  0  0  0
   -3.2287  -10.1865   36.1638 C   0  0  0  0  0  0  0  0  0  0  0  0
   -3.2486   -9.3441   37.4628 C   0  0  0  0  0  0  0  0  0  0  0  0
   -4.5622   -9.0786   37.9505 O   0  0  0  0  0  0  0  0  0  0  0  0
   -4.0682   -9.5131   35.0561 C   0  0  0  0  0  0  0  0  0  0  0  0
   -3.7825   -8.5008   34.0552 N   0  0  0  0  0  0  0  0  0  0  0  0
   -4.4776   -7.2343   33.7328 C   0  0  0  0  0  0  0  0  0  0  0  0
   -5.4954   -6.7716   34.1666 O   0  0  0  0  0  0  0  0  0  0  0  0
   -3.7019   -6.2902   32.7330 C   0  0  0  0  0  0  0  0  0  0  0  0
   -2.8823   -6.5429   31.5886 C   0  0  0  0  0  0  0  0  0  0  0  0
   -2.3866   -5.3355   31.1539 C   0  0  0  0  0  0  0  0  0  0  0  0
   -2.8231   -4.4253   32.0519 N   0  0  0  0  0  0  0  0  0  0  0  0
   -3.6127   -4.9601   33.0048 N   0  0  0  0  0  0  0  0  0  0  0  0
   -5.6383  -13.5829   38.1629 H   0  0  0  0  0  0  0  0  0  0  0  0
   -4.2405  -13.9681   37.1963 H   0  0  0  0  0  0  0  0  0  0  0  0
   -7.5713  -13.1992   35.0919 H   0  0  0  0  0  0  0  0  0  0  0  0
   -8.3036  -15.6949   34.1313 H   0  0  0  0  0  0  0  0  0  0  0  0
   -3.1983  -12.3952   36.3887 H   0  0  0  0  0  0  0  0  0  0  0  0
   -2.1990  -10.3440   35.8275 H   0  0  0  0  0  0  0  0  0  0  0  0
   -2.7381   -8.3912   37.3138 H   0  0  0  0  0  0  0  0  0  0  0  0
   -2.7130   -9.8795   38.2544 H   0  0  0  0  0  0  0  0  0  0  0  0
   -5.1398   -9.8426   37.7711 H   0  0  0  0  0  0  0  0  0  0  0  0
   -4.3171  -10.3630   34.4233 H   0  0  0  0  0  0  0  0  0  0  0  0
   -4.8505   -9.0201   35.6310 H   0  0  0  0  0  0  0  0  0  0  0  0
   -2.9014   -8.5315   33.5582 H   0  0  0  0  0  0  0  0  0  0  0  0
   -2.6344   -7.4766   31.1181 H   0  0  0  0  0  0  0  0  0  0  0  0
   -1.7425   -5.0644   30.3268 H   0  0  0  0  0  0  0  0  0  0  0  0
   -2.6586   -3.4206   32.0533 H   0  0  0  0  0  0  0  0  0  0  0  0
  1  2  2  0
  2  3  1  0
  3  4  1  0
  4  5  1  0
  5  6  2  0
  6  7  1  0
  7  8  1  0
  2  9  1  0
  9 10  1  0
 10 11  1  0
 11 12  1  0
 10 13  1  0
 13 14  1  0
 14 15  1  0
 15 16  2  0
 15 17  1  0
 17 18  1  0
 18 19  2  0
 19 20  1  0
 20 21  1  0
  8  4  2  0
 21 17  2  0
  3 22  1  0
  3 23  1  0
  5 24  1  0
  6 25  1  0
  9 26  1  0
 10 27  1  0
 11 28  1  0
 11 29  1  0
 12 30  1  0
 13 31  1  0
 13 32  1  0
 14 33  1  0
 18 34  1  0
 19 35  1  0
 20 36  1  0
M  END
>  <Energy>  (502) 
107.14265084042513

>  <compound_id>  (502) 
35591

>  <target_id>  (502) 
1

>  <reference_id>  (502) 
96

>  <inspiration_ids>  (502) 
[59, 96]

>  <energy_score>  (502) 
20.717155814572152

>  <distance_score>  (502) 
9.38175512605741

>  <path>  (502) 
/opt/xchem-fragalysis-2/maxwin/BulkDock/SCRATCH/511013/C35591-P96/C35591-P96.minimised.mol

>  <scratch_subdir>  (502) 
/opt/xchem-fragalysis-2/maxwin/BulkDock/SCRATCH/511013/C35591-P96

>  <fragmenstein_runtime>  (502) 
12.533386468887329

>  <fragmenstein_outcome>  (502) 
too moved

>  <fragmenstein_mode>  (502) 
expansion

>  <fragmenstein_error>  (502) 


$$$$
C35592-P59
     RDKit          3D

 39 40  0  0  0  0  0  0  0  0999 V2000
   -8.3665  -16.5183   27.5893 C   0  0  0  0  0  0  0  0  0  0  0  0
   -8.0183  -14.9861   28.1092 C   0  0  0  0  0  0  0  0  0  0  0  0
   -8.4281  -14.1654   27.1458 C   0  0  0  0  0  0  0  0  0  0  0  0
   -7.4762  -13.2655   27.1375 O   0  0  0  0  0  0  0  0  0  0  0  0
   -7.0306  -13.0291   28.3409 N   0  0  0  0  0  0  0  0  0  0  0  0
   -7.1565  -13.9249   29.3137 C   0  0  0  0  0  0  0  0  0  0  0  0
   -6.9307  -13.6097   31.3029 C   0  0  0  0  0  0  0  0  0  0  0  0
   -7.0814  -11.8136   32.2829 C   0  0  0  0  0  0  0  0  0  0  0  0
   -8.2132  -11.3866   32.1941 O   0  0  0  0  0  0  0  0  0  0  0  0
   -5.7010  -10.8619   33.0164 N   0  0  0  0  0  0  0  0  0  0  0  0
   -5.5433   -8.9531   33.6699 C   0  0  0  0  0  0  0  0  0  0  0  0
   -6.7395   -7.3204   34.0651 C   0  0  0  0  0  0  0  0  0  0  0  0
   -7.7956   -6.9889   33.1760 O   0  0  0  0  0  0  0  0  0  0  0  0
   -5.0530   -7.8574   32.1222 C   0  0  0  0  0  0  0  0  0  0  0  0
   -5.8467   -5.9419   31.8642 N   0  0  0  0  0  0  0  0  0  0  0  0
   -5.0265   -4.0854   32.1680 C   0  0  0  0  0  0  0  0  0  0  0  0
   -3.8624   -3.8805   32.4792 O   0  0  0  0  0  0  0  0  0  0  0  0
   -5.8309   -2.6121   32.1779 C   0  0  0  0  0  0  0  0  0  0  0  0
   -5.0730   -1.6311   32.9976 C   0  0  0  0  0  0  0  0  0  0  0  0
   -5.9088   -0.5941   33.2734 C   0  0  0  0  0  0  0  0  0  0  0  0
   -7.0399   -0.8930   32.5921 N   0  0  0  0  0  0  0  0  0  0  0  0
   -6.9668   -2.0093   31.8267 N   0  0  0  0  0  0  0  0  0  0  0  0
   -8.3234  -17.3738   28.2377 H   0  0  0  0  0  0  0  0  0  0  0  0
   -9.3480  -16.4844   27.0870 H   0  0  0  0  0  0  0  0  0  0  0  0
   -7.8072  -16.8542   26.7184 H   0  0  0  0  0  0  0  0  0  0  0  0
   -8.9352  -14.4248   26.2500 H   0  0  0  0  0  0  0  0  0  0  0  0
   -6.0351  -14.2014   31.4623 H   0  0  0  0  0  0  0  0  0  0  0  0
   -7.7169  -14.2360   31.7140 H   0  0  0  0  0  0  0  0  0  0  0  0
   -4.9232  -11.4211   33.0591 H   0  0  0  0  0  0  0  0  0  0  0  0
   -4.7023   -8.9352   34.3885 H   0  0  0  0  0  0  0  0  0  0  0  0
   -6.9893   -7.2280   35.1670 H   0  0  0  0  0  0  0  0  0  0  0  0
   -6.5018   -6.2783   34.2719 H   0  0  0  0  0  0  0  0  0  0  0  0
   -8.6052   -7.5369   33.2310 H   0  0  0  0  0  0  0  0  0  0  0  0
   -3.9392   -8.0203   31.9167 H   0  0  0  0  0  0  0  0  0  0  0  0
   -5.3838   -8.5347   31.3265 H   0  0  0  0  0  0  0  0  0  0  0  0
   -6.7384   -5.8846   31.5504 H   0  0  0  0  0  0  0  0  0  0  0  0
   -4.0886   -1.7817   33.4243 H   0  0  0  0  0  0  0  0  0  0  0  0
   -5.8257    0.2924   33.8849 H   0  0  0  0  0  0  0  0  0  0  0  0
   -7.8788   -0.3231   32.5492 H   0  0  0  0  0  0  0  0  0  0  0  0
  1  2  1  0
  2  3  2  0
  3  4  1  0
  4  5  1  0
  5  6  2  0
  6  7  1  0
  7  8  1  0
  8  9  2  0
  8 10  1  0
 10 11  1  0
 11 12  1  0
 12 13  1  0
 11 14  1  0
 14 15  1  0
 15 16  1  0
 16 17  2  0
 16 18  1  0
 18 19  1  0
 19 20  2  0
 20 21  1  0
 21 22  1  0
  6  2  1  0
 22 18  2  0
  1 23  1  0
  1 24  1  0
  1 25  1  0
  3 26  1  0
  7 27  1  0
  7 28  1  0
 10 29  1  0
 11 30  1  0
 12 31  1  0
 12 32  1  0
 13 33  1  0
 14 34  1  0
 14 35  1  0
 15 36  1  0
 19 37  1  0
 20 38  1  0
 21 39  1  0
M  END
>  <Energy>  (503) 
960.83695140626844

>  <compound_id>  (503) 
35592

>  <target_id>  (503) 
1

>  <reference_id>  (503) 
59

>  <inspiration_ids>  (503) 
[59, 96]

>  <energy_score>  (503) 
879.1499871559627

>  <distance_score>  (503) 
8.309930879995518

>  <path>  (503) 
/opt/xchem-fragalysis-2/maxwin/BulkDock/SCRATCH/511013/C35592-P59/C35592-P59.minimised.mol

>  <scratch_subdir>  (503) 
/opt/xchem-fragalysis-2/maxwin/BulkDock/SCRATCH/511013/C35592-P59

>  <fragmenstein_runtime>  (503) 
19.69716167449951

>  <fragmenstein_outcome>  (503) 
too moved

>  <fragmenstein_mode>  (503) 
expansion

>  <fragmenstein_error>  (503) 


$$$$
C35592-P96
     RDKit          3D

 39 40  0  0  0  0  0  0  0  0999 V2000
   -3.0418  -16.7993   34.2549 C   0  0  0  0  0  0  0  0  0  0  0  0
   -4.4464  -16.6683   33.8111 C   0  0  0  0  0  0  0  0  0  0  0  0
   -5.3504  -17.6815   33.5788 C   0  0  0  0  0  0  0  0  0  0  0  0
   -6.5264  -17.1589   33.1697 O   0  0  0  0  0  0  0  0  0  0  0  0
   -6.4189  -15.7849   33.1120 N   0  0  0  0  0  0  0  0  0  0  0  0
   -5.1786  -15.4739   33.5334 C   0  0  0  0  0  0  0  0  0  0  0  0
   -4.7349  -14.0212   33.4881 C   0  0  0  0  0  0  0  0  0  0  0  0
   -4.0043  -13.3753   34.6948 C   0  0  0  0  0  0  0  0  0  0  0  0
   -3.8213  -14.0121   35.6948 O   0  0  0  0  0  0  0  0  0  0  0  0
   -3.6252  -11.9910   34.3565 N   0  0  0  0  0  0  0  0  0  0  0  0
   -2.8228  -10.9982   35.1014 C   0  0  0  0  0  0  0  0  0  0  0  0
   -3.6121  -10.0267   36.0357 C   0  0  0  0  0  0  0  0  0  0  0  0
   -4.1518   -8.8504   35.4372 O   0  0  0  0  0  0  0  0  0  0  0  0
   -1.7243  -10.3176   34.2430 C   0  0  0  0  0  0  0  0  0  0  0  0
   -2.0778   -9.2462   33.3342 N   0  0  0  0  0  0  0  0  0  0  0  0
   -1.5315   -8.8721   32.0696 C   0  0  0  0  0  0  0  0  0  0  0  0
   -0.6910   -9.3966   31.3953 O   0  0  0  0  0  0  0  0  0  0  0  0
   -2.1790   -7.5252   31.4224 C   0  0  0  0  0  0  0  0  0  0  0  0
   -1.9818   -7.1045   30.0543 C   0  0  0  0  0  0  0  0  0  0  0  0
   -2.3346   -5.7806   29.9986 C   0  0  0  0  0  0  0  0  0  0  0  0
   -2.6766   -5.4491   31.2682 N   0  0  0  0  0  0  0  0  0  0  0  0
   -2.6840   -6.4849   32.1343 N   0  0  0  0  0  0  0  0  0  0  0  0
   -2.4152  -16.0175   33.8142 H   0  0  0  0  0  0  0  0  0  0  0  0
   -2.6249  -17.7669   33.9568 H   0  0  0  0  0  0  0  0  0  0  0  0
   -2.9773  -16.7221   35.3446 H   0  0  0  0  0  0  0  0  0  0  0  0
   -5.3161  -18.7582   33.6503 H   0  0  0  0  0  0  0  0  0  0  0  0
   -4.0661  -13.9276   32.6264 H   0  0  0  0  0  0  0  0  0  0  0  0
   -5.6320  -13.4197   33.3246 H   0  0  0  0  0  0  0  0  0  0  0  0
   -4.0153  -11.7508   33.4494 H   0  0  0  0  0  0  0  0  0  0  0  0
   -2.2735  -11.6429   35.8030 H   0  0  0  0  0  0  0  0  0  0  0  0
   -4.4322  -10.5668   36.5212 H   0  0  0  0  0  0  0  0  0  0  0  0
   -2.9272   -9.6870   36.8218 H   0  0  0  0  0  0  0  0  0  0  0  0
   -4.4537   -8.2899   36.1788 H   0  0  0  0  0  0  0  0  0  0  0  0
   -1.1980  -11.0774   33.6529 H   0  0  0  0  0  0  0  0  0  0  0  0
   -0.9793   -9.8827   34.9203 H   0  0  0  0  0  0  0  0  0  0  0  0
   -2.7196   -8.5115   33.6502 H   0  0  0  0  0  0  0  0  0  0  0  0
   -1.5178   -7.6837   29.2657 H   0  0  0  0  0  0  0  0  0  0  0  0
   -2.2708   -5.0452   29.2086 H   0  0  0  0  0  0  0  0  0  0  0  0
   -2.8994   -4.5231   31.6145 H   0  0  0  0  0  0  0  0  0  0  0  0
  1  2  1  0
  2  3  2  0
  3  4  1  0
  4  5  1  0
  5  6  2  0
  6  7  1  0
  7  8  1  0
  8  9  2  0
  8 10  1  0
 10 11  1  0
 11 12  1  0
 12 13  1  0
 11 14  1  0
 14 15  1  0
 15 16  1  0
 16 17  2  0
 16 18  1  0
 18 19  1  0
 19 20  2  0
 20 21  1  0
 21 22  1  0
  6  2  1  0
 22 18  2  0
  1 23  1  0
  1 24  1  0
  1 25  1  0
  3 26  1  0
  7 27  1  0
  7 28  1  0
 10 29  1  0
 11 30  1  0
 12 31  1  0
 12 32  1  0
 13 33  1  0
 14 34  1  0
 14 35  1  0
 15 36  1  0
 19 37  1  0
 20 38  1  0
 21 39  1  0
M  END
>  <Energy>  (504) 
79.283516147169422

>  <compound_id>  (504) 
35592

>  <target_id>  (504) 
1

>  <reference_id>  (504) 
96

>  <inspiration_ids>  (504) 
[59, 96]

>  <energy_score>  (504) 
-2.4034481031183077

>  <distance_score>  (504) 
8.915253822382054

>  <path>  (504) 
/opt/xchem-fragalysis-2/maxwin/BulkDock/SCRATCH/511013/C35592-P96/C35592-P96.minimised.mol

>  <scratch_subdir>  (504) 
/opt/xchem-fragalysis-2/maxwin/BulkDock/SCRATCH/511013/C35592-P96

>  <fragmenstein_runtime>  (504) 
13.896486759185791

>  <fragmenstein_outcome>  (504) 
too moved

>  <fragmenstein_mode>  (504) 
expansion

>  <fragmenstein_error>  (504) 


$$$$
C35593-P59
     RDKit          3D

 39 40  0  0  0  0  0  0  0  0999 V2000
   -4.2613  -18.3576   32.7534 C   0  0  0  0  0  0  0  0  0  0  0  0
   -4.6138  -17.0550   32.1573 C   0  0  0  0  0  0  0  0  0  0  0  0
   -4.7224  -15.7545   32.6068 C   0  0  0  0  0  0  0  0  0  0  0  0
   -5.5121  -15.0700   31.5948 C   0  0  0  0  0  0  0  0  0  0  0  0
   -6.6040  -13.6372   31.5171 C   0  0  0  0  0  0  0  0  0  0  0  0
   -6.6598  -11.8372   32.2968 C   0  0  0  0  0  0  0  0  0  0  0  0
   -7.4735  -11.7488   33.1874 O   0  0  0  0  0  0  0  0  0  0  0  0
   -5.5068  -10.5722   31.6015 N   0  0  0  0  0  0  0  0  0  0  0  0
   -5.0664   -8.6204   32.1519 C   0  0  0  0  0  0  0  0  0  0  0  0
   -4.8817   -8.8843   34.0025 C   0  0  0  0  0  0  0  0  0  0  0  0
   -5.3317   -8.0177   35.0121 O   0  0  0  0  0  0  0  0  0  0  0  0
   -6.2864   -6.8347   31.9486 C   0  0  0  0  0  0  0  0  0  0  0  0
   -5.7490   -5.1025   32.9499 N   0  0  0  0  0  0  0  0  0  0  0  0
   -4.9493   -3.6395   32.4034 C   0  0  0  0  0  0  0  0  0  0  0  0
   -4.6183   -3.3183   31.2889 O   0  0  0  0  0  0  0  0  0  0  0  0
   -4.6281   -2.5048   33.3933 C   0  0  0  0  0  0  0  0  0  0  0  0
   -3.7100   -1.4491   33.0513 C   0  0  0  0  0  0  0  0  0  0  0  0
   -3.6717   -0.6114   34.1320 C   0  0  0  0  0  0  0  0  0  0  0  0
   -4.5297   -1.1551   35.0362 N   0  0  0  0  0  0  0  0  0  0  0  0
   -5.1338   -2.2833   34.6221 N   0  0  0  0  0  0  0  0  0  0  0  0
   -5.4200  -15.8433   30.4967 N   0  0  0  0  0  0  0  0  0  0  0  0
   -4.9741  -17.0819   30.8587 O   0  0  0  0  0  0  0  0  0  0  0  0
   -3.4003  -18.7951   32.2395 H   0  0  0  0  0  0  0  0  0  0  0  0
   -4.0043  -18.2438   33.8110 H   0  0  0  0  0  0  0  0  0  0  0  0
   -5.1033  -19.0530   32.6817 H   0  0  0  0  0  0  0  0  0  0  0  0
   -4.4797  -15.4289   33.6075 H   0  0  0  0  0  0  0  0  0  0  0  0
   -7.5352  -14.0951   31.8253 H   0  0  0  0  0  0  0  0  0  0  0  0
   -6.5856  -13.6080   30.4299 H   0  0  0  0  0  0  0  0  0  0  0  0
   -4.8907  -10.9849   30.9164 H   0  0  0  0  0  0  0  0  0  0  0  0
   -4.0576   -8.4447   31.7394 H   0  0  0  0  0  0  0  0  0  0  0  0
   -5.2963   -9.8707   34.2320 H   0  0  0  0  0  0  0  0  0  0  0  0
   -3.7950   -8.9354   34.2214 H   0  0  0  0  0  0  0  0  0  0  0  0
   -5.3515   -8.5380   35.8472 H   0  0  0  0  0  0  0  0  0  0  0  0
   -7.1874   -6.9932   32.5910 H   0  0  0  0  0  0  0  0  0  0  0  0
   -6.5805   -6.3563   31.0412 H   0  0  0  0  0  0  0  0  0  0  0  0
   -5.9339   -5.0486   33.9701 H   0  0  0  0  0  0  0  0  0  0  0  0
   -3.1587   -1.3512   32.1254 H   0  0  0  0  0  0  0  0  0  0  0  0
   -3.1203    0.2935   34.3409 H   0  0  0  0  0  0  0  0  0  0  0  0
   -4.7598   -0.8039   35.9597 H   0  0  0  0  0  0  0  0  0  0  0  0
  1  2  1  0
  2  3  2  0
  3  4  1  0
  4  5  1  0
  5  6  1  0
  6  7  2  0
  6  8  1  0
  8  9  1  0
  9 10  1  0
 10 11  1  0
  9 12  1  0
 12 13  1  0
 13 14  1  0
 14 15  2  0
 14 16  1  0
 16 17  1  0
 17 18  2  0
 18 19  1  0
 19 20  1  0
  4 21  2  0
 21 22  1  0
 22  2  1  0
 20 16  2  0
  1 23  1  0
  1 24  1  0
  1 25  1  0
  3 26  1  0
  5 27  1  0
  5 28  1  0
  8 29  1  0
  9 30  1  0
 10 31  1  0
 10 32  1  0
 11 33  1  0
 12 34  1  0
 12 35  1  0
 13 36  1  0
 17 37  1  0
 18 38  1  0
 19 39  1  0
M  END
>  <Energy>  (505) 
602.25705533920382

>  <compound_id>  (505) 
35593

>  <target_id>  (505) 
1

>  <reference_id>  (505) 
59

>  <inspiration_ids>  (505) 
[59, 96]

>  <energy_score>  (505) 
517.4069300539136

>  <distance_score>  (505) 
7.857721137533287

>  <path>  (505) 
/opt/xchem-fragalysis-2/maxwin/BulkDock/SCRATCH/511013/C35593-P59/C35593-P59.minimised.mol

>  <scratch_subdir>  (505) 
/opt/xchem-fragalysis-2/maxwin/BulkDock/SCRATCH/511013/C35593-P59

>  <fragmenstein_runtime>  (505) 
14.848845481872559

>  <fragmenstein_outcome>  (505) 
too moved

>  <fragmenstein_mode>  (505) 
expansion

>  <fragmenstein_error>  (505) 


$$$$
C35593-P96
     RDKit          3D

 39 40  0  0  0  0  0  0  0  0999 V2000
   -6.8395  -20.0104   27.4614 C   0  0  0  0  0  0  0  0  0  0  0  0
   -6.2479  -18.1667   27.2101 C   0  0  0  0  0  0  0  0  0  0  0  0
   -6.7184  -16.8951   27.6175 C   0  0  0  0  0  0  0  0  0  0  0  0
   -5.5405  -16.0000   28.1312 C   0  0  0  0  0  0  0  0  0  0  0  0
   -5.2663  -14.2140   28.7660 C   0  0  0  0  0  0  0  0  0  0  0  0
   -5.7834  -12.2407   28.9215 C   0  0  0  0  0  0  0  0  0  0  0  0
   -6.8316  -11.8926   29.3753 O   0  0  0  0  0  0  0  0  0  0  0  0
   -4.2935  -11.2195   28.3677 N   0  0  0  0  0  0  0  0  0  0  0  0
   -3.9679   -9.5852   28.4567 C   0  0  0  0  0  0  0  0  0  0  0  0
   -2.3267   -9.4837   27.9874 C   0  0  0  0  0  0  0  0  0  0  0  0
   -1.6723   -8.2743   28.3412 O   0  0  0  0  0  0  0  0  0  0  0  0
   -3.9714   -8.0199   29.6275 C   0  0  0  0  0  0  0  0  0  0  0  0
   -3.0643   -6.9273   30.0652 N   0  0  0  0  0  0  0  0  0  0  0  0
   -2.6627   -5.6944   29.3939 C   0  0  0  0  0  0  0  0  0  0  0  0
   -2.8991   -5.2978   28.2891 O   0  0  0  0  0  0  0  0  0  0  0  0
   -1.9256   -4.7034   30.2324 C   0  0  0  0  0  0  0  0  0  0  0  0
   -1.9002   -4.5553   31.6455 C   0  0  0  0  0  0  0  0  0  0  0  0
   -1.2453   -3.3703   31.8850 C   0  0  0  0  0  0  0  0  0  0  0  0
   -0.9396   -2.8578   30.6627 N   0  0  0  0  0  0  0  0  0  0  0  0
   -1.4261   -3.5847   29.6601 N   0  0  0  0  0  0  0  0  0  0  0  0
   -4.4555  -16.7621   27.8415 N   0  0  0  0  0  0  0  0  0  0  0  0
   -4.8617  -18.0179   27.3308 O   0  0  0  0  0  0  0  0  0  0  0  0
   -7.2016  -20.6959   28.2166 H   0  0  0  0  0  0  0  0  0  0  0  0
   -7.7325  -19.9046   27.0033 H   0  0  0  0  0  0  0  0  0  0  0  0
   -5.9209  -20.6572   27.3090 H   0  0  0  0  0  0  0  0  0  0  0  0
   -7.7589  -16.6365   27.6399 H   0  0  0  0  0  0  0  0  0  0  0  0
   -5.4265  -14.6017   29.7897 H   0  0  0  0  0  0  0  0  0  0  0  0
   -4.1654  -14.2063   28.6194 H   0  0  0  0  0  0  0  0  0  0  0  0
   -3.5215  -11.8190   28.0654 H   0  0  0  0  0  0  0  0  0  0  0  0
   -4.1612   -9.6077   27.4080 H   0  0  0  0  0  0  0  0  0  0  0  0
   -1.7384  -10.3136   28.3878 H   0  0  0  0  0  0  0  0  0  0  0  0
   -2.2641   -9.5979   26.8959 H   0  0  0  0  0  0  0  0  0  0  0  0
   -1.0282   -8.0498   27.6415 H   0  0  0  0  0  0  0  0  0  0  0  0
   -4.9148   -8.0165   30.2051 H   0  0  0  0  0  0  0  0  0  0  0  0
   -4.4038   -7.1448   29.1554 H   0  0  0  0  0  0  0  0  0  0  0  0
   -2.7538   -6.8964   31.0240 H   0  0  0  0  0  0  0  0  0  0  0  0
   -2.3325   -5.2116   32.3810 H   0  0  0  0  0  0  0  0  0  0  0  0
   -0.9691   -2.8444   32.7802 H   0  0  0  0  0  0  0  0  0  0  0  0
   -0.4341   -2.0077   30.4353 H   0  0  0  0  0  0  0  0  0  0  0  0
  1  2  1  0
  2  3  2  0
  3  4  1  0
  4  5  1  0
  5  6  1  0
  6  7  2  0
  6  8  1  0
  8  9  1  0
  9 10  1  0
 10 11  1  0
  9 12  1  0
 12 13  1  0
 13 14  1  0
 14 15  2  0
 14 16  1  0
 16 17  1  0
 17 18  2  0
 18 19  1  0
 19 20  1  0
  4 21  2  0
 21 22  1  0
 22  2  1  0
 20 16  2  0
  1 23  1  0
  1 24  1  0
  1 25  1  0
  3 26  1  0
  5 27  1  0
  5 28  1  0
  8 29  1  0
  9 30  1  0
 10 31  1  0
 10 32  1  0
 11 33  1  0
 12 34  1  0
 12 35  1  0
 13 36  1  0
 17 37  1  0
 18 38  1  0
 19 39  1  0
M  END
>  <Energy>  (506) 
571.07693866845273

>  <compound_id>  (506) 
35593

>  <target_id>  (506) 
1

>  <reference_id>  (506) 
96

>  <inspiration_ids>  (506) 
[59, 96]

>  <energy_score>  (506) 
486.22681338317625

>  <distance_score>  (506) 
7.948834005799195

>  <path>  (506) 
/opt/xchem-fragalysis-2/maxwin/BulkDock/SCRATCH/511013/C35593-P96/C35593-P96.minimised.mol

>  <scratch_subdir>  (506) 
/opt/xchem-fragalysis-2/maxwin/BulkDock/SCRATCH/511013/C35593-P96

>  <fragmenstein_runtime>  (506) 
11.791037797927856

>  <fragmenstein_outcome>  (506) 
too moved

>  <fragmenstein_mode>  (506) 
expansion

>  <fragmenstein_error>  (506) 


$$$$
C35596-P59
     RDKit          3D

 41 42  0  0  0  0  0  0  0  0999 V2000
   -7.7566   -6.8162   33.3599 C   0  0  0  0  0  0  0  0  0  0  0  0
   -8.6855   -6.6519   34.5155 C   0  0  0  0  0  0  0  0  0  0  0  0
   -9.4847   -8.0164   33.3944 C   0  0  0  0  0  0  0  0  0  0  0  0
   -9.9468   -9.8357   33.1035 N   0  0  0  0  0  0  0  0  0  0  0  0
   -8.8594  -11.4635   32.6637 C   0  0  0  0  0  0  0  0  0  0  0  0
   -7.6697  -11.5534   32.4028 O   0  0  0  0  0  0  0  0  0  0  0  0
   -9.6785  -13.3598   32.8044 C   0  0  0  0  0  0  0  0  0  0  0  0
  -10.3402  -14.9707   33.4134 C   0  0  0  0  0  0  0  0  0  0  0  0
  -11.6595  -15.5854   34.2080 C   0  0  0  0  0  0  0  0  0  0  0  0
  -13.0764  -15.5118   33.9386 C   0  0  0  0  0  0  0  0  0  0  0  0
  -13.6502  -16.4997   34.6926 C   0  0  0  0  0  0  0  0  0  0  0  0
  -12.6863  -17.1702   35.3535 O   0  0  0  0  0  0  0  0  0  0  0  0
  -11.4600  -16.6319   35.0528 N   0  0  0  0  0  0  0  0  0  0  0  0
   -7.3866   -5.3796   35.2111 C   0  0  0  0  0  0  0  0  0  0  0  0
   -7.3228   -3.4300   35.4654 N   0  0  0  0  0  0  0  0  0  0  0  0
   -6.2004   -2.4195   35.1905 C   0  0  0  0  0  0  0  0  0  0  0  0
   -5.0659   -2.5937   34.8284 O   0  0  0  0  0  0  0  0  0  0  0  0
   -6.6097   -1.0208   35.3306 C   0  0  0  0  0  0  0  0  0  0  0  0
   -5.7062    0.0797   35.2677 C   0  0  0  0  0  0  0  0  0  0  0  0
   -6.5000    1.1909   35.2697 C   0  0  0  0  0  0  0  0  0  0  0  0
   -7.7835    0.7236   35.2632 N   0  0  0  0  0  0  0  0  0  0  0  0
   -7.8829   -0.6133   35.4338 N   0  0  0  0  0  0  0  0  0  0  0  0
   -6.9925   -7.4915   33.3843 H   0  0  0  0  0  0  0  0  0  0  0  0
   -7.0959   -6.0739   33.1461 H   0  0  0  0  0  0  0  0  0  0  0  0
   -8.2089   -6.8717   32.4142 H   0  0  0  0  0  0  0  0  0  0  0  0
   -8.7354   -7.1153   35.4797 H   0  0  0  0  0  0  0  0  0  0  0  0
  -10.2912   -8.0616   34.1607 H   0  0  0  0  0  0  0  0  0  0  0  0
  -10.2036   -7.4533   32.7587 H   0  0  0  0  0  0  0  0  0  0  0  0
  -10.8883  -10.0779   33.3574 H   0  0  0  0  0  0  0  0  0  0  0  0
   -9.7269  -13.2044   33.7805 H   0  0  0  0  0  0  0  0  0  0  0  0
   -8.6942  -13.8813   32.7437 H   0  0  0  0  0  0  0  0  0  0  0  0
   -9.6511  -15.2850   34.1640 H   0  0  0  0  0  0  0  0  0  0  0  0
   -9.9802  -15.7219   32.7671 H   0  0  0  0  0  0  0  0  0  0  0  0
  -13.5766  -14.8890   33.2243 H   0  0  0  0  0  0  0  0  0  0  0  0
  -14.6559  -16.8633   34.8281 H   0  0  0  0  0  0  0  0  0  0  0  0
   -6.5329   -5.4284   34.5938 H   0  0  0  0  0  0  0  0  0  0  0  0
   -7.0900   -6.0764   35.9137 H   0  0  0  0  0  0  0  0  0  0  0  0
   -8.1411   -2.9321   35.8434 H   0  0  0  0  0  0  0  0  0  0  0  0
   -4.6286    0.0341   35.1905 H   0  0  0  0  0  0  0  0  0  0  0  0
   -6.2888    2.2471   35.1937 H   0  0  0  0  0  0  0  0  0  0  0  0
   -8.6335    1.2630   35.1303 H   0  0  0  0  0  0  0  0  0  0  0  0
  1  2  1  0
  2  3  1  0
  3  4  1  0
  4  5  1  0
  5  6  2  0
  5  7  1  0
  7  8  1  0
  8  9  1  0
  9 10  1  0
 10 11  2  0
 11 12  1  0
 12 13  1  0
  2 14  1  0
 14 15  1  0
 15 16  1  0
 16 17  2  0
 16 18  1  0
 18 19  1  0
 19 20  2  0
 20 21  1  0
 21 22  1  0
 13  9  2  0
 22 18  2  0
  1 23  1  0
  1 24  1  0
  1 25  1  0
  2 26  1  0
  3 27  1  0
  3 28  1  0
  4 29  1  0
  7 30  1  0
  7 31  1  0
  8 32  1  0
  8 33  1  0
 10 34  1  0
 11 35  1  0
 14 36  1  0
 14 37  1  0
 15 38  1  0
 19 39  1  0
 20 40  1  0
 21 41  1  0
M  END
>  <Energy>  (507) 
752.89828109970256

>  <compound_id>  (507) 
35596

>  <target_id>  (507) 
1

>  <reference_id>  (507) 
59

>  <inspiration_ids>  (507) 
[59, 96]

>  <energy_score>  (507) 
713.2913798532109

>  <distance_score>  (507) 
8.400611165837503

>  <path>  (507) 
/opt/xchem-fragalysis-2/maxwin/BulkDock/SCRATCH/511013/C35596-P59/C35596-P59.minimised.mol

>  <scratch_subdir>  (507) 
/opt/xchem-fragalysis-2/maxwin/BulkDock/SCRATCH/511013/C35596-P59

>  <fragmenstein_runtime>  (507) 
30.71262550354004

>  <fragmenstein_outcome>  (507) 
too moved

>  <fragmenstein_mode>  (507) 
expansion

>  <fragmenstein_error>  (507) 


$$$$
C35596-P96
     RDKit          3D

 41 42  0  0  0  0  0  0  0  0999 V2000
   -5.3420   -6.1289   34.0625 C   0  0  0  0  0  0  0  0  0  0  0  0
   -5.7283   -7.1126   33.0272 C   0  0  0  0  0  0  0  0  0  0  0  0
   -7.5137   -7.9610   33.2956 C   0  0  0  0  0  0  0  0  0  0  0  0
   -8.7807   -9.2715   32.9756 N   0  0  0  0  0  0  0  0  0  0  0  0
   -8.6770  -10.8685   32.0424 C   0  0  0  0  0  0  0  0  0  0  0  0
   -7.6985  -11.2099   31.3924 O   0  0  0  0  0  0  0  0  0  0  0  0
   -9.9971  -12.3993   32.1049 C   0  0  0  0  0  0  0  0  0  0  0  0
   -9.9409  -13.8285   33.3176 C   0  0  0  0  0  0  0  0  0  0  0  0
  -11.3421  -14.3343   33.9026 C   0  0  0  0  0  0  0  0  0  0  0  0
  -11.5512  -15.3461   34.8905 C   0  0  0  0  0  0  0  0  0  0  0  0
  -12.9022  -15.5487   34.9079 C   0  0  0  0  0  0  0  0  0  0  0  0
  -13.4926  -14.6780   34.0592 O   0  0  0  0  0  0  0  0  0  0  0  0
  -12.5329  -13.8677   33.4779 N   0  0  0  0  0  0  0  0  0  0  0  0
   -5.2662   -6.7510   31.6148 C   0  0  0  0  0  0  0  0  0  0  0  0
   -4.0226   -5.9891   31.4937 N   0  0  0  0  0  0  0  0  0  0  0  0
   -3.1053   -5.8552   30.4017 C   0  0  0  0  0  0  0  0  0  0  0  0
   -3.0751   -6.3982   29.3386 O   0  0  0  0  0  0  0  0  0  0  0  0
   -2.1125   -4.7639   30.6789 C   0  0  0  0  0  0  0  0  0  0  0  0
   -1.7476   -4.1270   31.9016 C   0  0  0  0  0  0  0  0  0  0  0  0
   -0.9817   -3.0390   31.5581 C   0  0  0  0  0  0  0  0  0  0  0  0
   -0.9211   -3.0548   30.1982 N   0  0  0  0  0  0  0  0  0  0  0  0
   -1.6801   -4.0089   29.6480 N   0  0  0  0  0  0  0  0  0  0  0  0
   -5.5605   -6.5435   35.0243 H   0  0  0  0  0  0  0  0  0  0  0  0
   -5.8740   -5.2102   33.9833 H   0  0  0  0  0  0  0  0  0  0  0  0
   -4.2698   -5.9649   34.0282 H   0  0  0  0  0  0  0  0  0  0  0  0
   -4.9079   -7.8075   33.2068 H   0  0  0  0  0  0  0  0  0  0  0  0
   -7.3128   -8.1066   32.2171 H   0  0  0  0  0  0  0  0  0  0  0  0
   -7.3076   -8.2601   34.2719 H   0  0  0  0  0  0  0  0  0  0  0  0
   -9.7045   -9.1722   33.3614 H   0  0  0  0  0  0  0  0  0  0  0  0
   -9.4314  -12.9691   31.3907 H   0  0  0  0  0  0  0  0  0  0  0  0
  -11.0346  -12.4871   32.3649 H   0  0  0  0  0  0  0  0  0  0  0  0
   -9.3445  -14.6022   32.8417 H   0  0  0  0  0  0  0  0  0  0  0  0
   -9.3391  -13.6626   34.2263 H   0  0  0  0  0  0  0  0  0  0  0  0
  -10.8279  -15.8704   35.4798 H   0  0  0  0  0  0  0  0  0  0  0  0
  -13.5634  -16.2094   35.4470 H   0  0  0  0  0  0  0  0  0  0  0  0
   -6.0043   -6.0732   31.2770 H   0  0  0  0  0  0  0  0  0  0  0  0
   -5.3543   -7.4800   30.8099 H   0  0  0  0  0  0  0  0  0  0  0  0
   -3.7899   -5.3156   32.2003 H   0  0  0  0  0  0  0  0  0  0  0  0
   -2.0224   -4.4097   32.9013 H   0  0  0  0  0  0  0  0  0  0  0  0
   -0.4665   -2.2845   32.1337 H   0  0  0  0  0  0  0  0  0  0  0  0
   -0.3909   -2.4504   29.5789 H   0  0  0  0  0  0  0  0  0  0  0  0
  1  2  1  0
  2  3  1  0
  3  4  1  0
  4  5  1  0
  5  6  2  0
  5  7  1  0
  7  8  1  0
  8  9  1  0
  9 10  1  0
 10 11  2  0
 11 12  1  0
 12 13  1  0
  2 14  1  0
 14 15  1  0
 15 16  1  0
 16 17  2  0
 16 18  1  0
 18 19  1  0
 19 20  2  0
 20 21  1  0
 21 22  1  0
 13  9  2  0
 22 18  2  0
  1 23  1  0
  1 24  1  0
  1 25  1  0
  2 26  1  0
  3 27  1  0
  3 28  1  0
  4 29  1  0
  7 30  1  0
  7 31  1  0
  8 32  1  0
  8 33  1  0
 10 34  1  0
 11 35  1  0
 14 36  1  0
 14 37  1  0
 15 38  1  0
 19 39  1  0
 20 40  1  0
 21 41  1  0
M  END
>  <Energy>  (508) 
407.64654969310391

>  <compound_id>  (508) 
35596

>  <target_id>  (508) 
1

>  <reference_id>  (508) 
96

>  <inspiration_ids>  (508) 
[59, 96]

>  <energy_score>  (508) 
368.0396484466154

>  <distance_score>  (508) 
7.732930616115804

>  <path>  (508) 
/opt/xchem-fragalysis-2/maxwin/BulkDock/SCRATCH/511013/C35596-P96/C35596-P96.minimised.mol

>  <scratch_subdir>  (508) 
/opt/xchem-fragalysis-2/maxwin/BulkDock/SCRATCH/511013/C35596-P96

>  <fragmenstein_runtime>  (508) 
12.971022844314575

>  <fragmenstein_outcome>  (508) 
too moved

>  <fragmenstein_mode>  (508) 
expansion

>  <fragmenstein_error>  (508) 


$$$$
C35597-P59
     RDKit          3D

 44 45  0  0  0  0  0  0  0  0999 V2000
   -8.7742  -16.8954   23.3572 C   0  0  0  0  0  0  0  0  0  0  0  0
   -8.9348  -15.9949   24.5086 C   0  0  0  0  0  0  0  0  0  0  0  0
   -8.3804  -14.8016   24.9055 C   0  0  0  0  0  0  0  0  0  0  0  0
   -8.8323  -14.6136   26.2453 C   0  0  0  0  0  0  0  0  0  0  0  0
   -8.5925  -13.4654   27.2246 C   0  0  0  0  0  0  0  0  0  0  0  0
   -7.1930  -13.0402   28.2290 C   0  0  0  0  0  0  0  0  0  0  0  0
   -6.0468  -11.4928   28.9900 C   0  0  0  0  0  0  0  0  0  0  0  0
   -4.9652  -11.9091   29.4391 O   0  0  0  0  0  0  0  0  0  0  0  0
   -6.7000   -9.6395   28.7380 N   0  0  0  0  0  0  0  0  0  0  0  0
   -5.7753   -7.9221   28.9451 C   0  0  0  0  0  0  0  0  0  0  0  0
   -6.0988   -5.8674   28.6716 C   0  0  0  0  0  0  0  0  0  0  0  0
   -7.6369   -5.0903   27.7056 C   0  0  0  0  0  0  0  0  0  0  0  0
   -5.8679   -4.0243   29.4786 C   0  0  0  0  0  0  0  0  0  0  0  0
   -5.0185   -3.2384   30.9512 N   0  0  0  0  0  0  0  0  0  0  0  0
   -5.5219   -2.3021   31.9757 C   0  0  0  0  0  0  0  0  0  0  0  0
   -6.6279   -1.8724   32.1670 O   0  0  0  0  0  0  0  0  0  0  0  0
   -4.3617   -1.7979   32.7927 C   0  0  0  0  0  0  0  0  0  0  0  0
   -3.0235   -1.5664   32.3281 C   0  0  0  0  0  0  0  0  0  0  0  0
   -2.3414   -1.0453   33.3970 C   0  0  0  0  0  0  0  0  0  0  0  0
   -3.2463   -0.9855   34.4118 N   0  0  0  0  0  0  0  0  0  0  0  0
   -4.4836   -1.3650   34.0588 N   0  0  0  0  0  0  0  0  0  0  0  0
   -9.8020  -15.5099   26.4869 N   0  0  0  0  0  0  0  0  0  0  0  0
   -9.8324  -16.3786   25.4395 O   0  0  0  0  0  0  0  0  0  0  0  0
   -7.8914  -17.5290   23.4825 H   0  0  0  0  0  0  0  0  0  0  0  0
   -8.6425  -16.3160   22.4377 H   0  0  0  0  0  0  0  0  0  0  0  0
   -9.6480  -17.5385   23.2190 H   0  0  0  0  0  0  0  0  0  0  0  0
   -7.6870  -14.1919   24.3492 H   0  0  0  0  0  0  0  0  0  0  0  0
   -9.4286  -13.5643   27.9110 H   0  0  0  0  0  0  0  0  0  0  0  0
   -8.7557  -12.6169   26.5439 H   0  0  0  0  0  0  0  0  0  0  0  0
   -6.7268  -12.9782   27.2107 H   0  0  0  0  0  0  0  0  0  0  0  0
   -6.9872  -13.9362   28.8172 H   0  0  0  0  0  0  0  0  0  0  0  0
   -7.5956   -9.6209   28.2724 H   0  0  0  0  0  0  0  0  0  0  0  0
   -5.3587   -8.0677   27.8961 H   0  0  0  0  0  0  0  0  0  0  0  0
   -4.7321   -7.9111   29.1799 H   0  0  0  0  0  0  0  0  0  0  0  0
   -6.1896   -6.1258   29.7182 H   0  0  0  0  0  0  0  0  0  0  0  0
   -8.7330   -5.2311   27.7380 H   0  0  0  0  0  0  0  0  0  0  0  0
   -7.7008   -3.9837   27.7855 H   0  0  0  0  0  0  0  0  0  0  0  0
   -7.7310   -5.6501   26.8118 H   0  0  0  0  0  0  0  0  0  0  0  0
   -6.8632   -3.5745   29.5862 H   0  0  0  0  0  0  0  0  0  0  0  0
   -5.4043   -3.5182   28.6241 H   0  0  0  0  0  0  0  0  0  0  0  0
   -4.0138   -3.3124   31.0386 H   0  0  0  0  0  0  0  0  0  0  0  0
   -2.6209   -1.7245   31.3372 H   0  0  0  0  0  0  0  0  0  0  0  0
   -1.3181   -0.7237   33.5280 H   0  0  0  0  0  0  0  0  0  0  0  0
   -3.0988   -0.6736   35.3664 H   0  0  0  0  0  0  0  0  0  0  0  0
  1  2  1  0
  2  3  2  0
  3  4  1  0
  4  5  1  0
  5  6  1  0
  6  7  1  0
  7  8  2  0
  7  9  1  0
  9 10  1  0
 10 11  1  0
 11 12  1  0
 11 13  1  0
 13 14  1  0
 14 15  1  0
 15 16  2  0
 15 17  1  0
 17 18  1  0
 18 19  2  0
 19 20  1  0
 20 21  1  0
  4 22  2  0
 22 23  1  0
 23  2  1  0
 21 17  2  0
  1 24  1  0
  1 25  1  0
  1 26  1  0
  3 27  1  0
  5 28  1  0
  5 29  1  0
  6 30  1  0
  6 31  1  0
  9 32  1  0
 10 33  1  0
 10 34  1  0
 11 35  1  0
 12 36  1  0
 12 37  1  0
 12 38  1  0
 13 39  1  0
 13 40  1  0
 14 41  1  0
 18 42  1  0
 19 43  1  0
 20 44  1  0
M  END
>  <Energy>  (509) 
701.08798079637097

>  <compound_id>  (509) 
35597

>  <target_id>  (509) 
1

>  <reference_id>  (509) 
59

>  <inspiration_ids>  (509) 
[59, 96]

>  <energy_score>  (509) 
664.5156220434166

>  <distance_score>  (509) 
7.883323574034567

>  <path>  (509) 
/opt/xchem-fragalysis-2/maxwin/BulkDock/SCRATCH/511013/C35597-P59/C35597-P59.minimised.mol

>  <scratch_subdir>  (509) 
/opt/xchem-fragalysis-2/maxwin/BulkDock/SCRATCH/511013/C35597-P59

>  <fragmenstein_runtime>  (509) 
20.641902685165405

>  <fragmenstein_outcome>  (509) 
too moved

>  <fragmenstein_mode>  (509) 
expansion

>  <fragmenstein_error>  (509) 


$$$$
C35597-P96
     RDKit          3D

 44 45  0  0  0  0  0  0  0  0999 V2000
  -11.7200  -20.7715   29.6708 C   0  0  0  0  0  0  0  0  0  0  0  0
  -11.7442  -19.3307   29.3497 C   0  0  0  0  0  0  0  0  0  0  0  0
  -12.5564  -18.1425   29.1533 C   0  0  0  0  0  0  0  0  0  0  0  0
  -12.0635  -16.2716   29.2940 C   0  0  0  0  0  0  0  0  0  0  0  0
  -11.5042  -14.5305   30.4320 C   0  0  0  0  0  0  0  0  0  0  0  0
   -9.9818  -13.4460   31.6108 C   0  0  0  0  0  0  0  0  0  0  0  0
   -8.2455  -12.2961   31.0913 C   0  0  0  0  0  0  0  0  0  0  0  0
   -7.4042  -12.9911   30.7678 O   0  0  0  0  0  0  0  0  0  0  0  0
   -7.7602  -10.3814   30.8373 N   0  0  0  0  0  0  0  0  0  0  0  0
   -6.2313   -9.5114   30.0398 C   0  0  0  0  0  0  0  0  0  0  0  0
   -5.3972   -7.7247   30.4554 C   0  0  0  0  0  0  0  0  0  0  0  0
   -5.3746   -6.8776   31.7947 C   0  0  0  0  0  0  0  0  0  0  0  0
   -3.7112   -7.3637   30.0041 C   0  0  0  0  0  0  0  0  0  0  0  0
   -3.2417   -5.9827   29.9302 N   0  0  0  0  0  0  0  0  0  0  0  0
   -2.4855   -5.3044   28.9323 C   0  0  0  0  0  0  0  0  0  0  0  0
   -2.1088   -5.6680   27.8608 O   0  0  0  0  0  0  0  0  0  0  0  0
   -2.0935   -3.9519   29.4070 C   0  0  0  0  0  0  0  0  0  0  0  0
   -1.3786   -2.9685   28.6719 C   0  0  0  0  0  0  0  0  0  0  0  0
   -1.3227   -1.8674   29.4882 C   0  0  0  0  0  0  0  0  0  0  0  0
   -1.9669   -2.2229   30.6326 N   0  0  0  0  0  0  0  0  0  0  0  0
   -2.4080   -3.4976   30.6401 N   0  0  0  0  0  0  0  0  0  0  0  0
  -10.8684  -17.0322   28.7826 N   0  0  0  0  0  0  0  0  0  0  0  0
  -10.5466  -18.6924   29.5084 O   0  0  0  0  0  0  0  0  0  0  0  0
  -11.9365  -21.3927   28.8004 H   0  0  0  0  0  0  0  0  0  0  0  0
  -10.7320  -21.0704   30.0258 H   0  0  0  0  0  0  0  0  0  0  0  0
  -12.4136  -21.0134   30.4808 H   0  0  0  0  0  0  0  0  0  0  0  0
  -13.5821  -18.4508   29.3870 H   0  0  0  0  0  0  0  0  0  0  0  0
  -11.7357  -13.8294   29.6210 H   0  0  0  0  0  0  0  0  0  0  0  0
  -12.4122  -14.4276   31.0580 H   0  0  0  0  0  0  0  0  0  0  0  0
  -10.5668  -13.0132   32.4338 H   0  0  0  0  0  0  0  0  0  0  0  0
   -9.4476  -14.2090   32.2054 H   0  0  0  0  0  0  0  0  0  0  0  0
   -8.6012   -9.7926   31.0687 H   0  0  0  0  0  0  0  0  0  0  0  0
   -6.7176   -9.0328   29.1977 H   0  0  0  0  0  0  0  0  0  0  0  0
   -5.6162  -10.1929   29.4298 H   0  0  0  0  0  0  0  0  0  0  0  0
   -5.8152   -7.0087   29.7565 H   0  0  0  0  0  0  0  0  0  0  0  0
   -4.3835   -6.5106   32.0870 H   0  0  0  0  0  0  0  0  0  0  0  0
   -5.9209   -6.0168   31.5330 H   0  0  0  0  0  0  0  0  0  0  0  0
   -5.7722   -7.1639   32.7479 H   0  0  0  0  0  0  0  0  0  0  0  0
   -3.3663   -7.9505   29.1623 H   0  0  0  0  0  0  0  0  0  0  0  0
   -3.0172   -7.6449   30.8037 H   0  0  0  0  0  0  0  0  0  0  0  0
   -3.3062   -5.3898   30.7551 H   0  0  0  0  0  0  0  0  0  0  0  0
   -0.9779   -3.0729   27.6719 H   0  0  0  0  0  0  0  0  0  0  0  0
   -0.8984   -0.8830   29.3536 H   0  0  0  0  0  0  0  0  0  0  0  0
   -2.1816   -1.6379   31.4335 H   0  0  0  0  0  0  0  0  0  0  0  0
  1  2  1  0
  2  3  2  0
  3  4  1  0
  4  5  1  0
  5  6  1  0
  6  7  1  0
  7  8  2  0
  7  9  1  0
  9 10  1  0
 10 11  1  0
 11 12  1  0
 11 13  1  0
 13 14  1  0
 14 15  1  0
 15 16  2  0
 15 17  1  0
 17 18  1  0
 18 19  2  0
 19 20  1  0
 20 21  1  0
  4 22  2  0
 22 23  1  0
 23  2  1  0
 21 17  2  0
  1 24  1  0
  1 25  1  0
  1 26  1  0
  3 27  1  0
  5 28  1  0
  5 29  1  0
  6 30  1  0
  6 31  1  0
  9 32  1  0
 10 33  1  0
 10 34  1  0
 11 35  1  0
 12 36  1  0
 12 37  1  0
 12 38  1  0
 13 39  1  0
 13 40  1  0
 14 41  1  0
 18 42  1  0
 19 43  1  0
 20 44  1  0
M  END
>  <Energy>  (510) 
981.32781313340445

>  <compound_id>  (510) 
35597

>  <target_id>  (510) 
1

>  <reference_id>  (510) 
96

>  <inspiration_ids>  (510) 
[59, 96]

>  <energy_score>  (510) 
944.7554543804638

>  <distance_score>  (510) 
6.208632136357254

>  <path>  (510) 
/opt/xchem-fragalysis-2/maxwin/BulkDock/SCRATCH/511013/C35597-P96/C35597-P96.minimised.mol

>  <scratch_subdir>  (510) 
/opt/xchem-fragalysis-2/maxwin/BulkDock/SCRATCH/511013/C35597-P96

>  <fragmenstein_runtime>  (510) 
14.56946086883545

>  <fragmenstein_outcome>  (510) 
too moved

>  <fragmenstein_mode>  (510) 
expansion

>  <fragmenstein_error>  (510) 


$$$$
C35599-P59
     RDKit          3D

 47 48  0  0  0  0  0  0  0  0999 V2000
   -7.5645   -6.3766   34.7281 C   0  0  0  0  0  0  0  0  0  0  0  0
   -7.7170   -7.1136   33.2790 C   0  0  0  0  0  0  0  0  0  0  0  0
   -9.2559   -7.4261   33.3070 C   0  0  0  0  0  0  0  0  0  0  0  0
   -6.4035   -7.3593   31.8666 C   0  0  0  0  0  0  0  0  0  0  0  0
   -5.8780   -5.7256   31.6968 C   0  0  0  0  0  0  0  0  0  0  0  0
   -4.8782   -3.8741   31.9831 C   0  0  0  0  0  0  0  0  0  0  0  0
   -3.2312   -3.3999   32.0455 N   0  0  0  0  0  0  0  0  0  0  0  0
   -3.8213   -2.2272   32.8274 C   0  0  0  0  0  0  0  0  0  0  0  0
   -2.3517   -2.9079   31.0134 C   0  0  0  0  0  0  0  0  0  0  0  0
   -2.5759   -2.6221   29.8721 O   0  0  0  0  0  0  0  0  0  0  0  0
   -0.9880   -2.6575   31.5593 C   0  0  0  0  0  0  0  0  0  0  0  0
   -0.4143   -3.1375   32.7674 C   0  0  0  0  0  0  0  0  0  0  0  0
    0.8422   -2.5845   32.8227 C   0  0  0  0  0  0  0  0  0  0  0  0
    0.9675   -1.8268   31.6997 N   0  0  0  0  0  0  0  0  0  0  0  0
   -0.1196   -1.8452   30.9245 N   0  0  0  0  0  0  0  0  0  0  0  0
   -6.1932   -8.8570   30.4446 N   0  0  0  0  0  0  0  0  0  0  0  0
   -6.3675  -10.7887   30.5459 C   0  0  0  0  0  0  0  0  0  0  0  0
   -6.7757  -11.5927   31.5914 O   0  0  0  0  0  0  0  0  0  0  0  0
   -5.7601  -11.9143   29.0590 C   0  0  0  0  0  0  0  0  0  0  0  0
   -6.6648  -12.8235   27.6788 C   0  0  0  0  0  0  0  0  0  0  0  0
   -7.6937  -13.8417   27.6558 C   0  0  0  0  0  0  0  0  0  0  0  0
   -7.8561  -14.2067   26.3512 C   0  0  0  0  0  0  0  0  0  0  0  0
   -7.0142  -13.4761   25.5930 O   0  0  0  0  0  0  0  0  0  0  0  0
   -6.2961  -12.5939   26.3832 N   0  0  0  0  0  0  0  0  0  0  0  0
   -6.8441   -5.5928   34.7462 H   0  0  0  0  0  0  0  0  0  0  0  0
   -7.4515   -6.8821   35.6738 H   0  0  0  0  0  0  0  0  0  0  0  0
   -8.5139   -6.0000   35.0869 H   0  0  0  0  0  0  0  0  0  0  0  0
   -7.9015   -6.2699   32.7747 H   0  0  0  0  0  0  0  0  0  0  0  0
   -9.7935   -7.1354   32.4309 H   0  0  0  0  0  0  0  0  0  0  0  0
   -9.8015   -6.8902   34.0727 H   0  0  0  0  0  0  0  0  0  0  0  0
   -9.5816   -8.4455   33.3871 H   0  0  0  0  0  0  0  0  0  0  0  0
   -5.3518   -7.7854   32.2150 H   0  0  0  0  0  0  0  0  0  0  0  0
   -6.2034   -5.6369   30.6375 H   0  0  0  0  0  0  0  0  0  0  0  0
   -6.1192   -5.4256   32.7115 H   0  0  0  0  0  0  0  0  0  0  0  0
   -5.2851   -3.1176   31.2843 H   0  0  0  0  0  0  0  0  0  0  0  0
   -5.1264   -3.7168   33.0025 H   0  0  0  0  0  0  0  0  0  0  0  0
   -4.1660   -2.4351   33.8465 H   0  0  0  0  0  0  0  0  0  0  0  0
   -2.9757   -1.5480   33.0118 H   0  0  0  0  0  0  0  0  0  0  0  0
   -4.5049   -1.5919   32.2585 H   0  0  0  0  0  0  0  0  0  0  0  0
   -0.8708   -3.7920   33.4978 H   0  0  0  0  0  0  0  0  0  0  0  0
    1.6392   -2.6600   33.5482 H   0  0  0  0  0  0  0  0  0  0  0  0
    1.7615   -1.2707   31.3977 H   0  0  0  0  0  0  0  0  0  0  0  0
   -5.9292   -8.5615   29.4279 H   0  0  0  0  0  0  0  0  0  0  0  0
   -4.6574  -11.9075   29.0524 H   0  0  0  0  0  0  0  0  0  0  0  0
   -5.7943  -12.8600   29.6381 H   0  0  0  0  0  0  0  0  0  0  0  0
   -8.2728  -14.1880   28.4724 H   0  0  0  0  0  0  0  0  0  0  0  0
   -8.4934  -14.8998   25.8255 H   0  0  0  0  0  0  0  0  0  0  0  0
  1  2  1  0
  2  3  1  0
  2  4  1  0
  4  5  1  0
  5  6  1  0
  6  7  1  0
  7  8  1  0
  7  9  1  0
  9 10  2  0
  9 11  1  0
 11 12  1  0
 12 13  2  0
 13 14  1  0
 14 15  1  0
  4 16  1  0
 16 17  1  0
 17 18  2  0
 17 19  1  0
 19 20  1  0
 20 21  1  0
 21 22  2  0
 22 23  1  0
 23 24  1  0
 15 11  2  0
 24 20  2  0
  1 25  1  0
  1 26  1  0
  1 27  1  0
  2 28  1  0
  3 29  1  0
  3 30  1  0
  3 31  1  0
  4 32  1  0
  5 33  1  0
  5 34  1  0
  6 35  1  0
  6 36  1  0
  8 37  1  0
  8 38  1  0
  8 39  1  0
 12 40  1  0
 13 41  1  0
 14 42  1  0
 16 43  1  0
 19 44  1  0
 19 45  1  0
 21 46  1  0
 22 47  1  0
M  END
>  <Energy>  (511) 
787.76987763148611

>  <compound_id>  (511) 
35599

>  <target_id>  (511) 
1

>  <reference_id>  (511) 
59

>  <inspiration_ids>  (511) 
[59, 96]

>  <energy_score>  (511) 
706.7517459258285

>  <distance_score>  (511) 
7.6621401975834225

>  <path>  (511) 
/opt/xchem-fragalysis-2/maxwin/BulkDock/SCRATCH/511013/C35599-P59/C35599-P59.minimised.mol

>  <scratch_subdir>  (511) 
/opt/xchem-fragalysis-2/maxwin/BulkDock/SCRATCH/511013/C35599-P59

>  <fragmenstein_runtime>  (511) 
18.62069845199585

>  <fragmenstein_outcome>  (511) 
too moved

>  <fragmenstein_mode>  (511) 
expansion

>  <fragmenstein_error>  (511) 


$$$$
C35599-P96
     RDKit          3D

 47 48  0  0  0  0  0  0  0  0999 V2000
   -7.2823   -8.0396   34.3423 C   0  0  0  0  0  0  0  0  0  0  0  0
   -7.5980   -8.1884   32.8989 C   0  0  0  0  0  0  0  0  0  0  0  0
   -5.9556   -7.0383   32.9463 C   0  0  0  0  0  0  0  0  0  0  0  0
   -8.1150   -9.2230   31.1726 C   0  0  0  0  0  0  0  0  0  0  0  0
   -6.1991   -8.6694   30.5575 C   0  0  0  0  0  0  0  0  0  0  0  0
   -4.9473   -7.2281   30.1136 C   0  0  0  0  0  0  0  0  0  0  0  0
   -3.7200   -6.1398   30.1691 N   0  0  0  0  0  0  0  0  0  0  0  0
   -2.9269   -7.3218   29.8918 C   0  0  0  0  0  0  0  0  0  0  0  0
   -3.1440   -5.4073   31.2983 C   0  0  0  0  0  0  0  0  0  0  0  0
   -3.3675   -5.4903   32.4807 O   0  0  0  0  0  0  0  0  0  0  0  0
   -2.2086   -4.3354   30.8250 C   0  0  0  0  0  0  0  0  0  0  0  0
   -1.9308   -3.9328   29.4861 C   0  0  0  0  0  0  0  0  0  0  0  0
   -1.1192   -2.8305   29.5857 C   0  0  0  0  0  0  0  0  0  0  0  0
   -0.9066   -2.6502   30.9171 N   0  0  0  0  0  0  0  0  0  0  0  0
   -1.5766   -3.5164   31.6972 N   0  0  0  0  0  0  0  0  0  0  0  0
   -9.0461  -10.5480   31.8582 N   0  0  0  0  0  0  0  0  0  0  0  0
   -9.0154  -12.3033   31.5255 C   0  0  0  0  0  0  0  0  0  0  0  0
   -8.2415  -12.8405   30.7988 O   0  0  0  0  0  0  0  0  0  0  0  0
  -10.2344  -13.3543   32.4443 C   0  0  0  0  0  0  0  0  0  0  0  0
  -11.8564  -13.5485   32.2536 C   0  0  0  0  0  0  0  0  0  0  0  0
  -12.6745  -14.0312   31.1606 C   0  0  0  0  0  0  0  0  0  0  0  0
  -13.9220  -14.2139   31.6848 C   0  0  0  0  0  0  0  0  0  0  0  0
  -13.9001  -13.8847   32.9906 O   0  0  0  0  0  0  0  0  0  0  0  0
  -12.6431  -13.4556   33.3473 N   0  0  0  0  0  0  0  0  0  0  0  0
   -6.7697   -7.1619   34.6827 H   0  0  0  0  0  0  0  0  0  0  0  0
   -7.0968   -8.5272   35.2594 H   0  0  0  0  0  0  0  0  0  0  0  0
   -8.2275   -8.2076   34.6599 H   0  0  0  0  0  0  0  0  0  0  0  0
   -8.5025   -8.6874   33.2616 H   0  0  0  0  0  0  0  0  0  0  0  0
   -5.8736   -6.3828   32.0906 H   0  0  0  0  0  0  0  0  0  0  0  0
   -4.9924   -7.5474   33.0673 H   0  0  0  0  0  0  0  0  0  0  0  0
   -5.8273   -6.2629   33.7381 H   0  0  0  0  0  0  0  0  0  0  0  0
   -7.5752  -10.0620   30.6354 H   0  0  0  0  0  0  0  0  0  0  0  0
   -6.3164   -9.0481   29.5563 H   0  0  0  0  0  0  0  0  0  0  0  0
   -6.4156   -7.8581   31.1640 H   0  0  0  0  0  0  0  0  0  0  0  0
   -4.8244   -7.0762   31.1436 H   0  0  0  0  0  0  0  0  0  0  0  0
   -5.6498   -6.5179   29.7104 H   0  0  0  0  0  0  0  0  0  0  0  0
   -3.2623   -8.0735   29.1848 H   0  0  0  0  0  0  0  0  0  0  0  0
   -2.0228   -6.9330   29.3959 H   0  0  0  0  0  0  0  0  0  0  0  0
   -2.5047   -7.6909   30.8329 H   0  0  0  0  0  0  0  0  0  0  0  0
   -2.2877   -4.3835   28.5729 H   0  0  0  0  0  0  0  0  0  0  0  0
   -0.6517   -2.1999   28.8440 H   0  0  0  0  0  0  0  0  0  0  0  0
   -0.3186   -1.9549   31.3636 H   0  0  0  0  0  0  0  0  0  0  0  0
   -9.6963  -10.3646   32.5271 H   0  0  0  0  0  0  0  0  0  0  0  0
   -9.6620  -14.2655   32.3047 H   0  0  0  0  0  0  0  0  0  0  0  0
  -10.1453  -13.3800   33.5312 H   0  0  0  0  0  0  0  0  0  0  0  0
  -12.3694  -14.2774   30.1589 H   0  0  0  0  0  0  0  0  0  0  0  0
  -14.8666  -14.5662   31.3009 H   0  0  0  0  0  0  0  0  0  0  0  0
  1  2  1  0
  2  3  1  0
  2  4  1  0
  4  5  1  0
  5  6  1  0
  6  7  1  0
  7  8  1  0
  7  9  1  0
  9 10  2  0
  9 11  1  0
 11 12  1  0
 12 13  2  0
 13 14  1  0
 14 15  1  0
  4 16  1  0
 16 17  1  0
 17 18  2  0
 17 19  1  0
 19 20  1  0
 20 21  1  0
 21 22  2  0
 22 23  1  0
 23 24  1  0
 15 11  2  0
 24 20  2  0
  1 25  1  0
  1 26  1  0
  1 27  1  0
  2 28  1  0
  3 29  1  0
  3 30  1  0
  3 31  1  0
  4 32  1  0
  5 33  1  0
  5 34  1  0
  6 35  1  0
  6 36  1  0
  8 37  1  0
  8 38  1  0
  8 39  1  0
 12 40  1  0
 13 41  1  0
 14 42  1  0
 16 43  1  0
 19 44  1  0
 19 45  1  0
 21 46  1  0
 22 47  1  0
M  END
>  <Energy>  (512) 
900.91871451885959

>  <compound_id>  (512) 
35599

>  <target_id>  (512) 
1

>  <reference_id>  (512) 
96

>  <inspiration_ids>  (512) 
[59, 96]

>  <energy_score>  (512) 
819.9005828131967

>  <distance_score>  (512) 
7.99019765583142

>  <path>  (512) 
/opt/xchem-fragalysis-2/maxwin/BulkDock/SCRATCH/511013/C35599-P96/C35599-P96.minimised.mol

>  <scratch_subdir>  (512) 
/opt/xchem-fragalysis-2/maxwin/BulkDock/SCRATCH/511013/C35599-P96

>  <fragmenstein_runtime>  (512) 
19.133450031280518

>  <fragmenstein_outcome>  (512) 
too moved

>  <fragmenstein_mode>  (512) 
expansion

>  <fragmenstein_error>  (512) 


$$$$
C35600-P59
     RDKit          3D

 50 51  0  0  0  0  0  0  0  0999 V2000
   -7.9106  -13.4305   25.1610 C   0  0  0  0  0  0  0  0  0  0  0  0
   -7.7685  -11.9511   25.0978 C   0  0  0  0  0  0  0  0  0  0  0  0
   -6.7165  -11.0634   25.2103 C   0  0  0  0  0  0  0  0  0  0  0  0
   -7.3228   -9.7675   25.4506 C   0  0  0  0  0  0  0  0  0  0  0  0
   -6.6822   -8.3948   25.8507 C   0  0  0  0  0  0  0  0  0  0  0  0
   -6.6414   -7.7930   27.3921 C   0  0  0  0  0  0  0  0  0  0  0  0
   -6.8746   -8.4738   28.3366 O   0  0  0  0  0  0  0  0  0  0  0  0
   -6.3787   -6.3371   27.2970 N   0  0  0  0  0  0  0  0  0  0  0  0
   -6.4326   -5.0178   28.5589 C   0  0  0  0  0  0  0  0  0  0  0  0
   -5.1467   -3.5954   28.6222 C   0  0  0  0  0  0  0  0  0  0  0  0
   -3.2838   -2.8623   29.0176 C   0  0  0  0  0  0  0  0  0  0  0  0
   -1.8058   -3.3363   29.3300 N   0  0  0  0  0  0  0  0  0  0  0  0
   -1.5000   -1.8883   28.9962 C   0  0  0  0  0  0  0  0  0  0  0  0
   -1.1828   -3.6946   30.5649 C   0  0  0  0  0  0  0  0  0  0  0  0
   -1.5975   -3.6414   31.6931 O   0  0  0  0  0  0  0  0  0  0  0  0
    0.2354   -4.0989   30.3667 C   0  0  0  0  0  0  0  0  0  0  0  0
    1.1492   -4.4103   31.4090 C   0  0  0  0  0  0  0  0  0  0  0  0
    2.3687   -4.5518   30.7978 C   0  0  0  0  0  0  0  0  0  0  0  0
    2.1488   -4.3350   29.4739 N   0  0  0  0  0  0  0  0  0  0  0  0
    0.8655   -4.0965   29.1740 N   0  0  0  0  0  0  0  0  0  0  0  0
   -8.0601   -4.2012   28.2288 C   0  0  0  0  0  0  0  0  0  0  0  0
   -8.3268   -2.7181   27.8920 C   0  0  0  0  0  0  0  0  0  0  0  0
   -9.0636   -4.9772   27.3165 C   0  0  0  0  0  0  0  0  0  0  0  0
   -8.6369   -9.8657   25.1563 N   0  0  0  0  0  0  0  0  0  0  0  0
   -8.9168  -11.2259   25.0091 O   0  0  0  0  0  0  0  0  0  0  0  0
   -8.4798  -13.7203   26.0494 H   0  0  0  0  0  0  0  0  0  0  0  0
   -6.9291  -13.9116   25.2083 H   0  0  0  0  0  0  0  0  0  0  0  0
   -8.4339  -13.8000   24.2742 H   0  0  0  0  0  0  0  0  0  0  0  0
   -5.6840  -11.3452   25.3061 H   0  0  0  0  0  0  0  0  0  0  0  0
   -7.2104   -7.6428   25.2477 H   0  0  0  0  0  0  0  0  0  0  0  0
   -5.6468   -8.4082   25.4944 H   0  0  0  0  0  0  0  0  0  0  0  0
   -6.3035   -6.0885   26.3586 H   0  0  0  0  0  0  0  0  0  0  0  0
   -6.3762   -5.4904   29.5249 H   0  0  0  0  0  0  0  0  0  0  0  0
   -5.6073   -3.4096   29.6028 H   0  0  0  0  0  0  0  0  0  0  0  0
   -5.3922   -2.9690   27.7979 H   0  0  0  0  0  0  0  0  0  0  0  0
   -3.3157   -2.0686   28.2267 H   0  0  0  0  0  0  0  0  0  0  0  0
   -3.3986   -2.5345   30.0923 H   0  0  0  0  0  0  0  0  0  0  0  0
   -1.9960   -1.1333   29.6277 H   0  0  0  0  0  0  0  0  0  0  0  0
   -0.4392   -1.7286   29.2376 H   0  0  0  0  0  0  0  0  0  0  0  0
   -1.5274   -1.6895   27.9146 H   0  0  0  0  0  0  0  0  0  0  0  0
    0.9354   -4.4681   32.4679 H   0  0  0  0  0  0  0  0  0  0  0  0
    3.3554   -4.7645   31.1841 H   0  0  0  0  0  0  0  0  0  0  0  0
    2.8275   -4.3431   28.7195 H   0  0  0  0  0  0  0  0  0  0  0  0
   -8.5411   -4.1261   29.1865 H   0  0  0  0  0  0  0  0  0  0  0  0
   -7.9758   -2.3757   26.9286 H   0  0  0  0  0  0  0  0  0  0  0  0
   -9.4162   -2.5617   27.8398 H   0  0  0  0  0  0  0  0  0  0  0  0
   -8.0372   -2.0325   28.6760 H   0  0  0  0  0  0  0  0  0  0  0  0
   -8.7986   -6.0054   27.0812 H   0  0  0  0  0  0  0  0  0  0  0  0
   -9.2066   -4.4722   26.3538 H   0  0  0  0  0  0  0  0  0  0  0  0
  -10.0484   -5.0028   27.7991 H   0  0  0  0  0  0  0  0  0  0  0  0
  1  2  1  0
  2  3  2  0
  3  4  1  0
  4  5  1  0
  5  6  1  0
  6  7  2  0
  6  8  1  0
  8  9  1  0
  9 10  1  0
 10 11  1  0
 11 12  1  0
 12 13  1  0
 12 14  1  0
 14 15  2  0
 14 16  1  0
 16 17  1  0
 17 18  2  0
 18 19  1  0
 19 20  1  0
  9 21  1  0
 21 22  1  0
 21 23  1  0
  4 24  2  0
 24 25  1  0
 25  2  1  0
 20 16  2  0
  1 26  1  0
  1 27  1  0
  1 28  1  0
  3 29  1  0
  5 30  1  0
  5 31  1  0
  8 32  1  0
  9 33  1  0
 10 34  1  0
 10 35  1  0
 11 36  1  0
 11 37  1  0
 13 38  1  0
 13 39  1  0
 13 40  1  0
 17 41  1  0
 18 42  1  0
 19 43  1  0
 21 44  1  0
 22 45  1  0
 22 46  1  0
 22 47  1  0
 23 48  1  0
 23 49  1  0
 23 50  1  0
M  END
>  <Energy>  (513) 
382.83395168802394

>  <compound_id>  (513) 
35600

>  <target_id>  (513) 
1

>  <reference_id>  (513) 
59

>  <inspiration_ids>  (513) 
[59, 96]

>  <energy_score>  (513) 
275.22853238145706

>  <distance_score>  (513) 
9.671834616445942

>  <path>  (513) 
/opt/xchem-fragalysis-2/maxwin/BulkDock/SCRATCH/511013/C35600-P59/C35600-P59.minimised.mol

>  <scratch_subdir>  (513) 
/opt/xchem-fragalysis-2/maxwin/BulkDock/SCRATCH/511013/C35600-P59

>  <fragmenstein_runtime>  (513) 
28.417367696762085

>  <fragmenstein_outcome>  (513) 
too moved

>  <fragmenstein_mode>  (513) 
expansion

>  <fragmenstein_error>  (513) 


$$$$
C35600-P96
     RDKit          3D

 50 51  0  0  0  0  0  0  0  0999 V2000
   -7.6287  -14.0431   32.5473 C   0  0  0  0  0  0  0  0  0  0  0  0
   -8.1553  -12.8890   31.5548 C   0  0  0  0  0  0  0  0  0  0  0  0
   -7.8589  -11.4639   31.6282 C   0  0  0  0  0  0  0  0  0  0  0  0
   -9.0893  -10.2430   31.7660 C   0  0  0  0  0  0  0  0  0  0  0  0
   -9.9036   -8.5497   31.0457 C   0  0  0  0  0  0  0  0  0  0  0  0
  -10.5852   -6.8327   32.1736 C   0  0  0  0  0  0  0  0  0  0  0  0
  -11.4081   -6.9543   33.0534 O   0  0  0  0  0  0  0  0  0  0  0  0
   -9.7147   -5.1302   31.8555 N   0  0  0  0  0  0  0  0  0  0  0  0
   -9.7792   -3.3647   32.8570 C   0  0  0  0  0  0  0  0  0  0  0  0
   -8.0328   -2.7094   32.5521 C   0  0  0  0  0  0  0  0  0  0  0  0
   -7.5193   -1.0259   31.4967 C   0  0  0  0  0  0  0  0  0  0  0  0
   -6.4023   -0.1510   30.8957 N   0  0  0  0  0  0  0  0  0  0  0  0
   -7.5707    0.4616   30.1691 C   0  0  0  0  0  0  0  0  0  0  0  0
   -5.5928    0.8806   31.4919 C   0  0  0  0  0  0  0  0  0  0  0  0
   -5.6475    1.3812   32.5853 O   0  0  0  0  0  0  0  0  0  0  0  0
   -4.4740    1.2583   30.5643 C   0  0  0  0  0  0  0  0  0  0  0  0
   -4.1758    0.7321   29.2702 C   0  0  0  0  0  0  0  0  0  0  0  0
   -2.9914    1.3130   28.8896 C   0  0  0  0  0  0  0  0  0  0  0  0
   -2.6395    2.1344   29.9155 N   0  0  0  0  0  0  0  0  0  0  0  0
   -3.5153    2.1347   30.9299 N   0  0  0  0  0  0  0  0  0  0  0  0
  -10.1365   -1.2424   32.7184 C   0  0  0  0  0  0  0  0  0  0  0  0
   -9.4476    0.2556   33.2383 C   0  0  0  0  0  0  0  0  0  0  0  0
  -10.9812   -0.3365   31.4368 C   0  0  0  0  0  0  0  0  0  0  0  0
   -9.8488  -11.4031   31.7605 N   0  0  0  0  0  0  0  0  0  0  0  0
   -9.4663  -12.7203   31.5689 O   0  0  0  0  0  0  0  0  0  0  0  0
   -7.0872  -13.5841   33.3854 H   0  0  0  0  0  0  0  0  0  0  0  0
   -6.9039  -14.7505   32.1437 H   0  0  0  0  0  0  0  0  0  0  0  0
   -8.4825  -14.5668   32.9881 H   0  0  0  0  0  0  0  0  0  0  0  0
   -7.3149  -11.4898   32.5418 H   0  0  0  0  0  0  0  0  0  0  0  0
   -9.3780   -8.7041   30.1206 H   0  0  0  0  0  0  0  0  0  0  0  0
  -10.4906   -9.2398   30.5305 H   0  0  0  0  0  0  0  0  0  0  0  0
   -9.1268   -5.2054   31.0284 H   0  0  0  0  0  0  0  0  0  0  0  0
   -9.8444   -3.8775   33.8100 H   0  0  0  0  0  0  0  0  0  0  0  0
   -7.4859   -3.0424   31.7171 H   0  0  0  0  0  0  0  0  0  0  0  0
   -8.2605   -3.6284   32.0371 H   0  0  0  0  0  0  0  0  0  0  0  0
   -7.2960   -1.6619   30.6189 H   0  0  0  0  0  0  0  0  0  0  0  0
   -6.7735   -0.9490   32.2476 H   0  0  0  0  0  0  0  0  0  0  0  0
   -8.1654    1.1426   30.7804 H   0  0  0  0  0  0  0  0  0  0  0  0
   -7.1195    1.1407   29.4302 H   0  0  0  0  0  0  0  0  0  0  0  0
   -8.1664   -0.2162   29.5424 H   0  0  0  0  0  0  0  0  0  0  0  0
   -4.7456    0.0078   28.7093 H   0  0  0  0  0  0  0  0  0  0  0  0
   -2.3805    1.2148   28.0035 H   0  0  0  0  0  0  0  0  0  0  0  0
   -1.8201    2.7286   29.9916 H   0  0  0  0  0  0  0  0  0  0  0  0
  -11.0927   -1.1879   33.3599 H   0  0  0  0  0  0  0  0  0  0  0  0
   -8.8220    0.7170   32.4918 H   0  0  0  0  0  0  0  0  0  0  0  0
   -8.9598    0.3447   34.2149 H   0  0  0  0  0  0  0  0  0  0  0  0
  -10.2821    0.9534   33.4070 H   0  0  0  0  0  0  0  0  0  0  0  0
  -11.2183    0.6831   31.7614 H   0  0  0  0  0  0  0  0  0  0  0  0
  -11.9776   -0.7355   31.2093 H   0  0  0  0  0  0  0  0  0  0  0  0
  -10.3620   -0.2270   30.5425 H   0  0  0  0  0  0  0  0  0  0  0  0
  1  2  1  0
  2  3  2  0
  3  4  1  0
  4  5  1  0
  5  6  1  0
  6  7  2  0
  6  8  1  0
  8  9  1  0
  9 10  1  0
 10 11  1  0
 11 12  1  0
 12 13  1  0
 12 14  1  0
 14 15  2  0
 14 16  1  0
 16 17  1  0
 17 18  2  0
 18 19  1  0
 19 20  1  0
  9 21  1  0
 21 22  1  0
 21 23  1  0
  4 24  2  0
 24 25  1  0
 25  2  1  0
 20 16  2  0
  1 26  1  0
  1 27  1  0
  1 28  1  0
  3 29  1  0
  5 30  1  0
  5 31  1  0
  8 32  1  0
  9 33  1  0
 10 34  1  0
 10 35  1  0
 11 36  1  0
 11 37  1  0
 13 38  1  0
 13 39  1  0
 13 40  1  0
 17 41  1  0
 18 42  1  0
 19 43  1  0
 21 44  1  0
 22 45  1  0
 22 46  1  0
 22 47  1  0
 23 48  1  0
 23 49  1  0
 23 50  1  0
M  END
>  <Energy>  (514) 
1158.2739357285568

>  <compound_id>  (514) 
35600

>  <target_id>  (514) 
1

>  <reference_id>  (514) 
96

>  <inspiration_ids>  (514) 
[59, 96]

>  <energy_score>  (514) 
1050.6685164220062

>  <distance_score>  (514) 
8.408073422136354

>  <path>  (514) 
/opt/xchem-fragalysis-2/maxwin/BulkDock/SCRATCH/511013/C35600-P96/C35600-P96.minimised.mol

>  <scratch_subdir>  (514) 
/opt/xchem-fragalysis-2/maxwin/BulkDock/SCRATCH/511013/C35600-P96

>  <fragmenstein_runtime>  (514) 
23.792983531951904

>  <fragmenstein_outcome>  (514) 
too moved

>  <fragmenstein_mode>  (514) 
expansion

>  <fragmenstein_error>  (514) 


$$$$
C24232-P59
     RDKit          3D

 38 39  0  0  0  0  0  0  0  0999 V2000
   -7.8929  -12.0919   32.9585 C   0  0  0  0  0  0  0  0  0  0  0  0
   -6.5250  -11.7251   32.5784 C   0  0  0  0  0  0  0  0  0  0  0  0
   -6.5572  -13.6160   31.6827 C   0  0  0  0  0  0  0  0  0  0  0  0
   -5.3659  -14.9083   31.1397 N   0  0  0  0  0  0  0  0  0  0  0  0
   -5.3681  -16.3928   31.3173 C   0  0  0  0  0  0  0  0  0  0  0  0
   -6.1143  -17.1106   31.9326 O   0  0  0  0  0  0  0  0  0  0  0  0
   -4.1169  -16.9858   30.6403 C   0  0  0  0  0  0  0  0  0  0  0  0
   -4.2867  -17.5270   29.2535 C   0  0  0  0  0  0  0  0  0  0  0  0
   -3.4922  -18.4235   28.5592 C   0  0  0  0  0  0  0  0  0  0  0  0
   -4.0525  -18.5021   27.2728 C   0  0  0  0  0  0  0  0  0  0  0  0
   -5.1021  -17.6951   27.1376 N   0  0  0  0  0  0  0  0  0  0  0  0
   -5.2804  -17.1901   28.3718 N   0  0  0  0  0  0  0  0  0  0  0  0
   -5.7820  -10.0781   33.6812 C   0  0  0  0  0  0  0  0  0  0  0  0
   -5.6303   -8.2040   34.4150 N   0  0  0  0  0  0  0  0  0  0  0  0
   -6.7305   -6.6735   34.1945 C   0  0  0  0  0  0  0  0  0  0  0  0
   -7.6860   -6.6587   33.4451 O   0  0  0  0  0  0  0  0  0  0  0  0
   -6.4558   -4.9349   34.9356 C   0  0  0  0  0  0  0  0  0  0  0  0
   -7.4241   -4.5423   35.7034 N   0  0  0  0  0  0  0  0  0  0  0  0
   -7.5007   -2.8768   35.6927 O   0  0  0  0  0  0  0  0  0  0  0  0
   -6.2997   -2.3014   35.3450 C   0  0  0  0  0  0  0  0  0  0  0  0
   -5.4393   -3.2992   34.8841 C   0  0  0  0  0  0  0  0  0  0  0  0
   -4.4765   -2.5163   33.4587 Cl  0  0  0  0  0  0  0  0  0  0  0  0
   -8.6095  -11.4571   32.4530 H   0  0  0  0  0  0  0  0  0  0  0  0
   -8.2320  -13.1120   33.0151 H   0  0  0  0  0  0  0  0  0  0  0  0
   -7.8465  -11.9150   33.9799 H   0  0  0  0  0  0  0  0  0  0  0  0
   -5.8129  -12.0481   33.2273 H   0  0  0  0  0  0  0  0  0  0  0  0
   -7.5067  -14.1558   31.7231 H   0  0  0  0  0  0  0  0  0  0  0  0
   -6.6000  -13.4133   30.6323 H   0  0  0  0  0  0  0  0  0  0  0  0
   -4.6591  -14.6629   30.5068 H   0  0  0  0  0  0  0  0  0  0  0  0
   -3.7652  -17.7994   31.2876 H   0  0  0  0  0  0  0  0  0  0  0  0
   -3.3101  -16.2428   30.6379 H   0  0  0  0  0  0  0  0  0  0  0  0
   -2.6118  -18.9316   28.9261 H   0  0  0  0  0  0  0  0  0  0  0  0
   -3.7251  -19.0860   26.4224 H   0  0  0  0  0  0  0  0  0  0  0  0
   -6.0876  -16.5961   28.5162 H   0  0  0  0  0  0  0  0  0  0  0  0
   -5.1938  -10.5217   34.5050 H   0  0  0  0  0  0  0  0  0  0  0  0
   -5.3253   -9.5595   32.8876 H   0  0  0  0  0  0  0  0  0  0  0  0
   -4.9532   -8.0255   35.1395 H   0  0  0  0  0  0  0  0  0  0  0  0
   -6.3034   -1.2209   35.3137 H   0  0  0  0  0  0  0  0  0  0  0  0
  1  2  1  0
  2  3  1  0
  3  4  1  0
  4  5  1  0
  5  6  2  0
  5  7  1  0
  7  8  1  0
  8  9  2  0
  9 10  1  0
 10 11  2  0
 11 12  1  0
  2 13  1  0
 13 14  1  0
 14 15  1  0
 15 16  2  0
 15 17  1  0
 17 18  2  0
 18 19  1  0
 19 20  1  0
 20 21  2  0
 21 22  1  0
 12  8  1  0
 21 17  1  0
  1 23  1  0
  1 24  1  0
  1 25  1  0
  2 26  1  0
  3 27  1  0
  3 28  1  0
  4 29  1  0
  7 30  1  0
  7 31  1  0
  9 32  1  0
 10 33  1  0
 12 34  1  0
 13 35  1  0
 13 36  1  0
 14 37  1  0
 20 38  1  0
M  END
>  <Energy>  (515) 
763.2092907730796

>  <compound_id>  (515) 
24232

>  <target_id>  (515) 
1

>  <reference_id>  (515) 
59

>  <inspiration_ids>  (515) 
[59, 96]

>  <energy_score>  (515) 
701.5231212737348

>  <distance_score>  (515) 
9.567246193169154

>  <path>  (515) 
/opt/xchem-fragalysis-2/maxwin/BulkDock/SCRATCH/511013/C24232-P59/C24232-P59.minimised.mol

>  <scratch_subdir>  (515) 
/opt/xchem-fragalysis-2/maxwin/BulkDock/SCRATCH/511013/C24232-P59

>  <fragmenstein_runtime>  (515) 
27.005257606506348

>  <fragmenstein_outcome>  (515) 
too moved

>  <fragmenstein_mode>  (515) 
expansion

>  <fragmenstein_error>  (515) 


$$$$
C24232-P96
     RDKit          3D

 38 39  0  0  0  0  0  0  0  0999 V2000
   -5.9060   -7.7355   31.4715 C   0  0  0  0  0  0  0  0  0  0  0  0
   -6.6111   -9.4075   30.5362 C   0  0  0  0  0  0  0  0  0  0  0  0
   -7.5855  -11.1858   31.1965 C   0  0  0  0  0  0  0  0  0  0  0  0
   -7.6970  -12.9536   31.9810 N   0  0  0  0  0  0  0  0  0  0  0  0
   -8.8529  -13.7796   32.3335 C   0  0  0  0  0  0  0  0  0  0  0  0
  -10.0258  -13.6099   32.1360 O   0  0  0  0  0  0  0  0  0  0  0  0
   -8.3026  -14.9732   33.1987 C   0  0  0  0  0  0  0  0  0  0  0  0
   -9.0448  -14.7353   34.5072 C   0  0  0  0  0  0  0  0  0  0  0  0
   -8.6459  -14.4744   35.7948 C   0  0  0  0  0  0  0  0  0  0  0  0
   -9.8143  -14.6818   36.5673 C   0  0  0  0  0  0  0  0  0  0  0  0
  -10.8717  -15.0483   35.8372 N   0  0  0  0  0  0  0  0  0  0  0  0
  -10.4048  -14.9869   34.5718 N   0  0  0  0  0  0  0  0  0  0  0  0
   -5.2052   -9.2916   29.5623 C   0  0  0  0  0  0  0  0  0  0  0  0
   -4.3132   -7.5847   29.6620 N   0  0  0  0  0  0  0  0  0  0  0  0
   -3.1689   -7.1199   30.4895 C   0  0  0  0  0  0  0  0  0  0  0  0
   -2.5093   -7.6981   31.3124 O   0  0  0  0  0  0  0  0  0  0  0  0
   -2.7830   -5.7386   30.1082 C   0  0  0  0  0  0  0  0  0  0  0  0
   -2.7052   -5.3796   28.8109 N   0  0  0  0  0  0  0  0  0  0  0  0
   -2.1772   -4.0986   28.7947 O   0  0  0  0  0  0  0  0  0  0  0  0
   -2.0123   -3.6644   30.0642 C   0  0  0  0  0  0  0  0  0  0  0  0
   -2.4156   -4.6458   30.9281 C   0  0  0  0  0  0  0  0  0  0  0  0
   -2.5514   -4.5355   32.6019 Cl  0  0  0  0  0  0  0  0  0  0  0  0
   -5.6572   -6.8323   30.8803 H   0  0  0  0  0  0  0  0  0  0  0  0
   -6.6936   -7.3905   32.0774 H   0  0  0  0  0  0  0  0  0  0  0  0
   -5.2015   -7.5349   32.3284 H   0  0  0  0  0  0  0  0  0  0  0  0
   -7.2810   -9.1133   29.7995 H   0  0  0  0  0  0  0  0  0  0  0  0
   -8.5901  -10.7101   31.7138 H   0  0  0  0  0  0  0  0  0  0  0  0
   -7.3761  -11.2782   32.2679 H   0  0  0  0  0  0  0  0  0  0  0  0
   -6.8546  -13.3714   32.3847 H   0  0  0  0  0  0  0  0  0  0  0  0
   -8.4897  -16.0283   33.0476 H   0  0  0  0  0  0  0  0  0  0  0  0
   -7.2307  -14.8850   33.3978 H   0  0  0  0  0  0  0  0  0  0  0  0
   -7.6437  -14.2748   36.1427 H   0  0  0  0  0  0  0  0  0  0  0  0
   -9.9234  -14.6209   37.6422 H   0  0  0  0  0  0  0  0  0  0  0  0
  -11.0230  -15.1827   33.7821 H   0  0  0  0  0  0  0  0  0  0  0  0
   -4.5645   -9.9776   28.9880 H   0  0  0  0  0  0  0  0  0  0  0  0
   -5.8197   -9.5324   28.6856 H   0  0  0  0  0  0  0  0  0  0  0  0
   -4.6856   -6.7918   29.1300 H   0  0  0  0  0  0  0  0  0  0  0  0
   -1.6370   -2.6586   30.1760 H   0  0  0  0  0  0  0  0  0  0  0  0
  1  2  1  0
  2  3  1  0
  3  4  1  0
  4  5  1  0
  5  6  2  0
  5  7  1  0
  7  8  1  0
  8  9  2  0
  9 10  1  0
 10 11  2  0
 11 12  1  0
  2 13  1  0
 13 14  1  0
 14 15  1  0
 15 16  2  0
 15 17  1  0
 17 18  2  0
 18 19  1  0
 19 20  1  0
 20 21  2  0
 21 22  1  0
 12  8  1  0
 21 17  1  0
  1 23  1  0
  1 24  1  0
  1 25  1  0
  2 26  1  0
  3 27  1  0
  3 28  1  0
  4 29  1  0
  7 30  1  0
  7 31  1  0
  9 32  1  0
 10 33  1  0
 12 34  1  0
 13 35  1  0
 13 36  1  0
 14 37  1  0
 20 38  1  0
M  END
>  <Energy>  (516) 
511.44366869583081

>  <compound_id>  (516) 
24232

>  <target_id>  (516) 
1

>  <reference_id>  (516) 
96

>  <inspiration_ids>  (516) 
[59, 96]

>  <energy_score>  (516) 
449.75749919649127

>  <distance_score>  (516) 
8.951608106074286

>  <path>  (516) 
/opt/xchem-fragalysis-2/maxwin/BulkDock/SCRATCH/511013/C24232-P96/C24232-P96.minimised.mol

>  <scratch_subdir>  (516) 
/opt/xchem-fragalysis-2/maxwin/BulkDock/SCRATCH/511013/C24232-P96

>  <fragmenstein_runtime>  (516) 
13.049503087997437

>  <fragmenstein_outcome>  (516) 
too moved

>  <fragmenstein_mode>  (516) 
expansion

>  <fragmenstein_error>  (516) 


$$$$
C24236-P59
     RDKit          3D

 41 42  0  0  0  0  0  0  0  0999 V2000
   -5.2586   -9.8223   34.7903 C   0  0  0  0  0  0  0  0  0  0  0  0
   -5.6127   -9.9584   33.2340 N   0  0  0  0  0  0  0  0  0  0  0  0
   -5.8349   -7.8700   33.3924 C   0  0  0  0  0  0  0  0  0  0  0  0
   -6.0885   -5.9771   32.1083 C   0  0  0  0  0  0  0  0  0  0  0  0
   -4.9800   -4.1067   31.9819 N   0  0  0  0  0  0  0  0  0  0  0  0
   -5.0494   -4.1377   33.2835 C   0  0  0  0  0  0  0  0  0  0  0  0
   -5.3809   -2.8019   31.5378 C   0  0  0  0  0  0  0  0  0  0  0  0
   -6.4638   -2.3866   31.2155 O   0  0  0  0  0  0  0  0  0  0  0  0
   -4.0532   -1.8719   31.6637 C   0  0  0  0  0  0  0  0  0  0  0  0
   -4.2244   -0.7840   32.4678 N   0  0  0  0  0  0  0  0  0  0  0  0
   -3.0125   -0.1580   32.5841 O   0  0  0  0  0  0  0  0  0  0  0  0
   -2.0966   -0.8222   31.8657 C   0  0  0  0  0  0  0  0  0  0  0  0
   -2.6694   -1.9283   31.2922 C   0  0  0  0  0  0  0  0  0  0  0  0
   -1.7459   -2.9911   30.3753 Cl  0  0  0  0  0  0  0  0  0  0  0  0
   -6.9245  -11.3710   32.9760 C   0  0  0  0  0  0  0  0  0  0  0  0
   -8.1582  -11.2825   32.9630 O   0  0  0  0  0  0  0  0  0  0  0  0
   -6.5469  -12.7943   32.6035 C   0  0  0  0  0  0  0  0  0  0  0  0
   -6.2264  -14.1902   31.2884 C   0  0  0  0  0  0  0  0  0  0  0  0
   -5.2356  -15.6477   30.9485 C   0  0  0  0  0  0  0  0  0  0  0  0
   -5.4139  -17.0287   31.2051 C   0  0  0  0  0  0  0  0  0  0  0  0
   -4.2937  -17.7161   30.7314 C   0  0  0  0  0  0  0  0  0  0  0  0
   -3.4008  -16.8806   30.2310 N   0  0  0  0  0  0  0  0  0  0  0  0
   -3.9466  -15.6718   30.4334 N   0  0  0  0  0  0  0  0  0  0  0  0
   -4.6836  -10.6839   35.0043 H   0  0  0  0  0  0  0  0  0  0  0  0
   -4.4756   -9.1049   35.0557 H   0  0  0  0  0  0  0  0  0  0  0  0
   -6.0095  -10.0966   35.5290 H   0  0  0  0  0  0  0  0  0  0  0  0
   -6.9769   -7.5763   33.4442 H   0  0  0  0  0  0  0  0  0  0  0  0
   -5.2169   -7.7341   34.3071 H   0  0  0  0  0  0  0  0  0  0  0  0
   -6.9979   -6.0122   32.8245 H   0  0  0  0  0  0  0  0  0  0  0  0
   -6.5338   -6.2639   31.1732 H   0  0  0  0  0  0  0  0  0  0  0  0
   -5.2505   -2.9920   33.4198 H   0  0  0  0  0  0  0  0  0  0  0  0
   -5.1754   -3.7640   34.4076 H   0  0  0  0  0  0  0  0  0  0  0  0
   -4.0557   -3.5864   33.1402 H   0  0  0  0  0  0  0  0  0  0  0  0
   -1.0976   -0.4123   31.8740 H   0  0  0  0  0  0  0  0  0  0  0  0
   -7.5380  -13.1369   32.9572 H   0  0  0  0  0  0  0  0  0  0  0  0
   -6.9447  -12.3998   31.6781 H   0  0  0  0  0  0  0  0  0  0  0  0
   -5.7982  -14.6632   32.1456 H   0  0  0  0  0  0  0  0  0  0  0  0
   -7.2610  -14.4143   31.1631 H   0  0  0  0  0  0  0  0  0  0  0  0
   -6.2238  -17.5358   31.7104 H   0  0  0  0  0  0  0  0  0  0  0  0
   -4.0785  -18.7738   30.7636 H   0  0  0  0  0  0  0  0  0  0  0  0
   -3.3499  -14.8960   30.1802 H   0  0  0  0  0  0  0  0  0  0  0  0
  1  2  1  0
  2  3  1  0
  3  4  1  0
  4  5  1  0
  5  6  1  0
  5  7  1  0
  7  8  2  0
  7  9  1  0
  9 10  2  0
 10 11  1  0
 11 12  1  0
 12 13  2  0
 13 14  1  0
  2 15  1  0
 15 16  2  0
 15 17  1  0
 17 18  1  0
 18 19  1  0
 19 20  2  0
 20 21  1  0
 21 22  2  0
 22 23  1  0
 13  9  1  0
 23 19  1  0
  1 24  1  0
  1 25  1  0
  1 26  1  0
  3 27  1  0
  3 28  1  0
  4 29  1  0
  4 30  1  0
  6 31  1  0
  6 32  1  0
  6 33  1  0
 12 34  1  0
 17 35  1  0
 17 36  1  0
 18 37  1  0
 18 38  1  0
 20 39  1  0
 21 40  1  0
 23 41  1  0
M  END
>  <Energy>  (517) 
1123.902541856826

>  <compound_id>  (517) 
24236

>  <target_id>  (517) 
1

>  <reference_id>  (517) 
59

>  <inspiration_ids>  (517) 
[59, 96]

>  <energy_score>  (517) 
1058.6112827507418

>  <distance_score>  (517) 
7.282153170336837

>  <path>  (517) 
/opt/xchem-fragalysis-2/maxwin/BulkDock/SCRATCH/511013/C24236-P59/C24236-P59.minimised.mol

>  <scratch_subdir>  (517) 
/opt/xchem-fragalysis-2/maxwin/BulkDock/SCRATCH/511013/C24236-P59

>  <fragmenstein_runtime>  (517) 
19.215383291244507

>  <fragmenstein_outcome>  (517) 
too moved

>  <fragmenstein_mode>  (517) 
expansion

>  <fragmenstein_error>  (517) 


$$$$
C24236-P96
     RDKit          3D

 41 42  0  0  0  0  0  0  0  0999 V2000
   -6.0954   -9.6468   29.2504 C   0  0  0  0  0  0  0  0  0  0  0  0
   -5.6470  -10.6723   28.0167 N   0  0  0  0  0  0  0  0  0  0  0  0
   -4.0208   -9.9970   28.4639 C   0  0  0  0  0  0  0  0  0  0  0  0
   -3.3996   -8.2668   29.2655 C   0  0  0  0  0  0  0  0  0  0  0  0
   -2.4574   -6.8237   29.5055 N   0  0  0  0  0  0  0  0  0  0  0  0
   -3.1601   -6.8322   30.8087 C   0  0  0  0  0  0  0  0  0  0  0  0
   -2.5608   -5.5251   28.9006 C   0  0  0  0  0  0  0  0  0  0  0  0
   -3.3750   -5.0888   28.1477 O   0  0  0  0  0  0  0  0  0  0  0  0
   -1.5842   -4.4913   29.3298 C   0  0  0  0  0  0  0  0  0  0  0  0
   -1.4557   -4.1976   30.6475 N   0  0  0  0  0  0  0  0  0  0  0  0
   -0.7661   -3.0009   30.7197 O   0  0  0  0  0  0  0  0  0  0  0  0
   -0.5321   -2.5392   29.4711 C   0  0  0  0  0  0  0  0  0  0  0  0
   -1.0580   -3.4129   28.5581 C   0  0  0  0  0  0  0  0  0  0  0  0
   -1.1445   -3.1713   26.8861 Cl  0  0  0  0  0  0  0  0  0  0  0  0
   -6.3878  -12.3624   28.2408 C   0  0  0  0  0  0  0  0  0  0  0  0
   -5.8202  -13.2729   28.8752 O   0  0  0  0  0  0  0  0  0  0  0  0
   -7.9657  -13.0747   27.3796 C   0  0  0  0  0  0  0  0  0  0  0  0
   -7.9256  -15.0799   27.0739 C   0  0  0  0  0  0  0  0  0  0  0  0
   -8.3917  -16.7269   28.0617 C   0  0  0  0  0  0  0  0  0  0  0  0
   -8.3479  -18.0383   28.0967 C   0  0  0  0  0  0  0  0  0  0  0  0
   -9.6241  -19.3862   28.8406 C   0  0  0  0  0  0  0  0  0  0  0  0
  -10.2971  -18.6405   29.6049 N   0  0  0  0  0  0  0  0  0  0  0  0
   -9.9339  -17.2179   28.6926 N   0  0  0  0  0  0  0  0  0  0  0  0
   -6.8051   -8.8994   28.8354 H   0  0  0  0  0  0  0  0  0  0  0  0
   -6.6081  -10.2007   30.0389 H   0  0  0  0  0  0  0  0  0  0  0  0
   -5.3978   -9.0863   29.7902 H   0  0  0  0  0  0  0  0  0  0  0  0
   -3.8079   -9.7220   27.4205 H   0  0  0  0  0  0  0  0  0  0  0  0
   -3.2212  -10.7234   28.2520 H   0  0  0  0  0  0  0  0  0  0  0  0
   -4.2753   -7.6909   29.3674 H   0  0  0  0  0  0  0  0  0  0  0  0
   -2.7209   -8.3345   28.4012 H   0  0  0  0  0  0  0  0  0  0  0  0
   -2.8659   -5.9206   31.3405 H   0  0  0  0  0  0  0  0  0  0  0  0
   -2.6956   -7.5722   31.4627 H   0  0  0  0  0  0  0  0  0  0  0  0
   -4.2486   -6.6924   30.8214 H   0  0  0  0  0  0  0  0  0  0  0  0
   -0.0256   -1.5892   29.4056 H   0  0  0  0  0  0  0  0  0  0  0  0
   -7.8766  -12.7178   26.3454 H   0  0  0  0  0  0  0  0  0  0  0  0
   -8.9076  -12.7678   27.7941 H   0  0  0  0  0  0  0  0  0  0  0  0
   -6.8725  -15.2835   26.8267 H   0  0  0  0  0  0  0  0  0  0  0  0
   -8.5340  -15.2049   26.1649 H   0  0  0  0  0  0  0  0  0  0  0  0
   -7.3435  -18.4101   27.7276 H   0  0  0  0  0  0  0  0  0  0  0  0
   -9.6187  -20.4625   28.6630 H   0  0  0  0  0  0  0  0  0  0  0  0
  -10.7935  -16.9689   28.2242 H   0  0  0  0  0  0  0  0  0  0  0  0
  1  2  1  0
  2  3  1  0
  3  4  1  0
  4  5  1  0
  5  6  1  0
  5  7  1  0
  7  8  2  0
  7  9  1  0
  9 10  2  0
 10 11  1  0
 11 12  1  0
 12 13  2  0
 13 14  1  0
  2 15  1  0
 15 16  2  0
 15 17  1  0
 17 18  1  0
 18 19  1  0
 19 20  2  0
 20 21  1  0
 21 22  2  0
 22 23  1  0
 13  9  1  0
 23 19  1  0
  1 24  1  0
  1 25  1  0
  1 26  1  0
  3 27  1  0
  3 28  1  0
  4 29  1  0
  4 30  1  0
  6 31  1  0
  6 32  1  0
  6 33  1  0
 12 34  1  0
 17 35  1  0
 17 36  1  0
 18 37  1  0
 18 38  1  0
 20 39  1  0
 21 40  1  0
 23 41  1  0
M  END
>  <Energy>  (518) 
855.08850910655678

>  <compound_id>  (518) 
24236

>  <target_id>  (518) 
1

>  <reference_id>  (518) 
96

>  <inspiration_ids>  (518) 
[59, 96]

>  <energy_score>  (518) 
789.797250000485

>  <distance_score>  (518) 
7.087438978226061

>  <path>  (518) 
/opt/xchem-fragalysis-2/maxwin/BulkDock/SCRATCH/511013/C24236-P96/C24236-P96.minimised.mol

>  <scratch_subdir>  (518) 
/opt/xchem-fragalysis-2/maxwin/BulkDock/SCRATCH/511013/C24236-P96

>  <fragmenstein_runtime>  (518) 
9.650053977966309

>  <fragmenstein_outcome>  (518) 
too moved

>  <fragmenstein_mode>  (518) 
expansion

>  <fragmenstein_error>  (518) 


$$$$
C24237-P59
     RDKit          3D

 44 45  0  0  0  0  0  0  0  0999 V2000
   -3.1337   -0.7686   33.0652 C   0  0  0  0  0  0  0  0  0  0  0  0
   -4.1993   -1.2663   33.9615 C   0  0  0  0  0  0  0  0  0  0  0  0
   -5.4970   -1.6756   33.7859 C   0  0  0  0  0  0  0  0  0  0  0  0
   -5.8671   -2.2786   35.0394 C   0  0  0  0  0  0  0  0  0  0  0  0
   -7.2769   -3.1650   35.3853 C   0  0  0  0  0  0  0  0  0  0  0  0
   -7.3119   -5.2436   35.3045 C   0  0  0  0  0  0  0  0  0  0  0  0
   -8.2819   -6.4934   34.2234 C   0  0  0  0  0  0  0  0  0  0  0  0
   -7.7834   -6.5615   33.1383 O   0  0  0  0  0  0  0  0  0  0  0  0
   -9.5257   -7.1083   34.7448 N   0  0  0  0  0  0  0  0  0  0  0  0
  -10.9371   -6.4706   34.7274 C   0  0  0  0  0  0  0  0  0  0  0  0
  -10.4992   -8.1246   34.0521 C   0  0  0  0  0  0  0  0  0  0  0  0
  -10.0712   -9.4758   33.4160 C   0  0  0  0  0  0  0  0  0  0  0  0
   -9.2000  -10.6834   32.0841 N   0  0  0  0  0  0  0  0  0  0  0  0
   -7.8899  -11.9907   32.2721 C   0  0  0  0  0  0  0  0  0  0  0  0
   -7.3774  -12.1441   33.3024 O   0  0  0  0  0  0  0  0  0  0  0  0
   -7.2347  -13.4809   30.9255 C   0  0  0  0  0  0  0  0  0  0  0  0
   -7.5791  -13.9226   28.9782 C   0  0  0  0  0  0  0  0  0  0  0  0
   -8.0041  -15.1364   28.0611 C   0  0  0  0  0  0  0  0  0  0  0  0
   -8.8038  -14.8460   26.9799 C   0  0  0  0  0  0  0  0  0  0  0  0
   -8.9440  -13.5876   27.2202 N   0  0  0  0  0  0  0  0  0  0  0  0
   -7.6810  -13.3348   27.7151 N   0  0  0  0  0  0  0  0  0  0  0  0
   -4.9423   -1.9819   35.9642 N   0  0  0  0  0  0  0  0  0  0  0  0
   -3.8777   -1.4093   35.2755 O   0  0  0  0  0  0  0  0  0  0  0  0
   -2.2740   -1.4455   33.0863 H   0  0  0  0  0  0  0  0  0  0  0  0
   -2.7995    0.2231   33.3832 H   0  0  0  0  0  0  0  0  0  0  0  0
   -3.4870   -0.7031   32.0326 H   0  0  0  0  0  0  0  0  0  0  0  0
   -6.0570   -1.6699   32.8627 H   0  0  0  0  0  0  0  0  0  0  0  0
   -7.9659   -2.5317   34.7650 H   0  0  0  0  0  0  0  0  0  0  0  0
   -7.6588   -2.7871   36.3580 H   0  0  0  0  0  0  0  0  0  0  0  0
   -8.0131   -5.7507   35.9217 H   0  0  0  0  0  0  0  0  0  0  0  0
   -6.5073   -5.4801   34.6774 H   0  0  0  0  0  0  0  0  0  0  0  0
  -11.5484   -6.9243   35.5435 H   0  0  0  0  0  0  0  0  0  0  0  0
  -10.8128   -5.5422   35.3252 H   0  0  0  0  0  0  0  0  0  0  0  0
  -11.6385   -6.3300   33.8730 H   0  0  0  0  0  0  0  0  0  0  0  0
  -10.8420   -7.6868   33.0921 H   0  0  0  0  0  0  0  0  0  0  0  0
  -11.3244   -8.4653   34.7244 H   0  0  0  0  0  0  0  0  0  0  0  0
   -9.9050   -9.8367   34.4175 H   0  0  0  0  0  0  0  0  0  0  0  0
  -11.1362   -9.7021   33.3587 H   0  0  0  0  0  0  0  0  0  0  0  0
   -9.4732  -10.6294   31.1138 H   0  0  0  0  0  0  0  0  0  0  0  0
   -6.2185  -13.8303   31.0285 H   0  0  0  0  0  0  0  0  0  0  0  0
   -7.7560  -14.3162   31.4071 H   0  0  0  0  0  0  0  0  0  0  0  0
   -7.9566  -16.2105   28.2090 H   0  0  0  0  0  0  0  0  0  0  0  0
   -9.3448  -15.4776   26.2950 H   0  0  0  0  0  0  0  0  0  0  0  0
   -7.1967  -12.5430   27.3106 H   0  0  0  0  0  0  0  0  0  0  0  0
  1  2  1  0
  2  3  2  0
  3  4  1  0
  4  5  1  0
  5  6  1  0
  6  7  1  0
  7  8  2  0
  7  9  1  0
  9 10  1  0
  9 11  1  0
 11 12  1  0
 12 13  1  0
 13 14  1  0
 14 15  2  0
 14 16  1  0
 16 17  1  0
 17 18  2  0
 18 19  1  0
 19 20  2  0
 20 21  1  0
  4 22  2  0
 22 23  1  0
 23  2  1  0
 21 17  1  0
  1 24  1  0
  1 25  1  0
  1 26  1  0
  3 27  1  0
  5 28  1  0
  5 29  1  0
  6 30  1  0
  6 31  1  0
 10 32  1  0
 10 33  1  0
 10 34  1  0
 11 35  1  0
 11 36  1  0
 12 37  1  0
 12 38  1  0
 13 39  1  0
 16 40  1  0
 16 41  1  0
 18 42  1  0
 19 43  1  0
 21 44  1  0
M  END
>  <Energy>  (519) 
823.84684686906758

>  <compound_id>  (519) 
24237

>  <target_id>  (519) 
1

>  <reference_id>  (519) 
59

>  <inspiration_ids>  (519) 
[59, 96]

>  <energy_score>  (519) 
782.7697328131934

>  <distance_score>  (519) 
8.260281788031243

>  <path>  (519) 
/opt/xchem-fragalysis-2/maxwin/BulkDock/SCRATCH/511013/C24237-P59/C24237-P59.minimised.mol

>  <scratch_subdir>  (519) 
/opt/xchem-fragalysis-2/maxwin/BulkDock/SCRATCH/511013/C24237-P59

>  <fragmenstein_runtime>  (519) 
15.897818565368652

>  <fragmenstein_outcome>  (519) 
too moved

>  <fragmenstein_mode>  (519) 
expansion

>  <fragmenstein_error>  (519) 


$$$$
C24237-P96
     RDKit          3D

 44 45  0  0  0  0  0  0  0  0999 V2000
   -0.8589   -1.7293   29.9573 C   0  0  0  0  0  0  0  0  0  0  0  0
   -1.4989   -2.7707   30.7822 C   0  0  0  0  0  0  0  0  0  0  0  0
   -1.8667   -4.0739   30.5619 C   0  0  0  0  0  0  0  0  0  0  0  0
   -2.4102   -4.5128   31.7956 C   0  0  0  0  0  0  0  0  0  0  0  0
   -2.9509   -5.8833   32.1059 C   0  0  0  0  0  0  0  0  0  0  0  0
   -4.0336   -5.9501   33.1893 C   0  0  0  0  0  0  0  0  0  0  0  0
   -4.7496   -7.2820   33.4101 C   0  0  0  0  0  0  0  0  0  0  0  0
   -4.2246   -8.2598   33.8602 O   0  0  0  0  0  0  0  0  0  0  0  0
   -6.0909   -7.0869   32.8711 N   0  0  0  0  0  0  0  0  0  0  0  0
   -6.0725   -7.3176   31.4684 C   0  0  0  0  0  0  0  0  0  0  0  0
   -7.6871   -8.3297   32.7964 C   0  0  0  0  0  0  0  0  0  0  0  0
   -8.5905   -9.5859   31.3719 C   0  0  0  0  0  0  0  0  0  0  0  0
   -7.9865  -11.3000   31.9013 N   0  0  0  0  0  0  0  0  0  0  0  0
   -8.1567  -12.5494   31.3389 C   0  0  0  0  0  0  0  0  0  0  0  0
   -8.6506  -12.8531   30.3499 O   0  0  0  0  0  0  0  0  0  0  0  0
   -7.4179  -13.7991   32.4762 C   0  0  0  0  0  0  0  0  0  0  0  0
   -8.1315  -14.3306   33.6789 C   0  0  0  0  0  0  0  0  0  0  0  0
   -7.5991  -14.5046   34.9401 C   0  0  0  0  0  0  0  0  0  0  0  0
   -8.7112  -14.5756   35.7766 C   0  0  0  0  0  0  0  0  0  0  0  0
   -9.8485  -14.6990   35.0925 N   0  0  0  0  0  0  0  0  0  0  0  0
   -9.4643  -14.5580   33.8036 N   0  0  0  0  0  0  0  0  0  0  0  0
   -2.3830   -3.5250   32.7007 N   0  0  0  0  0  0  0  0  0  0  0  0
   -1.8052   -2.4366   32.0636 O   0  0  0  0  0  0  0  0  0  0  0  0
   -0.6398   -2.1043   28.9528 H   0  0  0  0  0  0  0  0  0  0  0  0
    0.0815   -1.4043   30.4126 H   0  0  0  0  0  0  0  0  0  0  0  0
   -1.5166   -0.8601   29.8614 H   0  0  0  0  0  0  0  0  0  0  0  0
   -1.7221   -4.6396   29.6544 H   0  0  0  0  0  0  0  0  0  0  0  0
   -3.3165   -6.2971   31.1628 H   0  0  0  0  0  0  0  0  0  0  0  0
   -2.1297   -6.5360   32.3875 H   0  0  0  0  0  0  0  0  0  0  0  0
   -4.7928   -5.2245   32.9204 H   0  0  0  0  0  0  0  0  0  0  0  0
   -3.5900   -5.6746   34.1208 H   0  0  0  0  0  0  0  0  0  0  0  0
   -6.2161   -8.2302   30.9147 H   0  0  0  0  0  0  0  0  0  0  0  0
   -5.0450   -7.2235   31.1053 H   0  0  0  0  0  0  0  0  0  0  0  0
   -6.0538   -6.2952   31.1030 H   0  0  0  0  0  0  0  0  0  0  0  0
   -8.5467   -8.5646   33.4181 H   0  0  0  0  0  0  0  0  0  0  0  0
   -7.4861   -8.4033   33.8891 H   0  0  0  0  0  0  0  0  0  0  0  0
   -9.5470   -9.4106   30.8986 H   0  0  0  0  0  0  0  0  0  0  0  0
   -7.8255   -9.7239   30.5838 H   0  0  0  0  0  0  0  0  0  0  0  0
   -7.5939  -11.4082   32.7991 H   0  0  0  0  0  0  0  0  0  0  0  0
   -6.5813  -13.2889   32.9725 H   0  0  0  0  0  0  0  0  0  0  0  0
   -6.8861  -14.6368   32.0300 H   0  0  0  0  0  0  0  0  0  0  0  0
   -6.5651  -14.4043   35.2332 H   0  0  0  0  0  0  0  0  0  0  0  0
   -8.7412  -14.5673   36.8570 H   0  0  0  0  0  0  0  0  0  0  0  0
  -10.1852  -14.5557   33.0850 H   0  0  0  0  0  0  0  0  0  0  0  0
  1  2  1  0
  2  3  2  0
  3  4  1  0
  4  5  1  0
  5  6  1  0
  6  7  1  0
  7  8  2  0
  7  9  1  0
  9 10  1  0
  9 11  1  0
 11 12  1  0
 12 13  1  0
 13 14  1  0
 14 15  2  0
 14 16  1  0
 16 17  1  0
 17 18  2  0
 18 19  1  0
 19 20  2  0
 20 21  1  0
  4 22  2  0
 22 23  1  0
 23  2  1  0
 21 17  1  0
  1 24  1  0
  1 25  1  0
  1 26  1  0
  3 27  1  0
  5 28  1  0
  5 29  1  0
  6 30  1  0
  6 31  1  0
 10 32  1  0
 10 33  1  0
 10 34  1  0
 11 35  1  0
 11 36  1  0
 12 37  1  0
 12 38  1  0
 13 39  1  0
 16 40  1  0
 16 41  1  0
 18 42  1  0
 19 43  1  0
 21 44  1  0
M  END
>  <Energy>  (520) 
428.63919840682024

>  <compound_id>  (520) 
24237

>  <target_id>  (520) 
1

>  <reference_id>  (520) 
96

>  <inspiration_ids>  (520) 
[59, 96]

>  <energy_score>  (520) 
387.5620843509521

>  <distance_score>  (520) 
7.972567215044441

>  <path>  (520) 
/opt/xchem-fragalysis-2/maxwin/BulkDock/SCRATCH/511013/C24237-P96/C24237-P96.minimised.mol

>  <scratch_subdir>  (520) 
/opt/xchem-fragalysis-2/maxwin/BulkDock/SCRATCH/511013/C24237-P96

>  <fragmenstein_runtime>  (520) 
14.219838380813599

>  <fragmenstein_outcome>  (520) 
too moved

>  <fragmenstein_mode>  (520) 
expansion

>  <fragmenstein_error>  (520) 


$$$$
C24238-P59
     RDKit          3D

 20 21  0  0  0  0  0  0  0  0999 V2000
  -12.8128   -7.2881   36.4362 O   0  0  0  0  0  0  0  0  0  0  0  0
  -12.6604   -8.0045   35.1778 S   0  0  0  0  0  0  0  0  0  0  0  0
  -13.4383   -7.6754   34.0051 O   0  0  0  0  0  0  0  0  0  0  0  0
  -12.8934   -9.9660   35.4536 N   0  0  0  0  0  0  0  0  0  0  0  0
  -13.7531  -11.1991   34.8091 C   0  0  0  0  0  0  0  0  0  0  0  0
  -13.9345  -12.5539   35.3951 C   0  0  0  0  0  0  0  0  0  0  0  0
  -14.3660  -13.5126   34.5498 N   0  0  0  0  0  0  0  0  0  0  0  0
  -14.8080  -12.7867   33.4532 O   0  0  0  0  0  0  0  0  0  0  0  0
  -14.5221  -11.4327   33.6618 C   0  0  0  0  0  0  0  0  0  0  0  0
  -11.0412   -7.3923   34.8538 C   0  0  0  0  0  0  0  0  0  0  0  0
  -10.2481   -7.4730   33.7526 C   0  0  0  0  0  0  0  0  0  0  0  0
   -8.9911   -6.9924   34.1408 C   0  0  0  0  0  0  0  0  0  0  0  0
   -9.0126   -6.4906   35.3763 N   0  0  0  0  0  0  0  0  0  0  0  0
  -10.3139   -6.5827   35.7215 N   0  0  0  0  0  0  0  0  0  0  0  0
  -12.5908  -10.1409   36.4141 H   0  0  0  0  0  0  0  0  0  0  0  0
  -13.6853  -12.8468   36.4033 H   0  0  0  0  0  0  0  0  0  0  0  0
  -14.8277  -10.7918   32.8447 H   0  0  0  0  0  0  0  0  0  0  0  0
  -10.6242   -7.8707   32.8327 H   0  0  0  0  0  0  0  0  0  0  0  0
   -8.0817   -6.9226   33.5579 H   0  0  0  0  0  0  0  0  0  0  0  0
  -10.6139   -6.2093   36.6178 H   0  0  0  0  0  0  0  0  0  0  0  0
  1  2  2  0
  2  3  2  0
  2  4  1  0
  4  5  1  0
  5  6  1  0
  6  7  2  0
  7  8  1  0
  8  9  1  0
  2 10  1  0
 10 11  2  0
 11 12  1  0
 12 13  2  0
 13 14  1  0
  9  5  2  0
 14 10  1  0
  4 15  1  0
  6 16  1  0
  9 17  1  0
 11 18  1  0
 12 19  1  0
 14 20  1  0
M  END
>  <Energy>  (521) 
8.0643876448876224

>  <compound_id>  (521) 
24238

>  <target_id>  (521) 
1

>  <reference_id>  (521) 
59

>  <inspiration_ids>  (521) 
[59, 96]

>  <energy_score>  (521) 
26.090543473480636

>  <distance_score>  (521) 
11.254621737245305

>  <path>  (521) 
/opt/xchem-fragalysis-2/maxwin/BulkDock/SCRATCH/511013/C24238-P59/C24238-P59.minimised.mol

>  <scratch_subdir>  (521) 
/opt/xchem-fragalysis-2/maxwin/BulkDock/SCRATCH/511013/C24238-P59

>  <fragmenstein_runtime>  (521) 
4.248127222061157

>  <fragmenstein_outcome>  (521) 
too moved

>  <fragmenstein_mode>  (521) 
expansion

>  <fragmenstein_error>  (521) 


$$$$
C24238-P96
     RDKit          3D

 20 21  0  0  0  0  0  0  0  0999 V2000
   -8.7347   -9.1331   31.5094 O   0  0  0  0  0  0  0  0  0  0  0  0
   -8.7458   -8.9753   33.0225 S   0  0  0  0  0  0  0  0  0  0  0  0
   -9.6248   -8.3415   34.0096 O   0  0  0  0  0  0  0  0  0  0  0  0
   -9.4789  -11.0125   32.0285 N   0  0  0  0  0  0  0  0  0  0  0  0
  -10.3119  -12.7326   32.4929 C   0  0  0  0  0  0  0  0  0  0  0  0
  -11.7265  -13.3072   32.5144 C   0  0  0  0  0  0  0  0  0  0  0  0
  -11.9925  -13.9796   33.6478 N   0  0  0  0  0  0  0  0  0  0  0  0
  -10.7305  -14.3919   34.0690 O   0  0  0  0  0  0  0  0  0  0  0  0
   -9.7826  -13.8792   33.2134 C   0  0  0  0  0  0  0  0  0  0  0  0
   -6.8712   -7.5435   33.5061 C   0  0  0  0  0  0  0  0  0  0  0  0
   -5.7338   -7.0503   32.3815 C   0  0  0  0  0  0  0  0  0  0  0  0
   -4.7217   -6.2589   32.8777 C   0  0  0  0  0  0  0  0  0  0  0  0
   -5.0825   -5.8918   34.0731 N   0  0  0  0  0  0  0  0  0  0  0  0
   -5.9463   -6.8436   34.4801 N   0  0  0  0  0  0  0  0  0  0  0  0
   -8.5111  -11.3755   32.0352 H   0  0  0  0  0  0  0  0  0  0  0  0
  -12.6057  -13.0450   31.9468 H   0  0  0  0  0  0  0  0  0  0  0  0
   -8.7831  -14.2163   33.4574 H   0  0  0  0  0  0  0  0  0  0  0  0
   -5.7242   -7.3806   31.3687 H   0  0  0  0  0  0  0  0  0  0  0  0
   -3.8431   -5.8602   32.3905 H   0  0  0  0  0  0  0  0  0  0  0  0
   -5.8760   -7.1476   35.4445 H   0  0  0  0  0  0  0  0  0  0  0  0
  1  2  2  0
  2  3  2  0
  2  4  1  0
  4  5  1  0
  5  6  1  0
  6  7  2  0
  7  8  1  0
  8  9  1  0
  2 10  1  0
 10 11  2  0
 11 12  1  0
 12 13  2  0
 13 14  1  0
  9  5  2  0
 14 10  1  0
  4 15  1  0
  6 16  1  0
  9 17  1  0
 11 18  1  0
 12 19  1  0
 14 20  1  0
M  END
>  <Energy>  (522) 
514.18209904228434

>  <compound_id>  (522) 
24238

>  <target_id>  (522) 
1

>  <reference_id>  (522) 
96

>  <inspiration_ids>  (522) 
[59, 96]

>  <energy_score>  (522) 
539.055826370009

>  <distance_score>  (522) 
9.264750596238981

>  <path>  (522) 
/opt/xchem-fragalysis-2/maxwin/BulkDock/SCRATCH/511013/C24238-P96/C24238-P96.minimised.mol

>  <scratch_subdir>  (522) 
/opt/xchem-fragalysis-2/maxwin/BulkDock/SCRATCH/511013/C24238-P96

>  <fragmenstein_runtime>  (522) 
3.3922970294952393

>  <fragmenstein_outcome>  (522) 
too moved

>  <fragmenstein_mode>  (522) 
expansion

>  <fragmenstein_error>  (522) 


$$$$
C24239-P59
     RDKit          3D

 41 42  0  0  0  0  0  0  0  0999 V2000
    0.1376   -5.8379   32.9949 C   0  0  0  0  0  0  0  0  0  0  0  0
   -0.6160   -6.5337   31.9280 C   0  0  0  0  0  0  0  0  0  0  0  0
   -0.6458   -6.2287   30.5562 C   0  0  0  0  0  0  0  0  0  0  0  0
   -1.6983   -6.9847   30.0582 C   0  0  0  0  0  0  0  0  0  0  0  0
   -2.5148   -6.7646   28.6964 C   0  0  0  0  0  0  0  0  0  0  0  0
   -3.7483   -7.6552   27.8761 C   0  0  0  0  0  0  0  0  0  0  0  0
   -3.3637   -7.9302   26.7438 O   0  0  0  0  0  0  0  0  0  0  0  0
   -5.2567   -8.2073   28.7961 N   0  0  0  0  0  0  0  0  0  0  0  0
   -6.6883   -9.6322   28.3436 C   0  0  0  0  0  0  0  0  0  0  0  0
   -7.6562   -9.1842   27.1223 C   0  0  0  0  0  0  0  0  0  0  0  0
   -6.4210  -12.0053   28.3609 C   0  0  0  0  0  0  0  0  0  0  0  0
   -7.8366  -13.5051   27.8987 N   0  0  0  0  0  0  0  0  0  0  0  0
   -8.1543  -14.5736   26.3130 C   0  0  0  0  0  0  0  0  0  0  0  0
   -7.3717  -14.4367   25.4370 O   0  0  0  0  0  0  0  0  0  0  0  0
   -9.4971  -16.1000   25.8061 C   0  0  0  0  0  0  0  0  0  0  0  0
  -10.2486  -17.3358   24.2545 C   0  0  0  0  0  0  0  0  0  0  0  0
   -9.1999  -18.5420   23.0920 C   0  0  0  0  0  0  0  0  0  0  0  0
   -9.6471  -20.0482   22.3547 C   0  0  0  0  0  0  0  0  0  0  0  0
  -10.6118  -20.0705   23.2694 N   0  0  0  0  0  0  0  0  0  0  0  0
  -10.1522  -18.7583   23.1548 N   0  0  0  0  0  0  0  0  0  0  0  0
   -2.1392   -7.8060   31.0373 O   0  0  0  0  0  0  0  0  0  0  0  0
   -1.4459   -7.5450   32.2066 N   0  0  0  0  0  0  0  0  0  0  0  0
   -0.1656   -6.1798   33.9898 H   0  0  0  0  0  0  0  0  0  0  0  0
   -0.0344   -4.7579   32.9437 H   0  0  0  0  0  0  0  0  0  0  0  0
    1.2108   -6.0223   32.8837 H   0  0  0  0  0  0  0  0  0  0  0  0
   -0.1200   -5.4346   30.0438 H   0  0  0  0  0  0  0  0  0  0  0  0
   -2.1093   -5.8935   28.1925 H   0  0  0  0  0  0  0  0  0  0  0  0
   -1.8067   -7.5155   28.3486 H   0  0  0  0  0  0  0  0  0  0  0  0
   -5.2410   -7.8713   29.7222 H   0  0  0  0  0  0  0  0  0  0  0  0
   -6.2412   -9.4032   27.3384 H   0  0  0  0  0  0  0  0  0  0  0  0
   -8.6277   -9.1902   27.6354 H   0  0  0  0  0  0  0  0  0  0  0  0
   -7.3111   -8.4176   26.5171 H   0  0  0  0  0  0  0  0  0  0  0  0
   -7.6178   -9.9020   26.2400 H   0  0  0  0  0  0  0  0  0  0  0  0
   -5.9113  -12.0676   27.3068 H   0  0  0  0  0  0  0  0  0  0  0  0
   -5.7074  -12.1755   29.2110 H   0  0  0  0  0  0  0  0  0  0  0  0
   -8.5135  -13.7684   28.6001 H   0  0  0  0  0  0  0  0  0  0  0  0
  -10.4250  -15.6882   26.2009 H   0  0  0  0  0  0  0  0  0  0  0  0
   -9.3517  -16.7976   26.6407 H   0  0  0  0  0  0  0  0  0  0  0  0
   -8.1401  -18.2437   22.7575 H   0  0  0  0  0  0  0  0  0  0  0  0
   -9.1334  -20.7761   21.7376 H   0  0  0  0  0  0  0  0  0  0  0  0
  -10.8162  -18.4623   22.3976 H   0  0  0  0  0  0  0  0  0  0  0  0
  1  2  1  0
  2  3  1  0
  3  4  2  0
  4  5  1  0
  5  6  1  0
  6  7  2  0
  6  8  1  0
  8  9  1  0
  9 10  1  0
  9 11  1  0
 11 12  1  0
 12 13  1  0
 13 14  2  0
 13 15  1  0
 15 16  1  0
 16 17  2  0
 17 18  1  0
 18 19  2  0
 19 20  1  0
  4 21  1  0
 21 22  1  0
 22  2  2  0
 20 16  1  0
  1 23  1  0
  1 24  1  0
  1 25  1  0
  3 26  1  0
  5 27  1  0
  5 28  1  0
  8 29  1  0
  9 30  1  0
 10 31  1  0
 10 32  1  0
 10 33  1  0
 11 34  1  0
 11 35  1  0
 12 36  1  0
 15 37  1  0
 15 38  1  0
 17 39  1  0
 18 40  1  0
 20 41  1  0
M  END
>  <Energy>  (523) 
1527.0889007788062

>  <compound_id>  (523) 
24239

>  <target_id>  (523) 
1

>  <reference_id>  (523) 
59

>  <inspiration_ids>  (523) 
[59, 96]

>  <energy_score>  (523) 
1462.2863592270483

>  <distance_score>  (523) 
7.148130170298493

>  <path>  (523) 
/opt/xchem-fragalysis-2/maxwin/BulkDock/SCRATCH/511013/C24239-P59/C24239-P59.minimised.mol

>  <scratch_subdir>  (523) 
/opt/xchem-fragalysis-2/maxwin/BulkDock/SCRATCH/511013/C24239-P59

>  <fragmenstein_runtime>  (523) 
21.54604983329773

>  <fragmenstein_outcome>  (523) 
too moved

>  <fragmenstein_mode>  (523) 
expansion

>  <fragmenstein_error>  (523) 


$$$$
C24239-P96
     RDKit          3D

 41 42  0  0  0  0  0  0  0  0999 V2000
   -2.0777   -4.0170   32.1542 C   0  0  0  0  0  0  0  0  0  0  0  0
   -2.4249   -5.1039   31.2164 C   0  0  0  0  0  0  0  0  0  0  0  0
   -2.9703   -6.3999   31.4555 C   0  0  0  0  0  0  0  0  0  0  0  0
   -3.1347   -6.9652   30.2070 C   0  0  0  0  0  0  0  0  0  0  0  0
   -3.7460   -8.2022   29.4509 C   0  0  0  0  0  0  0  0  0  0  0  0
   -5.2465   -9.3854   29.4856 C   0  0  0  0  0  0  0  0  0  0  0  0
   -6.1570   -8.8669   30.0670 O   0  0  0  0  0  0  0  0  0  0  0  0
   -5.1845  -10.7009   28.7476 N   0  0  0  0  0  0  0  0  0  0  0  0
   -6.4363  -11.8642   28.3837 C   0  0  0  0  0  0  0  0  0  0  0  0
   -6.2545  -10.6371   27.3383 C   0  0  0  0  0  0  0  0  0  0  0  0
   -7.4222  -12.9938   27.1137 C   0  0  0  0  0  0  0  0  0  0  0  0
   -7.3801  -14.8646   27.4402 N   0  0  0  0  0  0  0  0  0  0  0  0
   -8.4185  -16.0665   27.0206 C   0  0  0  0  0  0  0  0  0  0  0  0
   -9.4169  -15.9866   26.2834 O   0  0  0  0  0  0  0  0  0  0  0  0
   -8.3394  -17.9364   27.9040 C   0  0  0  0  0  0  0  0  0  0  0  0
   -9.4756  -19.7380   28.2349 C   0  0  0  0  0  0  0  0  0  0  0  0
   -9.2403  -21.1996   28.4013 C   0  0  0  0  0  0  0  0  0  0  0  0
  -10.3784  -21.9124   28.8048 C   0  0  0  0  0  0  0  0  0  0  0  0
  -11.2723  -21.0755   29.2758 N   0  0  0  0  0  0  0  0  0  0  0  0
  -10.6967  -19.8761   29.1106 N   0  0  0  0  0  0  0  0  0  0  0  0
   -2.6408   -6.0445   29.2949 O   0  0  0  0  0  0  0  0  0  0  0  0
   -2.2661   -4.8867   29.9138 N   0  0  0  0  0  0  0  0  0  0  0  0
   -2.5187   -4.2008   33.1350 H   0  0  0  0  0  0  0  0  0  0  0  0
   -2.4440   -3.0513   31.7959 H   0  0  0  0  0  0  0  0  0  0  0  0
   -0.9926   -3.9366   32.2649 H   0  0  0  0  0  0  0  0  0  0  0  0
   -3.2458   -6.8264   32.4053 H   0  0  0  0  0  0  0  0  0  0  0  0
   -4.3999   -7.3231   29.3268 H   0  0  0  0  0  0  0  0  0  0  0  0
   -3.0719   -8.5071   28.6458 H   0  0  0  0  0  0  0  0  0  0  0  0
   -4.2748  -10.7908   28.3006 H   0  0  0  0  0  0  0  0  0  0  0  0
   -5.9102  -12.6562   28.8703 H   0  0  0  0  0  0  0  0  0  0  0  0
   -6.5445   -9.6444   27.7013 H   0  0  0  0  0  0  0  0  0  0  0  0
   -6.8100  -11.0249   26.4564 H   0  0  0  0  0  0  0  0  0  0  0  0
   -5.2330  -10.4318   26.8497 H   0  0  0  0  0  0  0  0  0  0  0  0
   -7.5283  -12.6445   26.0658 H   0  0  0  0  0  0  0  0  0  0  0  0
   -8.4672  -12.8469   27.4116 H   0  0  0  0  0  0  0  0  0  0  0  0
   -6.5997  -15.2652   27.9753 H   0  0  0  0  0  0  0  0  0  0  0  0
   -9.2175  -17.5895   27.4618 H   0  0  0  0  0  0  0  0  0  0  0  0
   -7.4361  -18.5244   27.5774 H   0  0  0  0  0  0  0  0  0  0  0  0
   -8.2922  -21.6858   28.1925 H   0  0  0  0  0  0  0  0  0  0  0  0
  -10.5354  -22.9798   28.8775 H   0  0  0  0  0  0  0  0  0  0  0  0
  -11.3550  -19.1268   29.0890 H   0  0  0  0  0  0  0  0  0  0  0  0
  1  2  1  0
  2  3  1  0
  3  4  2  0
  4  5  1  0
  5  6  1  0
  6  7  2  0
  6  8  1  0
  8  9  1  0
  9 10  1  0
  9 11  1  0
 11 12  1  0
 12 13  1  0
 13 14  2  0
 13 15  1  0
 15 16  1  0
 16 17  2  0
 17 18  1  0
 18 19  2  0
 19 20  1  0
  4 21  1  0
 21 22  1  0
 22  2  2  0
 20 16  1  0
  1 23  1  0
  1 24  1  0
  1 25  1  0
  3 26  1  0
  5 27  1  0
  5 28  1  0
  8 29  1  0
  9 30  1  0
 10 31  1  0
 10 32  1  0
 10 33  1  0
 11 34  1  0
 11 35  1  0
 12 36  1  0
 15 37  1  0
 15 38  1  0
 17 39  1  0
 18 40  1  0
 20 41  1  0
M  END
>  <Energy>  (524) 
738.5256207991755

>  <compound_id>  (524) 
24239

>  <target_id>  (524) 
1

>  <reference_id>  (524) 
96

>  <inspiration_ids>  (524) 
[59, 96]

>  <energy_score>  (524) 
673.7230792473987

>  <distance_score>  (524) 
4.827983999804819

>  <path>  (524) 
/opt/xchem-fragalysis-2/maxwin/BulkDock/SCRATCH/511013/C24239-P96/C24239-P96.minimised.mol

>  <scratch_subdir>  (524) 
/opt/xchem-fragalysis-2/maxwin/BulkDock/SCRATCH/511013/C24239-P96

>  <fragmenstein_runtime>  (524) 
18.09946036338806

>  <fragmenstein_outcome>  (524) 
too moved

>  <fragmenstein_mode>  (524) 
expansion

>  <fragmenstein_error>  (524) 


$$$$
C24240-P59
     RDKit          3D

 45 47  0  0  0  0  0  0  0  0999 V2000
   -7.6195  -10.2835   25.7310 C   0  0  0  0  0  0  0  0  0  0  0  0
   -6.4167  -10.4322   26.3691 C   0  0  0  0  0  0  0  0  0  0  0  0
   -7.1483  -12.4491   26.6675 C   0  0  0  0  0  0  0  0  0  0  0  0
   -7.8316  -14.0889   27.6261 N   0  0  0  0  0  0  0  0  0  0  0  0
   -8.6000  -15.7545   26.9783 C   0  0  0  0  0  0  0  0  0  0  0  0
   -8.8006  -15.7903   25.8104 O   0  0  0  0  0  0  0  0  0  0  0  0
   -8.9952  -17.6770   27.8271 C   0  0  0  0  0  0  0  0  0  0  0  0
   -9.5118  -19.6947   28.2805 C   0  0  0  0  0  0  0  0  0  0  0  0
  -10.3456  -21.2143   28.0047 C   0  0  0  0  0  0  0  0  0  0  0  0
  -11.6706  -21.5941   28.1875 C   0  0  0  0  0  0  0  0  0  0  0  0
  -11.9502  -20.9606   29.2787 N   0  0  0  0  0  0  0  0  0  0  0  0
  -10.8036  -20.2467   29.5440 N   0  0  0  0  0  0  0  0  0  0  0  0
   -5.4838   -8.7114   27.2724 N   0  0  0  0  0  0  0  0  0  0  0  0
   -3.6584   -7.9284   27.0435 C   0  0  0  0  0  0  0  0  0  0  0  0
   -2.8881   -8.3574   26.1527 O   0  0  0  0  0  0  0  0  0  0  0  0
   -2.6863   -6.7345   28.1473 C   0  0  0  0  0  0  0  0  0  0  0  0
   -1.5107   -5.3028   28.6380 C   0  0  0  0  0  0  0  0  0  0  0  0
   -1.0719   -3.9643   28.5086 C   0  0  0  0  0  0  0  0  0  0  0  0
   -0.3744   -3.6596   29.6951 C   0  0  0  0  0  0  0  0  0  0  0  0
   -0.0107   -2.2214   30.1476 C   0  0  0  0  0  0  0  0  0  0  0  0
   -0.4900   -1.7360   31.4965 C   0  0  0  0  0  0  0  0  0  0  0  0
   -1.1096   -1.1889   30.2465 C   0  0  0  0  0  0  0  0  0  0  0  0
   -0.1377   -4.7360   30.4299 N   0  0  0  0  0  0  0  0  0  0  0  0
   -0.7691   -5.7731   29.7823 O   0  0  0  0  0  0  0  0  0  0  0  0
   -7.7080   -9.3393   26.2658 H   0  0  0  0  0  0  0  0  0  0  0  0
   -7.4379  -10.4505   24.6380 H   0  0  0  0  0  0  0  0  0  0  0  0
   -8.4573  -10.9492   25.9436 H   0  0  0  0  0  0  0  0  0  0  0  0
   -6.1533  -10.7939   25.3828 H   0  0  0  0  0  0  0  0  0  0  0  0
   -6.7775  -12.9296   25.7947 H   0  0  0  0  0  0  0  0  0  0  0  0
   -6.2451  -12.4749   27.1777 H   0  0  0  0  0  0  0  0  0  0  0  0
   -7.7823  -14.1327   28.6227 H   0  0  0  0  0  0  0  0  0  0  0  0
   -8.5883  -17.6116   28.7553 H   0  0  0  0  0  0  0  0  0  0  0  0
   -9.9266  -17.5503   27.2860 H   0  0  0  0  0  0  0  0  0  0  0  0
   -9.7664  -22.1416   28.2284 H   0  0  0  0  0  0  0  0  0  0  0  0
  -12.2022  -22.4672   27.8557 H   0  0  0  0  0  0  0  0  0  0  0  0
  -10.9569  -19.6059   30.3044 H   0  0  0  0  0  0  0  0  0  0  0  0
   -5.9199   -8.2992   28.0864 H   0  0  0  0  0  0  0  0  0  0  0  0
   -1.8692   -7.4587   28.2702 H   0  0  0  0  0  0  0  0  0  0  0  0
   -2.9573   -7.1035   29.1620 H   0  0  0  0  0  0  0  0  0  0  0  0
   -1.3219   -3.2031   27.7869 H   0  0  0  0  0  0  0  0  0  0  0  0
    0.9646   -1.8817   29.8162 H   0  0  0  0  0  0  0  0  0  0  0  0
   -1.0797   -2.4088   32.1092 H   0  0  0  0  0  0  0  0  0  0  0  0
    0.1746   -1.0935   32.0625 H   0  0  0  0  0  0  0  0  0  0  0  0
   -0.8686   -0.1724   29.9558 H   0  0  0  0  0  0  0  0  0  0  0  0
   -2.1256   -1.4825   30.0095 H   0  0  0  0  0  0  0  0  0  0  0  0
  1  2  1  0
  2  3  1  0
  3  4  1  0
  4  5  1  0
  5  6  2  0
  5  7  1  0
  7  8  1  0
  8  9  2  0
  9 10  1  0
 10 11  2  0
 11 12  1  0
  2 13  1  0
 13 14  1  0
 14 15  2  0
 14 16  1  0
 16 17  1  0
 17 18  2  0
 18 19  1  0
 19 20  1  0
 20 21  1  0
 21 22  1  0
 19 23  2  0
 23 24  1  0
 12  8  1  0
 24 17  1  0
 22 20  1  0
  1 25  1  0
  1 26  1  0
  1 27  1  0
  2 28  1  0
  3 29  1  0
  3 30  1  0
  4 31  1  0
  7 32  1  0
  7 33  1  0
  9 34  1  0
 10 35  1  0
 12 36  1  0
 13 37  1  0
 16 38  1  0
 16 39  1  0
 18 40  1  0
 20 41  1  0
 21 42  1  0
 21 43  1  0
 22 44  1  0
 22 45  1  0
M  END
>  <Energy>  (525) 
1525.5237434661587

>  <compound_id>  (525) 
24240

>  <target_id>  (525) 
1

>  <reference_id>  (525) 
59

>  <inspiration_ids>  (525) 
[59, 96]

>  <energy_score>  (525) 
1438.644022650008

>  <distance_score>  (525) 
4.508360701306569

>  <path>  (525) 
/opt/xchem-fragalysis-2/maxwin/BulkDock/SCRATCH/511013/C24240-P59/C24240-P59.minimised.mol

>  <scratch_subdir>  (525) 
/opt/xchem-fragalysis-2/maxwin/BulkDock/SCRATCH/511013/C24240-P59

>  <fragmenstein_runtime>  (525) 
19.558805465698242

>  <fragmenstein_outcome>  (525) 
too moved

>  <fragmenstein_mode>  (525) 
expansion

>  <fragmenstein_error>  (525) 


$$$$
C24240-P96
     RDKit          3D

 45 47  0  0  0  0  0  0  0  0999 V2000
   -8.1522  -12.7262   26.0537 C   0  0  0  0  0  0  0  0  0  0  0  0
   -7.5518  -13.3067   27.3254 C   0  0  0  0  0  0  0  0  0  0  0  0
   -7.5346  -15.3703   27.2913 C   0  0  0  0  0  0  0  0  0  0  0  0
   -8.3202  -17.1091   27.6522 N   0  0  0  0  0  0  0  0  0  0  0  0
   -7.5922  -18.8320   27.6095 C   0  0  0  0  0  0  0  0  0  0  0  0
   -6.4857  -19.2095   27.3349 O   0  0  0  0  0  0  0  0  0  0  0  0
   -9.2820  -20.0155   28.0344 C   0  0  0  0  0  0  0  0  0  0  0  0
  -10.3094  -20.3884   29.2347 C   0  0  0  0  0  0  0  0  0  0  0  0
  -11.1385  -21.5131   29.1698 C   0  0  0  0  0  0  0  0  0  0  0  0
  -11.7318  -21.6345   30.4283 C   0  0  0  0  0  0  0  0  0  0  0  0
  -11.3695  -20.6413   31.2327 N   0  0  0  0  0  0  0  0  0  0  0  0
  -10.5144  -19.9093   30.4973 N   0  0  0  0  0  0  0  0  0  0  0  0
   -6.6717  -12.0723   28.5035 N   0  0  0  0  0  0  0  0  0  0  0  0
   -5.5114  -10.7809   28.1751 C   0  0  0  0  0  0  0  0  0  0  0  0
   -4.9599  -10.4701   27.1245 O   0  0  0  0  0  0  0  0  0  0  0  0
   -5.1315   -9.6834   29.3532 C   0  0  0  0  0  0  0  0  0  0  0  0
   -4.1742   -8.0018   29.6811 C   0  0  0  0  0  0  0  0  0  0  0  0
   -4.3985   -6.8311   30.4381 C   0  0  0  0  0  0  0  0  0  0  0  0
   -3.2754   -5.9903   30.2010 C   0  0  0  0  0  0  0  0  0  0  0  0
   -2.8973   -4.5904   30.7958 C   0  0  0  0  0  0  0  0  0  0  0  0
   -2.7721   -4.4018   32.2899 C   0  0  0  0  0  0  0  0  0  0  0  0
   -1.5678   -4.3338   31.4214 C   0  0  0  0  0  0  0  0  0  0  0  0
   -2.5821   -6.4666   29.1834 N   0  0  0  0  0  0  0  0  0  0  0  0
   -2.9517   -7.8037   29.0656 O   0  0  0  0  0  0  0  0  0  0  0  0
   -7.5441  -11.9478   25.6159 H   0  0  0  0  0  0  0  0  0  0  0  0
   -8.3256  -13.5386   25.3312 H   0  0  0  0  0  0  0  0  0  0  0  0
   -9.1768  -12.4050   26.2248 H   0  0  0  0  0  0  0  0  0  0  0  0
   -8.5535  -13.1443   27.7522 H   0  0  0  0  0  0  0  0  0  0  0  0
   -6.5876  -15.0631   27.8572 H   0  0  0  0  0  0  0  0  0  0  0  0
   -6.6831  -15.9184   27.2057 H   0  0  0  0  0  0  0  0  0  0  0  0
   -9.2830  -17.1609   27.8348 H   0  0  0  0  0  0  0  0  0  0  0  0
   -8.7200  -20.9851   28.2641 H   0  0  0  0  0  0  0  0  0  0  0  0
  -10.0472  -20.1642   27.2579 H   0  0  0  0  0  0  0  0  0  0  0  0
  -11.2428  -22.1766   28.3210 H   0  0  0  0  0  0  0  0  0  0  0  0
  -12.4147  -22.3910   30.7935 H   0  0  0  0  0  0  0  0  0  0  0  0
  -10.0856  -19.1199   30.9700 H   0  0  0  0  0  0  0  0  0  0  0  0
   -6.8723  -12.1125   29.4936 H   0  0  0  0  0  0  0  0  0  0  0  0
   -6.1046   -9.2367   29.5378 H   0  0  0  0  0  0  0  0  0  0  0  0
   -4.2310   -9.6357   28.7093 H   0  0  0  0  0  0  0  0  0  0  0  0
   -5.2181   -6.6844   31.1248 H   0  0  0  0  0  0  0  0  0  0  0  0
   -3.1598   -3.7658   30.1477 H   0  0  0  0  0  0  0  0  0  0  0  0
   -3.0613   -3.4624   32.7377 H   0  0  0  0  0  0  0  0  0  0  0  0
   -2.8707   -5.2701   32.9310 H   0  0  0  0  0  0  0  0  0  0  0  0
   -0.8771   -5.1459   31.4328 H   0  0  0  0  0  0  0  0  0  0  0  0
   -1.1028   -3.3715   31.2435 H   0  0  0  0  0  0  0  0  0  0  0  0
  1  2  1  0
  2  3  1  0
  3  4  1  0
  4  5  1  0
  5  6  2  0
  5  7  1  0
  7  8  1  0
  8  9  2  0
  9 10  1  0
 10 11  2  0
 11 12  1  0
  2 13  1  0
 13 14  1  0
 14 15  2  0
 14 16  1  0
 16 17  1  0
 17 18  2  0
 18 19  1  0
 19 20  1  0
 20 21  1  0
 21 22  1  0
 19 23  2  0
 23 24  1  0
 12  8  1  0
 24 17  1  0
 22 20  1  0
  1 25  1  0
  1 26  1  0
  1 27  1  0
  2 28  1  0
  3 29  1  0
  3 30  1  0
  4 31  1  0
  7 32  1  0
  7 33  1  0
  9 34  1  0
 10 35  1  0
 12 36  1  0
 13 37  1  0
 16 38  1  0
 16 39  1  0
 18 40  1  0
 20 41  1  0
 21 42  1  0
 21 43  1  0
 22 44  1  0
 22 45  1  0
M  END
>  <Energy>  (526) 
733.03603332271246

>  <compound_id>  (526) 
24240

>  <target_id>  (526) 
1

>  <reference_id>  (526) 
96

>  <inspiration_ids>  (526) 
[59, 96]

>  <energy_score>  (526) 
646.1563125065376

>  <distance_score>  (526) 
5.445707145959024

>  <path>  (526) 
/opt/xchem-fragalysis-2/maxwin/BulkDock/SCRATCH/511013/C24240-P96/C24240-P96.minimised.mol

>  <scratch_subdir>  (526) 
/opt/xchem-fragalysis-2/maxwin/BulkDock/SCRATCH/511013/C24240-P96

>  <fragmenstein_runtime>  (526) 
17.730627298355103

>  <fragmenstein_outcome>  (526) 
too moved

>  <fragmenstein_mode>  (526) 
expansion

>  <fragmenstein_error>  (526) 


$$$$
C24250-P59
     RDKit          3D

 44 45  0  0  0  0  0  0  0  0999 V2000
   -7.1377   -7.1825   32.7832 C   0  0  0  0  0  0  0  0  0  0  0  0
   -5.7220   -8.1989   33.6571 C   0  0  0  0  0  0  0  0  0  0  0  0
   -6.8491   -6.5972   34.5883 C   0  0  0  0  0  0  0  0  0  0  0  0
   -6.4674   -4.8567   35.0407 C   0  0  0  0  0  0  0  0  0  0  0  0
   -5.3879   -3.3390   34.9834 N   0  0  0  0  0  0  0  0  0  0  0  0
   -4.8060   -2.5814   33.8104 C   0  0  0  0  0  0  0  0  0  0  0  0
   -4.9661   -2.7305   32.6241 O   0  0  0  0  0  0  0  0  0  0  0  0
   -3.8332   -1.5135   34.3274 C   0  0  0  0  0  0  0  0  0  0  0  0
   -2.8341   -1.0431   33.3048 C   0  0  0  0  0  0  0  0  0  0  0  0
   -2.3649   -1.6559   32.1122 C   0  0  0  0  0  0  0  0  0  0  0  0
   -1.4491   -0.7769   31.6015 C   0  0  0  0  0  0  0  0  0  0  0  0
   -1.3366    0.2820   32.4352 O   0  0  0  0  0  0  0  0  0  0  0  0
   -2.2105    0.1305   33.4989 N   0  0  0  0  0  0  0  0  0  0  0  0
   -5.9855  -10.2668   33.7106 N   0  0  0  0  0  0  0  0  0  0  0  0
   -7.3344  -11.4112   32.9100 C   0  0  0  0  0  0  0  0  0  0  0  0
   -8.2446  -11.0124   32.1252 O   0  0  0  0  0  0  0  0  0  0  0  0
   -7.5548  -12.8969   33.1972 C   0  0  0  0  0  0  0  0  0  0  0  0
   -8.9978  -14.2242   32.8876 C   0  0  0  0  0  0  0  0  0  0  0  0
   -9.9290  -15.4929   33.7653 C   0  0  0  0  0  0  0  0  0  0  0  0
   -9.7342  -16.8096   34.2783 C   0  0  0  0  0  0  0  0  0  0  0  0
  -10.8714  -17.1893   35.0377 C   0  0  0  0  0  0  0  0  0  0  0  0
  -11.8324  -16.2745   34.9195 N   0  0  0  0  0  0  0  0  0  0  0  0
  -11.2987  -15.4432   33.9845 N   0  0  0  0  0  0  0  0  0  0  0  0
   -7.1806   -6.1628   32.8722 H   0  0  0  0  0  0  0  0  0  0  0  0
   -6.7138   -7.0044   31.8175 H   0  0  0  0  0  0  0  0  0  0  0  0
   -8.1944   -7.4230   32.9781 H   0  0  0  0  0  0  0  0  0  0  0  0
   -4.9317   -8.1691   34.4724 H   0  0  0  0  0  0  0  0  0  0  0  0
   -7.1605   -6.8180   35.6605 H   0  0  0  0  0  0  0  0  0  0  0  0
   -7.9566   -6.5808   34.4457 H   0  0  0  0  0  0  0  0  0  0  0  0
   -7.3367   -4.5751   35.5465 H   0  0  0  0  0  0  0  0  0  0  0  0
   -6.0837   -5.0977   34.0814 H   0  0  0  0  0  0  0  0  0  0  0  0
   -4.9723   -2.9967   35.8382 H   0  0  0  0  0  0  0  0  0  0  0  0
   -4.4386   -0.6665   34.6715 H   0  0  0  0  0  0  0  0  0  0  0  0
   -3.2761   -1.9084   35.1849 H   0  0  0  0  0  0  0  0  0  0  0  0
   -2.6638   -2.5949   31.6746 H   0  0  0  0  0  0  0  0  0  0  0  0
   -0.8247   -0.7549   30.7204 H   0  0  0  0  0  0  0  0  0  0  0  0
   -5.4271  -10.8100   34.3650 H   0  0  0  0  0  0  0  0  0  0  0  0
   -8.5204  -12.4350   33.2515 H   0  0  0  0  0  0  0  0  0  0  0  0
   -7.0961  -13.1196   32.2104 H   0  0  0  0  0  0  0  0  0  0  0  0
   -8.5493  -14.7208   32.0508 H   0  0  0  0  0  0  0  0  0  0  0  0
   -9.8572  -13.6342   32.7029 H   0  0  0  0  0  0  0  0  0  0  0  0
   -8.9107  -17.4651   34.1298 H   0  0  0  0  0  0  0  0  0  0  0  0
  -11.0372  -18.0761   35.6305 H   0  0  0  0  0  0  0  0  0  0  0  0
  -11.9379  -15.1819   33.2493 H   0  0  0  0  0  0  0  0  0  0  0  0
  1  2  1  0
  2  3  1  0
  3  4  1  0
  4  5  1  0
  5  6  1  0
  6  7  2  0
  6  8  1  0
  8  9  1  0
  9 10  1  0
 10 11  2  0
 11 12  1  0
 12 13  1  0
  2 14  1  0
 14 15  1  0
 15 16  2  0
 15 17  1  0
 17 18  1  0
 18 19  1  0
 19 20  2  0
 20 21  1  0
 21 22  2  0
 22 23  1  0
 13  9  2  0
 23 19  1  0
  1 24  1  0
  1 25  1  0
  1 26  1  0
  2 27  1  0
  3 28  1  0
  3 29  1  0
  4 30  1  0
  4 31  1  0
  5 32  1  0
  8 33  1  0
  8 34  1  0
 10 35  1  0
 11 36  1  0
 14 37  1  0
 17 38  1  0
 17 39  1  0
 18 40  1  0
 18 41  1  0
 20 42  1  0
 21 43  1  0
 23 44  1  0
M  END
>  <Energy>  (527) 
854.38796772822673

>  <compound_id>  (527) 
24250

>  <target_id>  (527) 
1

>  <reference_id>  (527) 
59

>  <inspiration_ids>  (527) 
[59, 96]

>  <energy_score>  (527) 
827.033163622695

>  <distance_score>  (527) 
6.444826104414594

>  <path>  (527) 
/opt/xchem-fragalysis-2/maxwin/BulkDock/SCRATCH/511013/C24250-P59/C24250-P59.minimised.mol

>  <scratch_subdir>  (527) 
/opt/xchem-fragalysis-2/maxwin/BulkDock/SCRATCH/511013/C24250-P59

>  <fragmenstein_runtime>  (527) 
25.222153186798096

>  <fragmenstein_outcome>  (527) 
too moved

>  <fragmenstein_mode>  (527) 
expansion

>  <fragmenstein_error>  (527) 


$$$$
C24250-P96
     RDKit          3D

 44 45  0  0  0  0  0  0  0  0999 V2000
   -5.2577   -9.2908   33.4448 C   0  0  0  0  0  0  0  0  0  0  0  0
   -7.6978   -9.1319   33.2558 C   0  0  0  0  0  0  0  0  0  0  0  0
   -6.7626   -7.3839   33.6370 C   0  0  0  0  0  0  0  0  0  0  0  0
   -5.2755   -6.6061   33.0842 C   0  0  0  0  0  0  0  0  0  0  0  0
   -4.3394   -6.0633   32.1088 N   0  0  0  0  0  0  0  0  0  0  0  0
   -3.2596   -5.1019   32.2576 C   0  0  0  0  0  0  0  0  0  0  0  0
   -2.9178   -4.4529   33.2038 O   0  0  0  0  0  0  0  0  0  0  0  0
   -2.4786   -4.9774   30.9282 C   0  0  0  0  0  0  0  0  0  0  0  0
   -1.9782   -3.5943   30.6546 C   0  0  0  0  0  0  0  0  0  0  0  0
   -1.0231   -2.8374   31.3731 C   0  0  0  0  0  0  0  0  0  0  0  0
   -0.9126   -1.6681   30.6703 C   0  0  0  0  0  0  0  0  0  0  0  0
   -1.7296   -1.7104   29.5917 O   0  0  0  0  0  0  0  0  0  0  0  0
   -2.3896   -2.9271   29.5638 N   0  0  0  0  0  0  0  0  0  0  0  0
   -9.1103  -10.5061   32.0271 N   0  0  0  0  0  0  0  0  0  0  0  0
   -9.3108  -12.6548   31.5926 C   0  0  0  0  0  0  0  0  0  0  0  0
   -8.3273  -13.2808   32.0627 O   0  0  0  0  0  0  0  0  0  0  0  0
  -10.8730  -14.2562   30.7539 C   0  0  0  0  0  0  0  0  0  0  0  0
  -10.7298  -16.3555   29.6176 C   0  0  0  0  0  0  0  0  0  0  0  0
  -10.1669  -18.4311   30.4923 C   0  0  0  0  0  0  0  0  0  0  0  0
  -10.3455  -18.9936   31.8097 C   0  0  0  0  0  0  0  0  0  0  0  0
  -10.7507  -20.3372   31.6864 C   0  0  0  0  0  0  0  0  0  0  0  0
  -10.8945  -20.7014   30.4196 N   0  0  0  0  0  0  0  0  0  0  0  0
  -10.5008  -19.6310   29.7130 N   0  0  0  0  0  0  0  0  0  0  0  0
   -4.1965   -9.6036   34.0550 H   0  0  0  0  0  0  0  0  0  0  0  0
   -4.6147   -8.4358   33.1706 H   0  0  0  0  0  0  0  0  0  0  0  0
   -4.8038  -10.4654   33.5041 H   0  0  0  0  0  0  0  0  0  0  0  0
   -8.4338   -8.6542   33.8464 H   0  0  0  0  0  0  0  0  0  0  0  0
   -6.7728   -7.7298   34.6593 H   0  0  0  0  0  0  0  0  0  0  0  0
   -6.8000   -6.5332   34.2855 H   0  0  0  0  0  0  0  0  0  0  0  0
   -4.5831   -6.7672   33.9033 H   0  0  0  0  0  0  0  0  0  0  0  0
   -5.5238   -7.1936   32.2089 H   0  0  0  0  0  0  0  0  0  0  0  0
   -4.2830   -6.4848   31.1868 H   0  0  0  0  0  0  0  0  0  0  0  0
   -3.0964   -5.3070   30.0849 H   0  0  0  0  0  0  0  0  0  0  0  0
   -1.6371   -5.6688   30.9794 H   0  0  0  0  0  0  0  0  0  0  0  0
   -0.4881   -3.1225   32.2648 H   0  0  0  0  0  0  0  0  0  0  0  0
   -0.3318   -0.7660   30.7846 H   0  0  0  0  0  0  0  0  0  0  0  0
   -9.8446  -10.0310   31.5718 H   0  0  0  0  0  0  0  0  0  0  0  0
  -11.8201  -14.1296   31.3419 H   0  0  0  0  0  0  0  0  0  0  0  0
  -11.3504  -13.7665   29.8618 H   0  0  0  0  0  0  0  0  0  0  0  0
  -11.9383  -16.4144   29.2604 H   0  0  0  0  0  0  0  0  0  0  0  0
  -10.7535  -16.7838   28.5466 H   0  0  0  0  0  0  0  0  0  0  0  0
  -10.5116  -18.3827   32.6850 H   0  0  0  0  0  0  0  0  0  0  0  0
  -11.0412  -21.0226   32.4723 H   0  0  0  0  0  0  0  0  0  0  0  0
  -10.5814  -19.6600   28.6998 H   0  0  0  0  0  0  0  0  0  0  0  0
  1  2  1  0
  2  3  1  0
  3  4  1  0
  4  5  1  0
  5  6  1  0
  6  7  2  0
  6  8  1  0
  8  9  1  0
  9 10  1  0
 10 11  2  0
 11 12  1  0
 12 13  1  0
  2 14  1  0
 14 15  1  0
 15 16  2  0
 15 17  1  0
 17 18  1  0
 18 19  1  0
 19 20  2  0
 20 21  1  0
 21 22  2  0
 22 23  1  0
 13  9  2  0
 23 19  1  0
  1 24  1  0
  1 25  1  0
  1 26  1  0
  2 27  1  0
  3 28  1  0
  3 29  1  0
  4 30  1  0
  4 31  1  0
  5 32  1  0
  8 33  1  0
  8 34  1  0
 10 35  1  0
 11 36  1  0
 14 37  1  0
 17 38  1  0
 17 39  1  0
 18 40  1  0
 18 41  1  0
 20 42  1  0
 21 43  1  0
 23 44  1  0
M  END
>  <Energy>  (528) 
2293.1320890935031

>  <compound_id>  (528) 
24250

>  <target_id>  (528) 
1

>  <reference_id>  (528) 
96

>  <inspiration_ids>  (528) 
[59, 96]

>  <energy_score>  (528) 
2265.777284987996

>  <distance_score>  (528) 
5.025589896827483

>  <path>  (528) 
/opt/xchem-fragalysis-2/maxwin/BulkDock/SCRATCH/511013/C24250-P96/C24250-P96.minimised.mol

>  <scratch_subdir>  (528) 
/opt/xchem-fragalysis-2/maxwin/BulkDock/SCRATCH/511013/C24250-P96

>  <fragmenstein_runtime>  (528) 
16.93083119392395

>  <fragmenstein_outcome>  (528) 
too moved

>  <fragmenstein_mode>  (528) 
expansion

>  <fragmenstein_error>  (528) 


$$$$
C24251-P59
     RDKit          3D

 47 48  0  0  0  0  0  0  0  0999 V2000
   -5.9220    0.3469   34.2814 C   0  0  0  0  0  0  0  0  0  0  0  0
   -6.1063   -1.1606   34.1580 C   0  0  0  0  0  0  0  0  0  0  0  0
   -5.4113   -1.9820   35.2841 C   0  0  0  0  0  0  0  0  0  0  0  0
   -5.9723   -1.4946   36.6564 C   0  0  0  0  0  0  0  0  0  0  0  0
   -7.4906   -1.4400   36.7930 C   0  0  0  0  0  0  0  0  0  0  0  0
   -3.8492   -1.5914   35.3067 C   0  0  0  0  0  0  0  0  0  0  0  0
   -3.1647   -1.2409   34.0588 N   0  0  0  0  0  0  0  0  0  0  0  0
   -3.1387   -1.8958   32.7810 C   0  0  0  0  0  0  0  0  0  0  0  0
   -3.7334   -2.8555   32.3815 O   0  0  0  0  0  0  0  0  0  0  0  0
   -2.2102   -1.2081   31.8536 C   0  0  0  0  0  0  0  0  0  0  0  0
   -1.9329   -1.5424   30.5018 C   0  0  0  0  0  0  0  0  0  0  0  0
   -1.0561   -0.5796   30.0735 C   0  0  0  0  0  0  0  0  0  0  0  0
   -0.3982   -0.2911   28.7845 C   0  0  0  0  0  0  0  0  0  0  0  0
   -0.7831    0.2619   31.1054 O   0  0  0  0  0  0  0  0  0  0  0  0
   -1.5048   -0.1232   32.2252 N   0  0  0  0  0  0  0  0  0  0  0  0
   -5.3660   -3.4735   34.8627 N   0  0  0  0  0  0  0  0  0  0  0  0
   -6.5354   -4.8104   35.1097 C   0  0  0  0  0  0  0  0  0  0  0  0
   -7.5060   -4.6808   35.7501 O   0  0  0  0  0  0  0  0  0  0  0  0
   -6.4660   -6.5736   34.4285 C   0  0  0  0  0  0  0  0  0  0  0  0
   -4.9056   -7.9572   34.8937 C   0  0  0  0  0  0  0  0  0  0  0  0
   -3.4210   -8.2264   34.8381 C   0  0  0  0  0  0  0  0  0  0  0  0
   -3.0557   -9.4223   35.4641 C   0  0  0  0  0  0  0  0  0  0  0  0
   -4.0996   -9.9962   36.0093 N   0  0  0  0  0  0  0  0  0  0  0  0
   -5.1051   -9.1516   35.7907 N   0  0  0  0  0  0  0  0  0  0  0  0
   -4.9583    0.6530   34.6917 H   0  0  0  0  0  0  0  0  0  0  0  0
   -5.9746    0.7806   33.2888 H   0  0  0  0  0  0  0  0  0  0  0  0
   -6.7044    0.7954   34.8992 H   0  0  0  0  0  0  0  0  0  0  0  0
   -7.1793   -1.3830   34.1225 H   0  0  0  0  0  0  0  0  0  0  0  0
   -5.7336   -1.4713   33.1771 H   0  0  0  0  0  0  0  0  0  0  0  0
   -5.6377   -0.4626   36.8362 H   0  0  0  0  0  0  0  0  0  0  0  0
   -5.5119   -2.0334   37.4849 H   0  0  0  0  0  0  0  0  0  0  0  0
   -7.8881   -0.5014   36.3945 H   0  0  0  0  0  0  0  0  0  0  0  0
   -7.9934   -2.2486   36.2669 H   0  0  0  0  0  0  0  0  0  0  0  0
   -7.7732   -1.4826   37.8497 H   0  0  0  0  0  0  0  0  0  0  0  0
   -3.6916   -0.7166   35.9487 H   0  0  0  0  0  0  0  0  0  0  0  0
   -3.2657   -2.3954   35.7670 H   0  0  0  0  0  0  0  0  0  0  0  0
   -2.4634   -0.5020   34.0670 H   0  0  0  0  0  0  0  0  0  0  0  0
   -2.3400   -2.3531   29.9157 H   0  0  0  0  0  0  0  0  0  0  0  0
    0.6900   -0.3276   28.8927 H   0  0  0  0  0  0  0  0  0  0  0  0
   -0.6782    0.7044   28.4266 H   0  0  0  0  0  0  0  0  0  0  0  0
   -0.6902   -1.0212   28.0233 H   0  0  0  0  0  0  0  0  0  0  0  0
   -4.6545   -3.7721   34.2148 H   0  0  0  0  0  0  0  0  0  0  0  0
   -7.1256   -6.8015   33.5471 H   0  0  0  0  0  0  0  0  0  0  0  0
   -7.2966   -6.7220   35.2094 H   0  0  0  0  0  0  0  0  0  0  0  0
   -2.6369   -7.5707   34.4577 H   0  0  0  0  0  0  0  0  0  0  0  0
   -2.0703   -9.8563   35.5766 H   0  0  0  0  0  0  0  0  0  0  0  0
   -6.0038   -9.3610   36.1975 H   0  0  0  0  0  0  0  0  0  0  0  0
  1  2  1  0
  2  3  1  0
  3  4  1  0
  4  5  1  0
  3  6  1  0
  6  7  1  0
  7  8  1  0
  8  9  2  0
  8 10  1  0
 10 11  1  0
 11 12  2  0
 12 13  1  0
 12 14  1  0
 14 15  1  0
  3 16  1  0
 16 17  1  0
 17 18  2  0
 17 19  1  0
 19 20  1  0
 20 21  2  0
 21 22  1  0
 22 23  2  0
 23 24  1  0
 15 10  2  0
 24 20  1  0
  1 25  1  0
  1 26  1  0
  1 27  1  0
  2 28  1  0
  2 29  1  0
  4 30  1  0
  4 31  1  0
  5 32  1  0
  5 33  1  0
  5 34  1  0
  6 35  1  0
  6 36  1  0
  7 37  1  0
 11 38  1  0
 13 39  1  0
 13 40  1  0
 13 41  1  0
 16 42  1  0
 19 43  1  0
 19 44  1  0
 21 45  1  0
 22 46  1  0
 24 47  1  0
M  END
>  <Energy>  (529) 
321.6125292783334

>  <compound_id>  (529) 
24251

>  <target_id>  (529) 
1

>  <reference_id>  (529) 
59

>  <inspiration_ids>  (529) 
[59, 96]

>  <energy_score>  (529) 
232.12290992955468

>  <distance_score>  (529) 
10.373080782777123

>  <path>  (529) 
/opt/xchem-fragalysis-2/maxwin/BulkDock/SCRATCH/511013/C24251-P59/C24251-P59.minimised.mol

>  <scratch_subdir>  (529) 
/opt/xchem-fragalysis-2/maxwin/BulkDock/SCRATCH/511013/C24251-P59

>  <fragmenstein_runtime>  (529) 
28.467191457748413

>  <fragmenstein_outcome>  (529) 
too moved

>  <fragmenstein_mode>  (529) 
expansion

>  <fragmenstein_error>  (529) 


$$$$
C24251-P96
     RDKit          3D

 47 48  0  0  0  0  0  0  0  0999 V2000
   -6.9602  -15.4915   26.4289 C   0  0  0  0  0  0  0  0  0  0  0  0
   -5.5430  -15.9215   26.1222 C   0  0  0  0  0  0  0  0  0  0  0  0
   -4.7551  -16.7724   27.1741 C   0  0  0  0  0  0  0  0  0  0  0  0
   -3.4226  -17.1712   26.5014 C   0  0  0  0  0  0  0  0  0  0  0  0
   -2.4359  -16.0206   26.2225 C   0  0  0  0  0  0  0  0  0  0  0  0
   -4.1846  -15.8417   28.4751 C   0  0  0  0  0  0  0  0  0  0  0  0
   -4.2436  -14.3096   28.4463 N   0  0  0  0  0  0  0  0  0  0  0  0
   -3.0557  -13.1659   28.0795 C   0  0  0  0  0  0  0  0  0  0  0  0
   -1.8818  -13.3488   27.8422 O   0  0  0  0  0  0  0  0  0  0  0  0
   -3.5907  -11.3514   27.9077 C   0  0  0  0  0  0  0  0  0  0  0  0
   -3.4470  -10.2045   27.0407 C   0  0  0  0  0  0  0  0  0  0  0  0
   -3.2120   -9.2955   28.1067 C   0  0  0  0  0  0  0  0  0  0  0  0
   -2.2527   -8.1335   28.5998 C   0  0  0  0  0  0  0  0  0  0  0  0
   -4.3664   -9.5564   28.8006 O   0  0  0  0  0  0  0  0  0  0  0  0
   -4.7966  -10.8075   28.4097 N   0  0  0  0  0  0  0  0  0  0  0  0
   -5.7336  -18.1546   27.4530 N   0  0  0  0  0  0  0  0  0  0  0  0
   -5.5014  -19.6531   27.1043 C   0  0  0  0  0  0  0  0  0  0  0  0
   -4.5313  -20.2024   26.6234 O   0  0  0  0  0  0  0  0  0  0  0  0
   -6.8794  -20.8825   27.3231 C   0  0  0  0  0  0  0  0  0  0  0  0
   -8.3486  -21.6642   28.2726 C   0  0  0  0  0  0  0  0  0  0  0  0
   -8.6950  -22.9289   28.8631 C   0  0  0  0  0  0  0  0  0  0  0  0
  -10.0736  -22.9666   29.1483 C   0  0  0  0  0  0  0  0  0  0  0  0
  -10.6692  -21.8236   28.8706 N   0  0  0  0  0  0  0  0  0  0  0  0
   -9.6793  -21.0375   28.4121 N   0  0  0  0  0  0  0  0  0  0  0  0
   -6.9678  -14.6076   27.0583 H   0  0  0  0  0  0  0  0  0  0  0  0
   -7.5536  -16.2743   26.9007 H   0  0  0  0  0  0  0  0  0  0  0  0
   -7.4698  -15.2091   25.5007 H   0  0  0  0  0  0  0  0  0  0  0  0
   -5.6249  -16.5479   25.2212 H   0  0  0  0  0  0  0  0  0  0  0  0
   -4.9700  -15.0557   25.7971 H   0  0  0  0  0  0  0  0  0  0  0  0
   -3.6338  -17.6804   25.5521 H   0  0  0  0  0  0  0  0  0  0  0  0
   -2.9116  -17.9172   27.1236 H   0  0  0  0  0  0  0  0  0  0  0  0
   -2.8939  -15.1559   25.7430 H   0  0  0  0  0  0  0  0  0  0  0  0
   -1.9019  -15.7157   27.1230 H   0  0  0  0  0  0  0  0  0  0  0  0
   -1.6644  -16.3875   25.5349 H   0  0  0  0  0  0  0  0  0  0  0  0
   -3.1788  -16.1411   28.7841 H   0  0  0  0  0  0  0  0  0  0  0  0
   -4.8481  -16.1031   29.3084 H   0  0  0  0  0  0  0  0  0  0  0  0
   -5.1093  -13.8385   28.6751 H   0  0  0  0  0  0  0  0  0  0  0  0
   -3.0442  -10.2042   26.0309 H   0  0  0  0  0  0  0  0  0  0  0  0
   -2.7737   -7.4751   29.3071 H   0  0  0  0  0  0  0  0  0  0  0  0
   -1.8171   -7.5575   27.7746 H   0  0  0  0  0  0  0  0  0  0  0  0
   -1.3715   -8.4952   29.1413 H   0  0  0  0  0  0  0  0  0  0  0  0
   -6.6863  -18.0275   27.7633 H   0  0  0  0  0  0  0  0  0  0  0  0
   -7.4190  -19.9694   27.4056 H   0  0  0  0  0  0  0  0  0  0  0  0
   -6.1955  -21.4342   27.9430 H   0  0  0  0  0  0  0  0  0  0  0  0
   -8.0685  -23.7699   29.1296 H   0  0  0  0  0  0  0  0  0  0  0  0
  -10.6493  -23.7764   29.5763 H   0  0  0  0  0  0  0  0  0  0  0  0
   -9.9348  -20.0860   28.1451 H   0  0  0  0  0  0  0  0  0  0  0  0
  1  2  1  0
  2  3  1  0
  3  4  1  0
  4  5  1  0
  3  6  1  0
  6  7  1  0
  7  8  1  0
  8  9  2  0
  8 10  1  0
 10 11  1  0
 11 12  2  0
 12 13  1  0
 12 14  1  0
 14 15  1  0
  3 16  1  0
 16 17  1  0
 17 18  2  0
 17 19  1  0
 19 20  1  0
 20 21  2  0
 21 22  1  0
 22 23  2  0
 23 24  1  0
 15 10  2  0
 24 20  1  0
  1 25  1  0
  1 26  1  0
  1 27  1  0
  2 28  1  0
  2 29  1  0
  4 30  1  0
  4 31  1  0
  5 32  1  0
  5 33  1  0
  5 34  1  0
  6 35  1  0
  6 36  1  0
  7 37  1  0
 11 38  1  0
 13 39  1  0
 13 40  1  0
 13 41  1  0
 16 42  1  0
 19 43  1  0
 19 44  1  0
 21 45  1  0
 22 46  1  0
 24 47  1  0
M  END
>  <Energy>  (530) 
406.37545429212656

>  <compound_id>  (530) 
24251

>  <target_id>  (530) 
1

>  <reference_id>  (530) 
96

>  <inspiration_ids>  (530) 
[59, 96]

>  <energy_score>  (530) 
316.88583494336604

>  <distance_score>  (530) 
11.342721143771845

>  <path>  (530) 
/opt/xchem-fragalysis-2/maxwin/BulkDock/SCRATCH/511013/C24251-P96/C24251-P96.minimised.mol

>  <scratch_subdir>  (530) 
/opt/xchem-fragalysis-2/maxwin/BulkDock/SCRATCH/511013/C24251-P96

>  <fragmenstein_runtime>  (530) 
16.006492376327515

>  <fragmenstein_outcome>  (530) 
too moved

>  <fragmenstein_mode>  (530) 
expansion

>  <fragmenstein_error>  (530) 


$$$$
C24256-P59
     RDKit          3D

 46 47  0  0  0  0  0  0  0  0999 V2000
   -2.3695    0.7184   34.1613 C   0  0  0  0  0  0  0  0  0  0  0  0
   -3.5475   -0.0819   34.5363 C   0  0  0  0  0  0  0  0  0  0  0  0
   -3.7618   -1.4263   34.6273 C   0  0  0  0  0  0  0  0  0  0  0  0
   -5.1214   -1.5668   35.0171 C   0  0  0  0  0  0  0  0  0  0  0  0
   -5.6877   -2.8137   35.0196 N   0  0  0  0  0  0  0  0  0  0  0  0
   -7.1958   -3.2907   35.3763 C   0  0  0  0  0  0  0  0  0  0  0  0
   -8.1369   -2.6394   35.8039 O   0  0  0  0  0  0  0  0  0  0  0  0
   -7.2953   -5.3468   35.0921 C   0  0  0  0  0  0  0  0  0  0  0  0
   -8.4440   -6.6291   34.3271 N   0  0  0  0  0  0  0  0  0  0  0  0
   -9.6442   -7.0270   32.9038 C   0  0  0  0  0  0  0  0  0  0  0  0
  -10.8430   -8.3854   31.8565 C   0  0  0  0  0  0  0  0  0  0  0  0
  -10.3880   -8.4762   29.8692 C   0  0  0  0  0  0  0  0  0  0  0  0
  -10.3592   -9.9956   32.8485 N   0  0  0  0  0  0  0  0  0  0  0  0
  -10.0055   -8.9726   33.3651 C   0  0  0  0  0  0  0  0  0  0  0  0
   -9.3637  -11.6769   32.3854 C   0  0  0  0  0  0  0  0  0  0  0  0
   -8.1554  -11.5911   32.5810 O   0  0  0  0  0  0  0  0  0  0  0  0
   -9.8656  -13.7720   31.9563 C   0  0  0  0  0  0  0  0  0  0  0  0
  -11.0617  -14.6157   30.4467 C   0  0  0  0  0  0  0  0  0  0  0  0
  -12.4849  -15.1902   30.8345 C   0  0  0  0  0  0  0  0  0  0  0  0
  -13.3561  -15.1211   29.7180 C   0  0  0  0  0  0  0  0  0  0  0  0
  -12.8122  -14.5470   28.6497 N   0  0  0  0  0  0  0  0  0  0  0  0
  -11.5490  -14.1561   28.9900 N   0  0  0  0  0  0  0  0  0  0  0  0
   -5.6844   -0.3746   35.1920 N   0  0  0  0  0  0  0  0  0  0  0  0
   -4.6965    0.5629   34.8755 O   0  0  0  0  0  0  0  0  0  0  0  0
   -1.5102    0.4420   34.7807 H   0  0  0  0  0  0  0  0  0  0  0  0
   -2.1040    0.5381   33.1162 H   0  0  0  0  0  0  0  0  0  0  0  0
   -2.5562    1.7854   34.3104 H   0  0  0  0  0  0  0  0  0  0  0  0
   -3.0425   -2.1982   34.4042 H   0  0  0  0  0  0  0  0  0  0  0  0
   -5.1329   -3.6151   34.7677 H   0  0  0  0  0  0  0  0  0  0  0  0
   -7.2262   -6.0421   35.8583 H   0  0  0  0  0  0  0  0  0  0  0  0
   -6.5293   -5.5822   34.3930 H   0  0  0  0  0  0  0  0  0  0  0  0
   -7.6489   -7.1556   33.9417 H   0  0  0  0  0  0  0  0  0  0  0  0
  -10.3097   -6.8488   33.7417 H   0  0  0  0  0  0  0  0  0  0  0  0
   -8.6924   -7.0067   32.4208 H   0  0  0  0  0  0  0  0  0  0  0  0
  -11.2391   -7.3459   31.8741 H   0  0  0  0  0  0  0  0  0  0  0  0
  -10.3174   -7.4304   29.5428 H   0  0  0  0  0  0  0  0  0  0  0  0
  -11.1836   -8.9614   29.2761 H   0  0  0  0  0  0  0  0  0  0  0  0
   -9.5247   -9.0743   29.5747 H   0  0  0  0  0  0  0  0  0  0  0  0
   -9.1790   -8.4519   33.6638 H   0  0  0  0  0  0  0  0  0  0  0  0
   -9.7534   -9.6375   34.1783 H   0  0  0  0  0  0  0  0  0  0  0  0
  -10.9669   -9.1875   33.8990 H   0  0  0  0  0  0  0  0  0  0  0  0
   -8.9161  -14.4010   32.0687 H   0  0  0  0  0  0  0  0  0  0  0  0
  -10.2649  -14.1981   32.9229 H   0  0  0  0  0  0  0  0  0  0  0  0
  -12.7995  -15.3922   31.8478 H   0  0  0  0  0  0  0  0  0  0  0  0
  -14.3974  -15.4112   29.6767 H   0  0  0  0  0  0  0  0  0  0  0  0
  -10.9321  -13.7704   28.2815 H   0  0  0  0  0  0  0  0  0  0  0  0
  1  2  1  0
  2  3  2  0
  3  4  1  0
  4  5  1  0
  5  6  1  0
  6  7  2  0
  6  8  1  0
  8  9  1  0
  9 10  1  0
 10 11  1  0
 11 12  1  0
 11 13  1  0
 13 14  1  0
 13 15  1  0
 15 16  2  0
 15 17  1  0
 17 18  1  0
 18 19  2  0
 19 20  1  0
 20 21  2  0
 21 22  1  0
  4 23  2  0
 23 24  1  0
 24  2  1  0
 22 18  1  0
  1 25  1  0
  1 26  1  0
  1 27  1  0
  3 28  1  0
  5 29  1  0
  8 30  1  0
  8 31  1  0
  9 32  1  0
 10 33  1  0
 10 34  1  0
 11 35  1  0
 12 36  1  0
 12 37  1  0
 12 38  1  0
 14 39  1  0
 14 40  1  0
 14 41  1  0
 17 42  1  0
 17 43  1  0
 19 44  1  0
 20 45  1  0
 22 46  1  0
M  END
>  <Energy>  (531) 
1328.7894935344

>  <compound_id>  (531) 
24256

>  <target_id>  (531) 
1

>  <reference_id>  (531) 
59

>  <inspiration_ids>  (531) 
[59, 96]

>  <energy_score>  (531) 
1215.5787593043112

>  <distance_score>  (531) 
7.670657375855173

>  <path>  (531) 
/opt/xchem-fragalysis-2/maxwin/BulkDock/SCRATCH/511013/C24256-P59/C24256-P59.minimised.mol

>  <scratch_subdir>  (531) 
/opt/xchem-fragalysis-2/maxwin/BulkDock/SCRATCH/511013/C24256-P59

>  <fragmenstein_runtime>  (531) 
21.88713550567627

>  <fragmenstein_outcome>  (531) 
too moved

>  <fragmenstein_mode>  (531) 
expansion

>  <fragmenstein_error>  (531) 


$$$$
C24256-P96
     RDKit          3D

 46 47  0  0  0  0  0  0  0  0999 V2000
   -0.7477   -2.5722   30.3856 C   0  0  0  0  0  0  0  0  0  0  0  0
   -1.6154   -3.3826   31.2644 C   0  0  0  0  0  0  0  0  0  0  0  0
   -2.1391   -4.6523   31.2103 C   0  0  0  0  0  0  0  0  0  0  0  0
   -3.0099   -4.7445   32.3307 C   0  0  0  0  0  0  0  0  0  0  0  0
   -3.8619   -5.8123   32.5373 N   0  0  0  0  0  0  0  0  0  0  0  0
   -5.1083   -5.9165   33.3222 C   0  0  0  0  0  0  0  0  0  0  0  0
   -5.6438   -5.1329   34.0324 O   0  0  0  0  0  0  0  0  0  0  0  0
   -5.7901   -7.1568   33.0737 C   0  0  0  0  0  0  0  0  0  0  0  0
   -7.2599   -7.8828   33.9071 N   0  0  0  0  0  0  0  0  0  0  0  0
   -8.5361   -9.0645   33.1689 C   0  0  0  0  0  0  0  0  0  0  0  0
   -8.9940  -10.6765   31.9992 C   0  0  0  0  0  0  0  0  0  0  0  0
   -8.3160   -9.6478   30.8255 C   0  0  0  0  0  0  0  0  0  0  0  0
   -8.9828  -12.5381   31.2720 N   0  0  0  0  0  0  0  0  0  0  0  0
  -10.2859  -12.7985   32.4522 C   0  0  0  0  0  0  0  0  0  0  0  0
   -7.7088  -13.0060   31.2462 C   0  0  0  0  0  0  0  0  0  0  0  0
   -7.0785  -13.6453   32.0776 O   0  0  0  0  0  0  0  0  0  0  0  0
   -6.7771  -12.3859   29.6114 C   0  0  0  0  0  0  0  0  0  0  0  0
   -6.0475  -13.1869   28.2065 C   0  0  0  0  0  0  0  0  0  0  0  0
   -4.8267  -13.6878   27.7949 C   0  0  0  0  0  0  0  0  0  0  0  0
   -5.0902  -14.4328   26.6235 C   0  0  0  0  0  0  0  0  0  0  0  0
   -6.3419  -14.2790   26.1995 N   0  0  0  0  0  0  0  0  0  0  0  0
   -6.8260  -13.3563   27.0487 N   0  0  0  0  0  0  0  0  0  0  0  0
   -2.9133   -3.6389   33.0645 N   0  0  0  0  0  0  0  0  0  0  0  0
   -2.0499   -2.7873   32.4031 O   0  0  0  0  0  0  0  0  0  0  0  0
    0.2491   -2.4678   30.8241 H   0  0  0  0  0  0  0  0  0  0  0  0
   -0.6491   -3.0333   29.3983 H   0  0  0  0  0  0  0  0  0  0  0  0
   -1.1695   -1.5716   30.2480 H   0  0  0  0  0  0  0  0  0  0  0  0
   -1.9755   -5.3751   30.4253 H   0  0  0  0  0  0  0  0  0  0  0  0
   -3.7491   -6.6443   31.9797 H   0  0  0  0  0  0  0  0  0  0  0  0
   -6.0018   -7.1383   31.9972 H   0  0  0  0  0  0  0  0  0  0  0  0
   -4.9128   -7.7931   33.2118 H   0  0  0  0  0  0  0  0  0  0  0  0
   -6.9947   -8.0795   34.8593 H   0  0  0  0  0  0  0  0  0  0  0  0
   -8.0171   -8.5656   32.4850 H   0  0  0  0  0  0  0  0  0  0  0  0
   -9.4036   -8.9629   33.7635 H   0  0  0  0  0  0  0  0  0  0  0  0
   -9.8830  -10.5887   31.4933 H   0  0  0  0  0  0  0  0  0  0  0  0
   -7.5236  -10.2284   30.3661 H   0  0  0  0  0  0  0  0  0  0  0  0
   -9.2949   -9.2513   30.4903 H   0  0  0  0  0  0  0  0  0  0  0  0
   -7.4407   -9.0032   30.8821 H   0  0  0  0  0  0  0  0  0  0  0  0
  -10.0870  -13.3103   33.4323 H   0  0  0  0  0  0  0  0  0  0  0  0
  -11.3755  -12.9701   32.2776 H   0  0  0  0  0  0  0  0  0  0  0  0
  -10.1465  -13.8218   32.1036 H   0  0  0  0  0  0  0  0  0  0  0  0
   -6.3028  -11.4171   29.5462 H   0  0  0  0  0  0  0  0  0  0  0  0
   -7.6413  -12.1355   29.0804 H   0  0  0  0  0  0  0  0  0  0  0  0
   -3.8653  -13.6196   28.2744 H   0  0  0  0  0  0  0  0  0  0  0  0
   -4.4106  -15.0547   26.0560 H   0  0  0  0  0  0  0  0  0  0  0  0
   -7.7598  -12.9918   26.8856 H   0  0  0  0  0  0  0  0  0  0  0  0
  1  2  1  0
  2  3  2  0
  3  4  1  0
  4  5  1  0
  5  6  1  0
  6  7  2  0
  6  8  1  0
  8  9  1  0
  9 10  1  0
 10 11  1  0
 11 12  1  0
 11 13  1  0
 13 14  1  0
 13 15  1  0
 15 16  2  0
 15 17  1  0
 17 18  1  0
 18 19  2  0
 19 20  1  0
 20 21  2  0
 21 22  1  0
  4 23  2  0
 23 24  1  0
 24  2  1  0
 22 18  1  0
  1 25  1  0
  1 26  1  0
  1 27  1  0
  3 28  1  0
  5 29  1  0
  8 30  1  0
  8 31  1  0
  9 32  1  0
 10 33  1  0
 10 34  1  0
 11 35  1  0
 12 36  1  0
 12 37  1  0
 12 38  1  0
 14 39  1  0
 14 40  1  0
 14 41  1  0
 17 42  1  0
 17 43  1  0
 19 44  1  0
 20 45  1  0
 22 46  1  0
M  END
>  <Energy>  (532) 
702.68012004884599

>  <compound_id>  (532) 
24256

>  <target_id>  (532) 
1

>  <reference_id>  (532) 
96

>  <inspiration_ids>  (532) 
[59, 96]

>  <energy_score>  (532) 
589.4693858187718

>  <distance_score>  (532) 
8.358870596075336

>  <path>  (532) 
/opt/xchem-fragalysis-2/maxwin/BulkDock/SCRATCH/511013/C24256-P96/C24256-P96.minimised.mol

>  <scratch_subdir>  (532) 
/opt/xchem-fragalysis-2/maxwin/BulkDock/SCRATCH/511013/C24256-P96

>  <fragmenstein_runtime>  (532) 
17.29240083694458

>  <fragmenstein_outcome>  (532) 
too moved

>  <fragmenstein_mode>  (532) 
expansion

>  <fragmenstein_error>  (532) 


$$$$
C24257-P59
     RDKit          3D

 44 45  0  0  0  0  0  0  0  0999 V2000
    0.8541   -6.5755   30.9785 C   0  0  0  0  0  0  0  0  0  0  0  0
    0.1143   -5.6643   31.8731 C   0  0  0  0  0  0  0  0  0  0  0  0
   -0.3101   -4.4992   31.3121 O   0  0  0  0  0  0  0  0  0  0  0  0
   -0.9522   -3.7396   32.2689 N   0  0  0  0  0  0  0  0  0  0  0  0
   -0.8871   -4.4665   33.3884 C   0  0  0  0  0  0  0  0  0  0  0  0
   -0.2591   -5.7218   33.2067 C   0  0  0  0  0  0  0  0  0  0  0  0
    0.0455   -6.8241   34.1404 C   0  0  0  0  0  0  0  0  0  0  0  0
    0.9532   -7.5519   33.8416 O   0  0  0  0  0  0  0  0  0  0  0  0
   -0.8002   -6.8212   35.2943 N   0  0  0  0  0  0  0  0  0  0  0  0
   -0.2072   -5.9391   36.3739 C   0  0  0  0  0  0  0  0  0  0  0  0
   -0.9003   -7.8137   36.4715 C   0  0  0  0  0  0  0  0  0  0  0  0
   -1.2986   -9.2842   36.0196 C   0  0  0  0  0  0  0  0  0  0  0  0
   -2.7123   -9.8970   35.7314 N   0  0  0  0  0  0  0  0  0  0  0  0
   -2.6858  -10.0888   37.2365 C   0  0  0  0  0  0  0  0  0  0  0  0
   -3.9164   -9.2910   35.3361 C   0  0  0  0  0  0  0  0  0  0  0  0
   -4.1891   -8.1351   35.2067 O   0  0  0  0  0  0  0  0  0  0  0  0
   -5.2849  -10.3030   34.7949 C   0  0  0  0  0  0  0  0  0  0  0  0
   -5.9953  -11.0872   33.2466 C   0  0  0  0  0  0  0  0  0  0  0  0
   -6.9572  -12.3986   32.6306 C   0  0  0  0  0  0  0  0  0  0  0  0
   -8.1822  -12.6170   33.0705 C   0  0  0  0  0  0  0  0  0  0  0  0
   -8.7444  -13.9299   32.8214 C   0  0  0  0  0  0  0  0  0  0  0  0
   -7.9513  -14.3991   31.8377 N   0  0  0  0  0  0  0  0  0  0  0  0
   -6.9147  -13.4815   31.6806 N   0  0  0  0  0  0  0  0  0  0  0  0
    1.0783   -6.0928   30.0228 H   0  0  0  0  0  0  0  0  0  0  0  0
    1.8073   -6.8732   31.4253 H   0  0  0  0  0  0  0  0  0  0  0  0
    0.2656   -7.4761   30.7787 H   0  0  0  0  0  0  0  0  0  0  0  0
   -1.2997   -4.0399   34.2902 H   0  0  0  0  0  0  0  0  0  0  0  0
    0.0131   -4.9745   35.8990 H   0  0  0  0  0  0  0  0  0  0  0  0
   -0.9067   -5.6608   37.1752 H   0  0  0  0  0  0  0  0  0  0  0  0
    0.7895   -6.2500   36.7233 H   0  0  0  0  0  0  0  0  0  0  0  0
    0.1075   -8.0222   36.8729 H   0  0  0  0  0  0  0  0  0  0  0  0
   -1.5485   -7.4799   37.2731 H   0  0  0  0  0  0  0  0  0  0  0  0
   -0.6317  -10.0250   36.5012 H   0  0  0  0  0  0  0  0  0  0  0  0
   -0.8972   -9.2595   35.0015 H   0  0  0  0  0  0  0  0  0  0  0  0
   -3.7179  -10.1238   37.6032 H   0  0  0  0  0  0  0  0  0  0  0  0
   -2.2089  -11.0413   37.4933 H   0  0  0  0  0  0  0  0  0  0  0  0
   -2.2305   -9.3351   37.8871 H   0  0  0  0  0  0  0  0  0  0  0  0
   -5.4597   -9.4377   34.1705 H   0  0  0  0  0  0  0  0  0  0  0  0
   -5.9659  -10.3563   35.6425 H   0  0  0  0  0  0  0  0  0  0  0  0
   -5.6867  -10.5843   32.3883 H   0  0  0  0  0  0  0  0  0  0  0  0
   -5.2004  -11.6788   33.3642 H   0  0  0  0  0  0  0  0  0  0  0  0
   -8.4788  -11.7832   33.5798 H   0  0  0  0  0  0  0  0  0  0  0  0
   -9.6609  -14.4313   33.1059 H   0  0  0  0  0  0  0  0  0  0  0  0
   -6.2552  -13.7535   30.9595 H   0  0  0  0  0  0  0  0  0  0  0  0
  1  2  1  0
  2  3  1  0
  3  4  1  0
  4  5  2  0
  5  6  1  0
  6  7  1  0
  7  8  2  0
  7  9  1  0
  9 10  1  0
  9 11  1  0
 11 12  1  0
 12 13  1  0
 13 14  1  0
 13 15  1  0
 15 16  2  0
 15 17  1  0
 17 18  1  0
 18 19  1  0
 19 20  2  0
 20 21  1  0
 21 22  2  0
 22 23  1  0
  6  2  2  0
 23 19  1  0
  1 24  1  0
  1 25  1  0
  1 26  1  0
  5 27  1  0
 10 28  1  0
 10 29  1  0
 10 30  1  0
 11 31  1  0
 11 32  1  0
 12 33  1  0
 12 34  1  0
 14 35  1  0
 14 36  1  0
 14 37  1  0
 17 38  1  0
 17 39  1  0
 18 40  1  0
 18 41  1  0
 20 42  1  0
 21 43  1  0
 23 44  1  0
M  END
>  <Energy>  (533) 
342.25188776627192

>  <compound_id>  (533) 
24257

>  <target_id>  (533) 
1

>  <reference_id>  (533) 
59

>  <inspiration_ids>  (533) 
[59, 96]

>  <energy_score>  (533) 
309.4938053227577

>  <distance_score>  (533) 
9.294184704943925

>  <path>  (533) 
/opt/xchem-fragalysis-2/maxwin/BulkDock/SCRATCH/511013/C24257-P59/C24257-P59.minimised.mol

>  <scratch_subdir>  (533) 
/opt/xchem-fragalysis-2/maxwin/BulkDock/SCRATCH/511013/C24257-P59

>  <fragmenstein_runtime>  (533) 
16.033886194229126

>  <fragmenstein_outcome>  (533) 
too moved

>  <fragmenstein_mode>  (533) 
expansion

>  <fragmenstein_error>  (533) 


$$$$
C24257-P96
     RDKit          3D

 44 45  0  0  0  0  0  0  0  0999 V2000
    0.6595   -0.7690   32.9200 C   0  0  0  0  0  0  0  0  0  0  0  0
    0.2460   -1.0235   31.5296 C   0  0  0  0  0  0  0  0  0  0  0  0
    0.5496   -0.0330   30.6451 O   0  0  0  0  0  0  0  0  0  0  0  0
    0.1763   -0.4151   29.3724 N   0  0  0  0  0  0  0  0  0  0  0  0
   -0.3350   -1.6376   29.5189 C   0  0  0  0  0  0  0  0  0  0  0  0
   -0.3751   -2.0654   30.8703 C   0  0  0  0  0  0  0  0  0  0  0  0
   -0.9031   -3.3173   31.4297 C   0  0  0  0  0  0  0  0  0  0  0  0
   -0.8211   -3.5384   32.6073 O   0  0  0  0  0  0  0  0  0  0  0  0
   -1.3834   -4.1309   30.3686 N   0  0  0  0  0  0  0  0  0  0  0  0
   -2.7837   -3.9022   30.1667 C   0  0  0  0  0  0  0  0  0  0  0  0
   -1.8497   -5.6021   30.3548 C   0  0  0  0  0  0  0  0  0  0  0  0
   -2.1633   -6.4855   31.6240 C   0  0  0  0  0  0  0  0  0  0  0  0
   -2.2612   -8.2841   31.6107 N   0  0  0  0  0  0  0  0  0  0  0  0
   -2.9390   -8.0282   32.8516 C   0  0  0  0  0  0  0  0  0  0  0  0
   -0.9429   -9.5716   31.8322 C   0  0  0  0  0  0  0  0  0  0  0  0
    0.2342   -9.3446   32.1273 O   0  0  0  0  0  0  0  0  0  0  0  0
   -1.1627  -11.3650   31.4831 C   0  0  0  0  0  0  0  0  0  0  0  0
   -0.6680  -12.2773   30.2545 C   0  0  0  0  0  0  0  0  0  0  0  0
   -1.3182  -13.6981   30.2141 C   0  0  0  0  0  0  0  0  0  0  0  0
   -1.4929  -14.6754   31.1803 C   0  0  0  0  0  0  0  0  0  0  0  0
   -2.2618  -15.6931   30.5754 C   0  0  0  0  0  0  0  0  0  0  0  0
   -2.5354  -15.4179   29.3007 N   0  0  0  0  0  0  0  0  0  0  0  0
   -1.9102  -14.2423   29.0881 N   0  0  0  0  0  0  0  0  0  0  0  0
    1.2940    0.1207   32.9899 H   0  0  0  0  0  0  0  0  0  0  0  0
   -0.2125   -0.6044   33.5549 H   0  0  0  0  0  0  0  0  0  0  0  0
    1.2357   -1.6131   33.3090 H   0  0  0  0  0  0  0  0  0  0  0  0
   -0.6655   -2.1678   28.6370 H   0  0  0  0  0  0  0  0  0  0  0  0
   -3.1634   -4.2780   29.2110 H   0  0  0  0  0  0  0  0  0  0  0  0
   -3.3403   -4.1322   31.0759 H   0  0  0  0  0  0  0  0  0  0  0  0
   -2.8917   -2.8147   30.0565 H   0  0  0  0  0  0  0  0  0  0  0  0
   -2.4009   -5.9542   29.4660 H   0  0  0  0  0  0  0  0  0  0  0  0
   -0.8696   -5.8856   30.1121 H   0  0  0  0  0  0  0  0  0  0  0  0
   -3.2225   -6.1899   31.6755 H   0  0  0  0  0  0  0  0  0  0  0  0
   -1.6804   -6.0549   32.4871 H   0  0  0  0  0  0  0  0  0  0  0  0
   -1.9624   -7.7718   33.1743 H   0  0  0  0  0  0  0  0  0  0  0  0
   -3.4034   -8.8597   33.3911 H   0  0  0  0  0  0  0  0  0  0  0  0
   -3.7098   -7.2444   32.9517 H   0  0  0  0  0  0  0  0  0  0  0  0
   -2.0606  -11.7906   31.9244 H   0  0  0  0  0  0  0  0  0  0  0  0
   -0.3740  -11.7846   32.1378 H   0  0  0  0  0  0  0  0  0  0  0  0
   -0.7691  -11.7481   29.2999 H   0  0  0  0  0  0  0  0  0  0  0  0
    0.4153  -12.4372   30.3591 H   0  0  0  0  0  0  0  0  0  0  0  0
   -1.1427  -14.6360   32.2019 H   0  0  0  0  0  0  0  0  0  0  0  0
   -2.6307  -16.6121   31.0124 H   0  0  0  0  0  0  0  0  0  0  0  0
   -1.9667  -13.8378   28.1594 H   0  0  0  0  0  0  0  0  0  0  0  0
  1  2  1  0
  2  3  1  0
  3  4  1  0
  4  5  2  0
  5  6  1  0
  6  7  1  0
  7  8  2  0
  7  9  1  0
  9 10  1  0
  9 11  1  0
 11 12  1  0
 12 13  1  0
 13 14  1  0
 13 15  1  0
 15 16  2  0
 15 17  1  0
 17 18  1  0
 18 19  1  0
 19 20  2  0
 20 21  1  0
 21 22  2  0
 22 23  1  0
  6  2  2  0
 23 19  1  0
  1 24  1  0
  1 25  1  0
  1 26  1  0
  5 27  1  0
 10 28  1  0
 10 29  1  0
 10 30  1  0
 11 31  1  0
 11 32  1  0
 12 33  1  0
 12 34  1  0
 14 35  1  0
 14 36  1  0
 14 37  1  0
 17 38  1  0
 17 39  1  0
 18 40  1  0
 18 41  1  0
 20 42  1  0
 21 43  1  0
 23 44  1  0
M  END
>  <Energy>  (534) 
315.33160133455181

>  <compound_id>  (534) 
24257

>  <target_id>  (534) 
1

>  <reference_id>  (534) 
96

>  <inspiration_ids>  (534) 
[59, 96]

>  <energy_score>  (534) 
282.57351889104905

>  <distance_score>  (534) 
8.795901194658622

>  <path>  (534) 
/opt/xchem-fragalysis-2/maxwin/BulkDock/SCRATCH/511013/C24257-P96/C24257-P96.minimised.mol

>  <scratch_subdir>  (534) 
/opt/xchem-fragalysis-2/maxwin/BulkDock/SCRATCH/511013/C24257-P96

>  <fragmenstein_runtime>  (534) 
11.686190843582153

>  <fragmenstein_outcome>  (534) 
too moved

>  <fragmenstein_mode>  (534) 
expansion

>  <fragmenstein_error>  (534) 


$$$$
C24258-P59
     RDKit          3D

 47 48  0  0  0  0  0  0  0  0999 V2000
   -1.1776   -0.0063   29.5614 C   0  0  0  0  0  0  0  0  0  0  0  0
   -2.0770   -0.6368   30.5458 C   0  0  0  0  0  0  0  0  0  0  0  0
   -2.5174   -1.9092   30.7532 C   0  0  0  0  0  0  0  0  0  0  0  0
   -3.3835   -1.8313   31.8988 C   0  0  0  0  0  0  0  0  0  0  0  0
   -3.6759   -3.0035   32.7202 C   0  0  0  0  0  0  0  0  0  0  0  0
   -2.6861   -3.7158   32.7962 O   0  0  0  0  0  0  0  0  0  0  0  0
   -5.0835   -3.1213   33.4325 N   0  0  0  0  0  0  0  0  0  0  0  0
   -5.0652   -2.3465   34.7391 C   0  0  0  0  0  0  0  0  0  0  0  0
   -5.8467   -4.5766   34.6241 C   0  0  0  0  0  0  0  0  0  0  0  0
   -6.5511   -6.5526   34.2687 C   0  0  0  0  0  0  0  0  0  0  0  0
   -7.6767   -6.4232   35.3153 C   0  0  0  0  0  0  0  0  0  0  0  0
   -7.5004   -6.7918   33.1203 C   0  0  0  0  0  0  0  0  0  0  0  0
   -5.4256   -8.4092   33.8856 C   0  0  0  0  0  0  0  0  0  0  0  0
   -5.7245  -10.2047   33.1055 N   0  0  0  0  0  0  0  0  0  0  0  0
   -6.9332  -11.3811   33.3522 C   0  0  0  0  0  0  0  0  0  0  0  0
   -7.8855  -11.4151   34.1750 O   0  0  0  0  0  0  0  0  0  0  0  0
   -7.0346  -12.7148   32.2847 C   0  0  0  0  0  0  0  0  0  0  0  0
   -6.3243  -14.1348   31.2966 C   0  0  0  0  0  0  0  0  0  0  0  0
   -5.3489  -15.1967   31.4172 C   0  0  0  0  0  0  0  0  0  0  0  0
   -5.2196  -16.0800   30.3641 C   0  0  0  0  0  0  0  0  0  0  0  0
   -5.9123  -15.5406   29.4056 N   0  0  0  0  0  0  0  0  0  0  0  0
   -6.3913  -14.2727   29.9371 N   0  0  0  0  0  0  0  0  0  0  0  0
   -3.4539   -0.5690   32.3395 N   0  0  0  0  0  0  0  0  0  0  0  0
   -2.5808    0.1442   31.5287 O   0  0  0  0  0  0  0  0  0  0  0  0
   -0.4452    0.6354   30.0606 H   0  0  0  0  0  0  0  0  0  0  0  0
   -1.7526    0.6042   28.8586 H   0  0  0  0  0  0  0  0  0  0  0  0
   -0.6323   -0.7627   28.9885 H   0  0  0  0  0  0  0  0  0  0  0  0
   -2.1979   -2.7897   30.2179 H   0  0  0  0  0  0  0  0  0  0  0  0
   -4.2272   -2.5683   35.4074 H   0  0  0  0  0  0  0  0  0  0  0  0
   -4.8257   -1.3211   34.4269 H   0  0  0  0  0  0  0  0  0  0  0  0
   -6.0494   -2.2027   35.1954 H   0  0  0  0  0  0  0  0  0  0  0  0
   -5.2760   -4.1178   35.3917 H   0  0  0  0  0  0  0  0  0  0  0  0
   -6.7429   -4.1717   35.1467 H   0  0  0  0  0  0  0  0  0  0  0  0
   -8.6563   -6.2051   34.9594 H   0  0  0  0  0  0  0  0  0  0  0  0
   -7.5732   -5.4740   35.7077 H   0  0  0  0  0  0  0  0  0  0  0  0
   -7.7443   -7.1256   36.1214 H   0  0  0  0  0  0  0  0  0  0  0  0
   -8.4570   -6.4176   33.1617 H   0  0  0  0  0  0  0  0  0  0  0  0
   -8.0765   -7.6515   33.2616 H   0  0  0  0  0  0  0  0  0  0  0  0
   -7.0296   -6.7692   32.1578 H   0  0  0  0  0  0  0  0  0  0  0  0
   -4.9325   -8.3419   32.8944 H   0  0  0  0  0  0  0  0  0  0  0  0
   -4.6802   -8.6098   34.6917 H   0  0  0  0  0  0  0  0  0  0  0  0
   -5.1807  -10.4488   32.3169 H   0  0  0  0  0  0  0  0  0  0  0  0
   -7.9250  -13.1878   32.7131 H   0  0  0  0  0  0  0  0  0  0  0  0
   -6.3994  -13.0312   33.0477 H   0  0  0  0  0  0  0  0  0  0  0  0
   -4.4666  -15.2407   31.9877 H   0  0  0  0  0  0  0  0  0  0  0  0
   -4.6011  -16.9514   30.2053 H   0  0  0  0  0  0  0  0  0  0  0  0
   -6.8771  -13.7259   29.2380 H   0  0  0  0  0  0  0  0  0  0  0  0
  1  2  1  0
  2  3  2  0
  3  4  1  0
  4  5  1  0
  5  6  2  0
  5  7  1  0
  7  8  1  0
  7  9  1  0
  9 10  1  0
 10 11  1  0
 10 12  1  0
 10 13  1  0
 13 14  1  0
 14 15  1  0
 15 16  2  0
 15 17  1  0
 17 18  1  0
 18 19  2  0
 19 20  1  0
 20 21  2  0
 21 22  1  0
  4 23  2  0
 23 24  1  0
 24  2  1  0
 22 18  1  0
  1 25  1  0
  1 26  1  0
  1 27  1  0
  3 28  1  0
  8 29  1  0
  8 30  1  0
  8 31  1  0
  9 32  1  0
  9 33  1  0
 11 34  1  0
 11 35  1  0
 11 36  1  0
 12 37  1  0
 12 38  1  0
 12 39  1  0
 13 40  1  0
 13 41  1  0
 14 42  1  0
 17 43  1  0
 17 44  1  0
 19 45  1  0
 20 46  1  0
 22 47  1  0
M  END
>  <Energy>  (535) 
823.1975799484967

>  <compound_id>  (535) 
24258

>  <target_id>  (535) 
1

>  <reference_id>  (535) 
59

>  <inspiration_ids>  (535) 
[59, 96]

>  <energy_score>  (535) 
725.4772173409842

>  <distance_score>  (535) 
7.215108953432573

>  <path>  (535) 
/opt/xchem-fragalysis-2/maxwin/BulkDock/SCRATCH/511013/C24258-P59/C24258-P59.minimised.mol

>  <scratch_subdir>  (535) 
/opt/xchem-fragalysis-2/maxwin/BulkDock/SCRATCH/511013/C24258-P59

>  <fragmenstein_runtime>  (535) 
21.049865007400513

>  <fragmenstein_outcome>  (535) 
too moved

>  <fragmenstein_mode>  (535) 
expansion

>  <fragmenstein_error>  (535) 


$$$$
C24258-P96
     RDKit          3D

 47 48  0  0  0  0  0  0  0  0999 V2000
   -0.9261   -2.9697   27.3688 C   0  0  0  0  0  0  0  0  0  0  0  0
   -1.5826   -3.7363   28.4421 C   0  0  0  0  0  0  0  0  0  0  0  0
   -1.7541   -5.0736   28.7149 C   0  0  0  0  0  0  0  0  0  0  0  0
   -2.4331   -5.1198   29.9601 C   0  0  0  0  0  0  0  0  0  0  0  0
   -2.6910   -6.3053   30.8425 C   0  0  0  0  0  0  0  0  0  0  0  0
   -1.9963   -7.2720   30.6969 O   0  0  0  0  0  0  0  0  0  0  0  0
   -3.7154   -6.0264   31.8189 N   0  0  0  0  0  0  0  0  0  0  0  0
   -3.1489   -5.3773   32.9297 C   0  0  0  0  0  0  0  0  0  0  0  0
   -4.4501   -7.0954   33.1266 C   0  0  0  0  0  0  0  0  0  0  0  0
   -6.4019   -7.2531   33.0780 C   0  0  0  0  0  0  0  0  0  0  0  0
   -6.1203   -6.1484   34.2050 C   0  0  0  0  0  0  0  0  0  0  0  0
   -5.8846   -6.9995   31.6093 C   0  0  0  0  0  0  0  0  0  0  0  0
   -8.0804   -8.6609   33.0127 C   0  0  0  0  0  0  0  0  0  0  0  0
   -8.7891   -9.9152   31.5046 N   0  0  0  0  0  0  0  0  0  0  0  0
   -9.7480  -11.6524   31.5119 C   0  0  0  0  0  0  0  0  0  0  0  0
  -10.2186  -12.3268   32.4607 O   0  0  0  0  0  0  0  0  0  0  0  0
  -10.0320  -12.7484   29.6740 C   0  0  0  0  0  0  0  0  0  0  0  0
  -11.5729  -13.2353   28.4983 C   0  0  0  0  0  0  0  0  0  0  0  0
  -12.7975  -13.8943   28.7657 C   0  0  0  0  0  0  0  0  0  0  0  0
  -13.3863  -14.2564   27.5515 C   0  0  0  0  0  0  0  0  0  0  0  0
  -12.6270  -13.9154   26.5180 N   0  0  0  0  0  0  0  0  0  0  0  0
  -11.5936  -13.2496   27.0708 N   0  0  0  0  0  0  0  0  0  0  0  0
   -2.6430   -3.8598   30.3917 N   0  0  0  0  0  0  0  0  0  0  0  0
   -2.1319   -3.0095   29.4431 O   0  0  0  0  0  0  0  0  0  0  0  0
   -1.1120   -3.4384   26.3982 H   0  0  0  0  0  0  0  0  0  0  0  0
    0.1538   -2.9246   27.5361 H   0  0  0  0  0  0  0  0  0  0  0  0
   -1.3082   -1.9451   27.3231 H   0  0  0  0  0  0  0  0  0  0  0  0
   -1.3661   -5.9058   28.1479 H   0  0  0  0  0  0  0  0  0  0  0  0
   -2.0635   -5.4119   32.8511 H   0  0  0  0  0  0  0  0  0  0  0  0
   -3.2906   -4.3159   32.6771 H   0  0  0  0  0  0  0  0  0  0  0  0
   -3.5036   -5.3345   33.9218 H   0  0  0  0  0  0  0  0  0  0  0  0
   -4.1806   -6.8203   34.1399 H   0  0  0  0  0  0  0  0  0  0  0  0
   -3.8866   -8.0290   33.1609 H   0  0  0  0  0  0  0  0  0  0  0  0
   -5.7428   -6.5969   35.0997 H   0  0  0  0  0  0  0  0  0  0  0  0
   -6.7178   -5.2866   34.4559 H   0  0  0  0  0  0  0  0  0  0  0  0
   -5.4343   -5.4584   33.7453 H   0  0  0  0  0  0  0  0  0  0  0  0
   -5.0072   -7.0596   30.9775 H   0  0  0  0  0  0  0  0  0  0  0  0
   -6.2986   -6.1179   31.1309 H   0  0  0  0  0  0  0  0  0  0  0  0
   -6.0000   -8.0154   31.2305 H   0  0  0  0  0  0  0  0  0  0  0  0
   -7.8763   -8.5983   34.0686 H   0  0  0  0  0  0  0  0  0  0  0  0
   -9.0563   -8.7741   33.4197 H   0  0  0  0  0  0  0  0  0  0  0  0
   -8.6106   -9.5965   30.5799 H   0  0  0  0  0  0  0  0  0  0  0  0
  -10.9781  -13.5335   30.1121 H   0  0  0  0  0  0  0  0  0  0  0  0
   -9.2371  -12.8708   28.9332 H   0  0  0  0  0  0  0  0  0  0  0  0
  -13.1376  -14.1180   29.7541 H   0  0  0  0  0  0  0  0  0  0  0  0
  -14.3181  -14.7785   27.3798 H   0  0  0  0  0  0  0  0  0  0  0  0
  -10.8631  -12.9049   26.4558 H   0  0  0  0  0  0  0  0  0  0  0  0
  1  2  1  0
  2  3  2  0
  3  4  1  0
  4  5  1  0
  5  6  2  0
  5  7  1  0
  7  8  1  0
  7  9  1  0
  9 10  1  0
 10 11  1  0
 10 12  1  0
 10 13  1  0
 13 14  1  0
 14 15  1  0
 15 16  2  0
 15 17  1  0
 17 18  1  0
 18 19  2  0
 19 20  1  0
 20 21  2  0
 21 22  1  0
  4 23  2  0
 23 24  1  0
 24  2  1  0
 22 18  1  0
  1 25  1  0
  1 26  1  0
  1 27  1  0
  3 28  1  0
  8 29  1  0
  8 30  1  0
  8 31  1  0
  9 32  1  0
  9 33  1  0
 11 34  1  0
 11 35  1  0
 11 36  1  0
 12 37  1  0
 12 38  1  0
 12 39  1  0
 13 40  1  0
 13 41  1  0
 14 42  1  0
 17 43  1  0
 17 44  1  0
 19 45  1  0
 20 46  1  0
 22 47  1  0
M  END
>  <Energy>  (536) 
1040.8836036632265

>  <compound_id>  (536) 
24258

>  <target_id>  (536) 
1

>  <reference_id>  (536) 
96

>  <inspiration_ids>  (536) 
[59, 96]

>  <energy_score>  (536) 
943.1632410557206

>  <distance_score>  (536) 
7.770390569263589

>  <path>  (536) 
/opt/xchem-fragalysis-2/maxwin/BulkDock/SCRATCH/511013/C24258-P96/C24258-P96.minimised.mol

>  <scratch_subdir>  (536) 
/opt/xchem-fragalysis-2/maxwin/BulkDock/SCRATCH/511013/C24258-P96

>  <fragmenstein_runtime>  (536) 
12.521972417831421

>  <fragmenstein_outcome>  (536) 
too moved

>  <fragmenstein_mode>  (536) 
expansion

>  <fragmenstein_error>  (536) 


$$$$
C24259-P59
     RDKit          3D

 46 47  0  0  0  0  0  0  0  0999 V2000
   -6.0834    0.5519   35.0390 C   0  0  0  0  0  0  0  0  0  0  0  0
   -6.6058   -0.7834   35.3911 C   0  0  0  0  0  0  0  0  0  0  0  0
   -6.1779   -2.0383   35.0870 C   0  0  0  0  0  0  0  0  0  0  0  0
   -7.1955   -2.9201   35.6360 C   0  0  0  0  0  0  0  0  0  0  0  0
   -7.2031   -4.6810   35.2992 N   0  0  0  0  0  0  0  0  0  0  0  0
   -6.5207   -5.5251   34.1444 C   0  0  0  0  0  0  0  0  0  0  0  0
   -5.7554   -5.0522   33.3458 O   0  0  0  0  0  0  0  0  0  0  0  0
   -6.8797   -7.1615   33.6922 C   0  0  0  0  0  0  0  0  0  0  0  0
   -5.3788   -8.5255   33.6344 N   0  0  0  0  0  0  0  0  0  0  0  0
   -5.6438  -10.4213   33.4421 C   0  0  0  0  0  0  0  0  0  0  0  0
   -4.5708  -10.6216   34.9965 C   0  0  0  0  0  0  0  0  0  0  0  0
   -6.5137  -12.2081   32.6907 C   0  0  0  0  0  0  0  0  0  0  0  0
   -6.1665  -13.9068   31.5830 N   0  0  0  0  0  0  0  0  0  0  0  0
   -7.4638  -13.8135   31.8252 C   0  0  0  0  0  0  0  0  0  0  0  0
   -5.1186  -15.2673   31.9020 C   0  0  0  0  0  0  0  0  0  0  0  0
   -5.3402  -16.3082   32.4711 O   0  0  0  0  0  0  0  0  0  0  0  0
   -3.6269  -15.3021   31.2774 C   0  0  0  0  0  0  0  0  0  0  0  0
   -3.4316  -16.7491   30.7826 C   0  0  0  0  0  0  0  0  0  0  0  0
   -2.6790  -17.8002   31.2643 C   0  0  0  0  0  0  0  0  0  0  0  0
   -2.9153  -18.8580   30.3720 C   0  0  0  0  0  0  0  0  0  0  0  0
   -3.7443  -18.5108   29.3887 N   0  0  0  0  0  0  0  0  0  0  0  0
   -4.1274  -17.2640   29.7137 N   0  0  0  0  0  0  0  0  0  0  0  0
   -8.0901   -2.2258   36.3527 N   0  0  0  0  0  0  0  0  0  0  0  0
   -7.7271   -0.8767   36.1629 O   0  0  0  0  0  0  0  0  0  0  0  0
   -6.8335    1.3271   35.2208 H   0  0  0  0  0  0  0  0  0  0  0  0
   -5.2015    0.7845   35.6438 H   0  0  0  0  0  0  0  0  0  0  0  0
   -5.7946    0.5875   33.9845 H   0  0  0  0  0  0  0  0  0  0  0  0
   -5.2979   -2.2970   34.5136 H   0  0  0  0  0  0  0  0  0  0  0  0
   -7.8700   -5.2867   35.7830 H   0  0  0  0  0  0  0  0  0  0  0  0
   -7.0872   -7.0240   32.6120 H   0  0  0  0  0  0  0  0  0  0  0  0
   -7.9624   -7.2573   33.9576 H   0  0  0  0  0  0  0  0  0  0  0  0
   -5.2487   -8.4860   34.6548 H   0  0  0  0  0  0  0  0  0  0  0  0
   -6.3501  -10.1101   34.0964 H   0  0  0  0  0  0  0  0  0  0  0  0
   -5.1820  -10.4741   35.8971 H   0  0  0  0  0  0  0  0  0  0  0  0
   -3.7851   -9.8502   35.0458 H   0  0  0  0  0  0  0  0  0  0  0  0
   -4.0687  -11.5965   34.9721 H   0  0  0  0  0  0  0  0  0  0  0  0
   -6.9525  -11.7576   31.8232 H   0  0  0  0  0  0  0  0  0  0  0  0
   -7.4748  -12.2052   33.2388 H   0  0  0  0  0  0  0  0  0  0  0  0
   -7.7485  -13.9333   30.7982 H   0  0  0  0  0  0  0  0  0  0  0  0
   -8.1670  -13.5807   32.6469 H   0  0  0  0  0  0  0  0  0  0  0  0
   -7.7644  -14.8151   32.0136 H   0  0  0  0  0  0  0  0  0  0  0  0
   -3.3695  -14.7497   30.3750 H   0  0  0  0  0  0  0  0  0  0  0  0
   -2.9074  -15.0955   32.0788 H   0  0  0  0  0  0  0  0  0  0  0  0
   -2.0402  -17.7959   32.1354 H   0  0  0  0  0  0  0  0  0  0  0  0
   -2.4990  -19.8565   30.3850 H   0  0  0  0  0  0  0  0  0  0  0  0
   -4.8431  -16.8176   29.1474 H   0  0  0  0  0  0  0  0  0  0  0  0
  1  2  1  0
  2  3  2  0
  3  4  1  0
  4  5  1  0
  5  6  1  0
  6  7  2  0
  6  8  1  0
  8  9  1  0
  9 10  1  0
 10 11  1  0
 10 12  1  0
 12 13  1  0
 13 14  1  0
 13 15  1  0
 15 16  2  0
 15 17  1  0
 17 18  1  0
 18 19  2  0
 19 20  1  0
 20 21  2  0
 21 22  1  0
  4 23  2  0
 23 24  1  0
 24  2  1  0
 22 18  1  0
  1 25  1  0
  1 26  1  0
  1 27  1  0
  3 28  1  0
  5 29  1  0
  8 30  1  0
  8 31  1  0
  9 32  1  0
 10 33  1  0
 11 34  1  0
 11 35  1  0
 11 36  1  0
 12 37  1  0
 12 38  1  0
 14 39  1  0
 14 40  1  0
 14 41  1  0
 17 42  1  0
 17 43  1  0
 19 44  1  0
 20 45  1  0
 22 46  1  0
M  END
>  <Energy>  (537) 
792.92944633916193

>  <compound_id>  (537) 
24259

>  <target_id>  (537) 
1

>  <reference_id>  (537) 
59

>  <inspiration_ids>  (537) 
[59, 96]

>  <energy_score>  (537) 
679.3960013128598

>  <distance_score>  (537) 
8.808700155208077

>  <path>  (537) 
/opt/xchem-fragalysis-2/maxwin/BulkDock/SCRATCH/511013/C24259-P59/C24259-P59.minimised.mol

>  <scratch_subdir>  (537) 
/opt/xchem-fragalysis-2/maxwin/BulkDock/SCRATCH/511013/C24259-P59

>  <fragmenstein_runtime>  (537) 
19.73049569129944

>  <fragmenstein_outcome>  (537) 
too moved

>  <fragmenstein_mode>  (537) 
expansion

>  <fragmenstein_error>  (537) 


$$$$
C24259-P96
     RDKit          3D

 46 47  0  0  0  0  0  0  0  0999 V2000
   -1.5931   -5.3607   28.3940 C   0  0  0  0  0  0  0  0  0  0  0  0
   -1.1766   -6.7823   28.2787 C   0  0  0  0  0  0  0  0  0  0  0  0
   -0.9288   -7.6661   27.2343 C   0  0  0  0  0  0  0  0  0  0  0  0
   -0.9558   -8.9522   27.8573 C   0  0  0  0  0  0  0  0  0  0  0  0
   -2.2275   -9.4273   27.8976 N   0  0  0  0  0  0  0  0  0  0  0  0
   -2.7579  -10.7605   27.6696 C   0  0  0  0  0  0  0  0  0  0  0  0
   -2.2178  -11.7632   27.3097 O   0  0  0  0  0  0  0  0  0  0  0  0
   -4.2759  -10.5064   27.9918 C   0  0  0  0  0  0  0  0  0  0  0  0
   -5.5990  -11.1352   28.3706 N   0  0  0  0  0  0  0  0  0  0  0  0
   -6.2427  -12.7543   28.6129 C   0  0  0  0  0  0  0  0  0  0  0  0
   -7.0741  -12.2302   29.7794 C   0  0  0  0  0  0  0  0  0  0  0  0
   -5.6309  -14.6524   28.4636 C   0  0  0  0  0  0  0  0  0  0  0  0
   -5.9514  -16.0919   27.2604 N   0  0  0  0  0  0  0  0  0  0  0  0
   -5.1665  -15.2203   26.4775 C   0  0  0  0  0  0  0  0  0  0  0  0
   -7.4864  -16.5446   27.1084 C   0  0  0  0  0  0  0  0  0  0  0  0
   -8.2893  -16.1110   26.3049 O   0  0  0  0  0  0  0  0  0  0  0  0
   -8.2569  -18.0259   28.0731 C   0  0  0  0  0  0  0  0  0  0  0  0
   -9.6781  -19.2860   29.0146 C   0  0  0  0  0  0  0  0  0  0  0  0
  -10.2431  -19.5930   30.3191 C   0  0  0  0  0  0  0  0  0  0  0  0
  -11.0458  -20.7469   30.2749 C   0  0  0  0  0  0  0  0  0  0  0  0
  -11.0305  -21.2935   29.0791 N   0  0  0  0  0  0  0  0  0  0  0  0
  -10.2470  -20.4641   28.3636 N   0  0  0  0  0  0  0  0  0  0  0  0
   -0.4277   -8.7296   29.0791 N   0  0  0  0  0  0  0  0  0  0  0  0
   -0.9331   -7.4611   29.4318 O   0  0  0  0  0  0  0  0  0  0  0  0
   -2.3503   -5.2514   29.1772 H   0  0  0  0  0  0  0  0  0  0  0  0
   -0.7629   -4.6967   28.6318 H   0  0  0  0  0  0  0  0  0  0  0  0
   -2.0313   -5.0145   27.4523 H   0  0  0  0  0  0  0  0  0  0  0  0
   -1.0966   -7.4438   26.1916 H   0  0  0  0  0  0  0  0  0  0  0  0
   -2.9460   -8.8493   28.2749 H   0  0  0  0  0  0  0  0  0  0  0  0
   -4.3525   -9.6879   28.6817 H   0  0  0  0  0  0  0  0  0  0  0  0
   -4.4229  -10.1054   27.0135 H   0  0  0  0  0  0  0  0  0  0  0  0
   -6.1583  -10.8629   27.5516 H   0  0  0  0  0  0  0  0  0  0  0  0
   -6.9058  -12.7342   27.7156 H   0  0  0  0  0  0  0  0  0  0  0  0
   -7.9977  -12.2495   29.2946 H   0  0  0  0  0  0  0  0  0  0  0  0
   -7.4894  -12.7786   30.6264 H   0  0  0  0  0  0  0  0  0  0  0  0
   -6.9677  -11.1921   30.0779 H   0  0  0  0  0  0  0  0  0  0  0  0
   -4.5319  -14.5307   28.4743 H   0  0  0  0  0  0  0  0  0  0  0  0
   -5.6519  -15.1367   29.4568 H   0  0  0  0  0  0  0  0  0  0  0  0
   -5.7892  -14.6694   25.7773 H   0  0  0  0  0  0  0  0  0  0  0  0
   -4.8439  -15.9495   25.7066 H   0  0  0  0  0  0  0  0  0  0  0  0
   -4.1421  -14.9856   26.7722 H   0  0  0  0  0  0  0  0  0  0  0  0
   -9.0950  -17.5291   27.5948 H   0  0  0  0  0  0  0  0  0  0  0  0
   -7.3500  -18.6328   27.6919 H   0  0  0  0  0  0  0  0  0  0  0  0
  -10.0666  -19.0867   31.2560 H   0  0  0  0  0  0  0  0  0  0  0  0
  -11.5918  -21.2213   31.0786 H   0  0  0  0  0  0  0  0  0  0  0  0
  -10.4038  -20.4918   27.3744 H   0  0  0  0  0  0  0  0  0  0  0  0
  1  2  1  0
  2  3  2  0
  3  4  1  0
  4  5  1  0
  5  6  1  0
  6  7  2  0
  6  8  1  0
  8  9  1  0
  9 10  1  0
 10 11  1  0
 10 12  1  0
 12 13  1  0
 13 14  1  0
 13 15  1  0
 15 16  2  0
 15 17  1  0
 17 18  1  0
 18 19  2  0
 19 20  1  0
 20 21  2  0
 21 22  1  0
  4 23  2  0
 23 24  1  0
 24  2  1  0
 22 18  1  0
  1 25  1  0
  1 26  1  0
  1 27  1  0
  3 28  1  0
  5 29  1  0
  8 30  1  0
  8 31  1  0
  9 32  1  0
 10 33  1  0
 11 34  1  0
 11 35  1  0
 11 36  1  0
 12 37  1  0
 12 38  1  0
 14 39  1  0
 14 40  1  0
 14 41  1  0
 17 42  1  0
 17 43  1  0
 19 44  1  0
 20 45  1  0
 22 46  1  0
M  END
>  <Energy>  (538) 
714.32627723443454

>  <compound_id>  (538) 
24259

>  <target_id>  (538) 
1

>  <reference_id>  (538) 
96

>  <inspiration_ids>  (538) 
[59, 96]

>  <energy_score>  (538) 
600.7928322081316

>  <distance_score>  (538) 
8.445858896203656

>  <path>  (538) 
/opt/xchem-fragalysis-2/maxwin/BulkDock/SCRATCH/511013/C24259-P96/C24259-P96.minimised.mol

>  <scratch_subdir>  (538) 
/opt/xchem-fragalysis-2/maxwin/BulkDock/SCRATCH/511013/C24259-P96

>  <fragmenstein_runtime>  (538) 
17.358107089996338

>  <fragmenstein_outcome>  (538) 
too moved

>  <fragmenstein_mode>  (538) 
expansion

>  <fragmenstein_error>  (538) 


$$$$
C24262-P59
     RDKit          3D

 47 48  0  0  0  0  0  0  0  0999 V2000
   -4.1362   -0.8603   36.5881 C   0  0  0  0  0  0  0  0  0  0  0  0
   -5.5875   -1.0201   36.3701 C   0  0  0  0  0  0  0  0  0  0  0  0
   -6.3626    0.0400   36.7042 O   0  0  0  0  0  0  0  0  0  0  0  0
   -7.6781   -0.2411   36.3897 N   0  0  0  0  0  0  0  0  0  0  0  0
   -7.6646   -1.4513   35.8270 C   0  0  0  0  0  0  0  0  0  0  0  0
   -6.3826   -2.0215   35.8392 C   0  0  0  0  0  0  0  0  0  0  0  0
   -5.8153   -3.2392   35.1367 C   0  0  0  0  0  0  0  0  0  0  0  0
   -4.8266   -2.9297   34.5177 O   0  0  0  0  0  0  0  0  0  0  0  0
   -6.7392   -4.8758   35.2098 N   0  0  0  0  0  0  0  0  0  0  0  0
   -6.4891   -6.5178   34.2242 C   0  0  0  0  0  0  0  0  0  0  0  0
   -5.3522   -8.4124   33.8561 C   0  0  0  0  0  0  0  0  0  0  0  0
   -6.1266  -10.2658   34.1038 N   0  0  0  0  0  0  0  0  0  0  0  0
   -6.6955  -11.5454   32.8720 C   0  0  0  0  0  0  0  0  0  0  0  0
   -6.6006  -11.5352   31.6671 O   0  0  0  0  0  0  0  0  0  0  0  0
   -7.6093  -12.8575   33.3219 C   0  0  0  0  0  0  0  0  0  0  0  0
   -9.0335  -14.1724   32.9394 C   0  0  0  0  0  0  0  0  0  0  0  0
   -9.9499  -15.4811   33.7839 C   0  0  0  0  0  0  0  0  0  0  0  0
   -9.7309  -16.8030   34.2745 C   0  0  0  0  0  0  0  0  0  0  0  0
  -10.8521  -17.2144   35.0392 C   0  0  0  0  0  0  0  0  0  0  0  0
  -11.8312  -16.3182   34.9405 N   0  0  0  0  0  0  0  0  0  0  0  0
  -11.3206  -15.4601   34.0173 N   0  0  0  0  0  0  0  0  0  0  0  0
   -5.7912   -5.1559   32.8217 C   0  0  0  0  0  0  0  0  0  0  0  0
   -4.9784   -3.4999   32.2741 C   0  0  0  0  0  0  0  0  0  0  0  0
   -6.6486   -6.4539   31.8966 C   0  0  0  0  0  0  0  0  0  0  0  0
   -3.6433   -0.5514   35.6613 H   0  0  0  0  0  0  0  0  0  0  0  0
   -3.9337   -0.1024   37.3514 H   0  0  0  0  0  0  0  0  0  0  0  0
   -3.6865   -1.7996   36.9238 H   0  0  0  0  0  0  0  0  0  0  0  0
   -8.5859   -1.8181   35.4009 H   0  0  0  0  0  0  0  0  0  0  0  0
   -7.5578   -4.8040   35.7819 H   0  0  0  0  0  0  0  0  0  0  0  0
   -7.5667   -6.7020   34.0680 H   0  0  0  0  0  0  0  0  0  0  0  0
   -4.6216   -8.4869   34.6984 H   0  0  0  0  0  0  0  0  0  0  0  0
   -4.8714   -8.5678   32.8741 H   0  0  0  0  0  0  0  0  0  0  0  0
   -6.2727  -10.5974   35.0526 H   0  0  0  0  0  0  0  0  0  0  0  0
   -8.4025  -12.1258   33.1667 H   0  0  0  0  0  0  0  0  0  0  0  0
   -7.2382  -13.2255   32.3362 H   0  0  0  0  0  0  0  0  0  0  0  0
   -9.8734  -13.5642   32.7534 H   0  0  0  0  0  0  0  0  0  0  0  0
   -8.5948  -14.6720   32.0938 H   0  0  0  0  0  0  0  0  0  0  0  0
   -8.8970  -17.4412   34.1119 H   0  0  0  0  0  0  0  0  0  0  0  0
  -10.9949  -18.1118   35.6221 H   0  0  0  0  0  0  0  0  0  0  0  0
  -11.9727  -15.1920   33.2973 H   0  0  0  0  0  0  0  0  0  0  0  0
   -5.5574   -4.7596   33.7187 H   0  0  0  0  0  0  0  0  0  0  0  0
   -4.8701   -3.4056   31.2024 H   0  0  0  0  0  0  0  0  0  0  0  0
   -5.6035   -2.6157   32.4844 H   0  0  0  0  0  0  0  0  0  0  0  0
   -3.9630   -3.3098   32.6286 H   0  0  0  0  0  0  0  0  0  0  0  0
   -6.5898   -6.1450   30.8798 H   0  0  0  0  0  0  0  0  0  0  0  0
   -6.1153   -7.3398   31.9012 H   0  0  0  0  0  0  0  0  0  0  0  0
   -7.6137   -6.7175   32.3295 H   0  0  0  0  0  0  0  0  0  0  0  0
  1  2  1  0
  2  3  1  0
  3  4  1  0
  4  5  2  0
  5  6  1  0
  6  7  1  0
  7  8  2  0
  7  9  1  0
  9 10  1  0
 10 11  1  0
 11 12  1  0
 12 13  1  0
 13 14  2  0
 13 15  1  0
 15 16  1  0
 16 17  1  0
 17 18  2  0
 18 19  1  0
 19 20  2  0
 20 21  1  0
 10 22  1  0
 22 23  1  0
 22 24  1  0
  6  2  2  0
 21 17  1  0
  1 25  1  0
  1 26  1  0
  1 27  1  0
  5 28  1  0
  9 29  1  0
 10 30  1  0
 11 31  1  0
 11 32  1  0
 12 33  1  0
 15 34  1  0
 15 35  1  0
 16 36  1  0
 16 37  1  0
 18 38  1  0
 19 39  1  0
 21 40  1  0
 22 41  1  0
 23 42  1  0
 23 43  1  0
 23 44  1  0
 24 45  1  0
 24 46  1  0
 24 47  1  0
M  END
>  <Energy>  (539) 
937.12431384033414

>  <compound_id>  (539) 
24262

>  <target_id>  (539) 
1

>  <reference_id>  (539) 
59

>  <inspiration_ids>  (539) 
[59, 96]

>  <energy_score>  (539) 
891.8357259557166

>  <distance_score>  (539) 
8.522552468349504

>  <path>  (539) 
/opt/xchem-fragalysis-2/maxwin/BulkDock/SCRATCH/511013/C24262-P59/C24262-P59.minimised.mol

>  <scratch_subdir>  (539) 
/opt/xchem-fragalysis-2/maxwin/BulkDock/SCRATCH/511013/C24262-P59

>  <fragmenstein_runtime>  (539) 
25.11170506477356

>  <fragmenstein_outcome>  (539) 
too moved

>  <fragmenstein_mode>  (539) 
expansion

>  <fragmenstein_error>  (539) 


$$$$
C24262-P96
     RDKit          3D

 47 48  0  0  0  0  0  0  0  0999 V2000
   -2.0083   -5.1683   27.7589 C   0  0  0  0  0  0  0  0  0  0  0  0
   -2.4324   -4.5653   29.0298 C   0  0  0  0  0  0  0  0  0  0  0  0
   -1.9344   -3.2944   29.0899 O   0  0  0  0  0  0  0  0  0  0  0  0
   -2.1036   -2.7808   30.3342 N   0  0  0  0  0  0  0  0  0  0  0  0
   -2.7351   -3.7445   30.9953 C   0  0  0  0  0  0  0  0  0  0  0  0
   -3.1559   -4.8736   30.1944 C   0  0  0  0  0  0  0  0  0  0  0  0
   -3.8745   -6.1834   30.7033 C   0  0  0  0  0  0  0  0  0  0  0  0
   -3.5260   -7.1654   30.0902 O   0  0  0  0  0  0  0  0  0  0  0  0
   -4.8403   -6.0469   32.0017 N   0  0  0  0  0  0  0  0  0  0  0  0
   -5.4759   -7.1070   32.8720 C   0  0  0  0  0  0  0  0  0  0  0  0
   -7.3399   -7.8576   33.2385 C   0  0  0  0  0  0  0  0  0  0  0  0
   -8.7143   -9.2210   32.9505 N   0  0  0  0  0  0  0  0  0  0  0  0
   -8.6654  -10.8550   32.0402 C   0  0  0  0  0  0  0  0  0  0  0  0
   -7.6964  -11.2140   31.3874 O   0  0  0  0  0  0  0  0  0  0  0  0
  -10.0134  -12.3846   32.1293 C   0  0  0  0  0  0  0  0  0  0  0  0
   -9.9441  -13.8295   33.3402 C   0  0  0  0  0  0  0  0  0  0  0  0
  -11.3381  -14.3785   33.9602 C   0  0  0  0  0  0  0  0  0  0  0  0
  -11.5533  -15.2426   35.0275 C   0  0  0  0  0  0  0  0  0  0  0  0
  -12.9159  -15.5839   34.9745 C   0  0  0  0  0  0  0  0  0  0  0  0
  -13.5587  -14.9608   33.9854 N   0  0  0  0  0  0  0  0  0  0  0  0
  -12.5818  -14.2728   33.3666 N   0  0  0  0  0  0  0  0  0  0  0  0
   -3.7944   -7.3764   33.3077 C   0  0  0  0  0  0  0  0  0  0  0  0
   -3.0665   -8.8384   33.3586 C   0  0  0  0  0  0  0  0  0  0  0  0
   -2.8900   -5.8297   33.3105 C   0  0  0  0  0  0  0  0  0  0  0  0
   -1.1803   -4.5927   27.3338 H   0  0  0  0  0  0  0  0  0  0  0  0
   -1.6641   -6.1931   27.8753 H   0  0  0  0  0  0  0  0  0  0  0  0
   -2.7937   -5.1052   27.0064 H   0  0  0  0  0  0  0  0  0  0  0  0
   -2.8788   -3.5292   32.0363 H   0  0  0  0  0  0  0  0  0  0  0  0
   -4.8573   -5.0988   32.3103 H   0  0  0  0  0  0  0  0  0  0  0  0
   -5.6422   -6.4476   33.7489 H   0  0  0  0  0  0  0  0  0  0  0  0
   -7.1522   -8.0516   34.2733 H   0  0  0  0  0  0  0  0  0  0  0  0
   -7.1151   -7.8889   32.1366 H   0  0  0  0  0  0  0  0  0  0  0  0
   -9.6295   -9.0945   33.3488 H   0  0  0  0  0  0  0  0  0  0  0  0
   -9.4561  -12.9627   31.4091 H   0  0  0  0  0  0  0  0  0  0  0  0
  -11.0595  -12.4986   32.3697 H   0  0  0  0  0  0  0  0  0  0  0  0
   -9.3313  -13.6601   34.2411 H   0  0  0  0  0  0  0  0  0  0  0  0
   -9.3482  -14.5980   32.8539 H   0  0  0  0  0  0  0  0  0  0  0  0
  -10.8178  -15.5976   35.7295 H   0  0  0  0  0  0  0  0  0  0  0  0
  -13.4662  -16.2497   35.6261 H   0  0  0  0  0  0  0  0  0  0  0  0
  -12.7792  -13.8910   32.4517 H   0  0  0  0  0  0  0  0  0  0  0  0
   -3.3154   -7.3696   32.3353 H   0  0  0  0  0  0  0  0  0  0  0  0
   -3.7315   -9.6716   33.5703 H   0  0  0  0  0  0  0  0  0  0  0  0
   -2.2335   -9.0833   33.9564 H   0  0  0  0  0  0  0  0  0  0  0  0
   -2.4512   -8.9797   32.4602 H   0  0  0  0  0  0  0  0  0  0  0  0
   -2.0661   -5.9130   32.5921 H   0  0  0  0  0  0  0  0  0  0  0  0
   -3.4532   -4.9542   33.0932 H   0  0  0  0  0  0  0  0  0  0  0  0
   -2.4718   -5.4268   34.2196 H   0  0  0  0  0  0  0  0  0  0  0  0
  1  2  1  0
  2  3  1  0
  3  4  1  0
  4  5  2  0
  5  6  1  0
  6  7  1  0
  7  8  2  0
  7  9  1  0
  9 10  1  0
 10 11  1  0
 11 12  1  0
 12 13  1  0
 13 14  2  0
 13 15  1  0
 15 16  1  0
 16 17  1  0
 17 18  2  0
 18 19  1  0
 19 20  2  0
 20 21  1  0
 10 22  1  0
 22 23  1  0
 22 24  1  0
  6  2  2  0
 21 17  1  0
  1 25  1  0
  1 26  1  0
  1 27  1  0
  5 28  1  0
  9 29  1  0
 10 30  1  0
 11 31  1  0
 11 32  1  0
 12 33  1  0
 15 34  1  0
 15 35  1  0
 16 36  1  0
 16 37  1  0
 18 38  1  0
 19 39  1  0
 21 40  1  0
 22 41  1  0
 23 42  1  0
 23 43  1  0
 23 44  1  0
 24 45  1  0
 24 46  1  0
 24 47  1  0
M  END
>  <Energy>  (540) 
647.18931678272997

>  <compound_id>  (540) 
24262

>  <target_id>  (540) 
1

>  <reference_id>  (540) 
96

>  <inspiration_ids>  (540) 
[59, 96]

>  <energy_score>  (540) 
601.9007288981104

>  <distance_score>  (540) 
8.16587133681449

>  <path>  (540) 
/opt/xchem-fragalysis-2/maxwin/BulkDock/SCRATCH/511013/C24262-P96/C24262-P96.minimised.mol

>  <scratch_subdir>  (540) 
/opt/xchem-fragalysis-2/maxwin/BulkDock/SCRATCH/511013/C24262-P96

>  <fragmenstein_runtime>  (540) 
17.110466480255127

>  <fragmenstein_outcome>  (540) 
too moved

>  <fragmenstein_mode>  (540) 
expansion

>  <fragmenstein_error>  (540) 


$$$$
C24251-P59
     RDKit          3D

 47 48  0  0  0  0  0  0  0  0999 V2000
   -5.9220    0.3469   34.2814 C   0  0  0  0  0  0  0  0  0  0  0  0
   -6.1063   -1.1606   34.1580 C   0  0  0  0  0  0  0  0  0  0  0  0
   -5.4113   -1.9820   35.2841 C   0  0  0  0  0  0  0  0  0  0  0  0
   -5.9723   -1.4946   36.6564 C   0  0  0  0  0  0  0  0  0  0  0  0
   -7.4906   -1.4400   36.7930 C   0  0  0  0  0  0  0  0  0  0  0  0
   -3.8492   -1.5914   35.3067 C   0  0  0  0  0  0  0  0  0  0  0  0
   -3.1647   -1.2409   34.0588 N   0  0  0  0  0  0  0  0  0  0  0  0
   -3.1387   -1.8958   32.7810 C   0  0  0  0  0  0  0  0  0  0  0  0
   -3.7334   -2.8555   32.3815 O   0  0  0  0  0  0  0  0  0  0  0  0
   -2.2102   -1.2081   31.8536 C   0  0  0  0  0  0  0  0  0  0  0  0
   -1.9329   -1.5424   30.5018 C   0  0  0  0  0  0  0  0  0  0  0  0
   -1.0561   -0.5796   30.0735 C   0  0  0  0  0  0  0  0  0  0  0  0
   -0.3982   -0.2911   28.7845 C   0  0  0  0  0  0  0  0  0  0  0  0
   -0.7831    0.2619   31.1054 O   0  0  0  0  0  0  0  0  0  0  0  0
   -1.5048   -0.1232   32.2252 N   0  0  0  0  0  0  0  0  0  0  0  0
   -5.3660   -3.4735   34.8627 N   0  0  0  0  0  0  0  0  0  0  0  0
   -6.5354   -4.8104   35.1097 C   0  0  0  0  0  0  0  0  0  0  0  0
   -7.5060   -4.6808   35.7501 O   0  0  0  0  0  0  0  0  0  0  0  0
   -6.4660   -6.5736   34.4285 C   0  0  0  0  0  0  0  0  0  0  0  0
   -4.9056   -7.9572   34.8937 C   0  0  0  0  0  0  0  0  0  0  0  0
   -3.4210   -8.2264   34.8381 C   0  0  0  0  0  0  0  0  0  0  0  0
   -3.0557   -9.4223   35.4641 C   0  0  0  0  0  0  0  0  0  0  0  0
   -4.0996   -9.9962   36.0093 N   0  0  0  0  0  0  0  0  0  0  0  0
   -5.1051   -9.1516   35.7907 N   0  0  0  0  0  0  0  0  0  0  0  0
   -4.9583    0.6530   34.6917 H   0  0  0  0  0  0  0  0  0  0  0  0
   -5.9746    0.7806   33.2888 H   0  0  0  0  0  0  0  0  0  0  0  0
   -6.7044    0.7954   34.8992 H   0  0  0  0  0  0  0  0  0  0  0  0
   -7.1793   -1.3830   34.1225 H   0  0  0  0  0  0  0  0  0  0  0  0
   -5.7336   -1.4713   33.1771 H   0  0  0  0  0  0  0  0  0  0  0  0
   -5.6377   -0.4626   36.8362 H   0  0  0  0  0  0  0  0  0  0  0  0
   -5.5119   -2.0334   37.4849 H   0  0  0  0  0  0  0  0  0  0  0  0
   -7.8881   -0.5014   36.3945 H   0  0  0  0  0  0  0  0  0  0  0  0
   -7.9934   -2.2486   36.2669 H   0  0  0  0  0  0  0  0  0  0  0  0
   -7.7732   -1.4826   37.8497 H   0  0  0  0  0  0  0  0  0  0  0  0
   -3.6916   -0.7166   35.9487 H   0  0  0  0  0  0  0  0  0  0  0  0
   -3.2657   -2.3954   35.7670 H   0  0  0  0  0  0  0  0  0  0  0  0
   -2.4634   -0.5020   34.0670 H   0  0  0  0  0  0  0  0  0  0  0  0
   -2.3400   -2.3531   29.9157 H   0  0  0  0  0  0  0  0  0  0  0  0
    0.6900   -0.3276   28.8927 H   0  0  0  0  0  0  0  0  0  0  0  0
   -0.6782    0.7044   28.4266 H   0  0  0  0  0  0  0  0  0  0  0  0
   -0.6902   -1.0212   28.0233 H   0  0  0  0  0  0  0  0  0  0  0  0
   -4.6545   -3.7721   34.2148 H   0  0  0  0  0  0  0  0  0  0  0  0
   -7.1256   -6.8015   33.5471 H   0  0  0  0  0  0  0  0  0  0  0  0
   -7.2966   -6.7220   35.2094 H   0  0  0  0  0  0  0  0  0  0  0  0
   -2.6369   -7.5707   34.4577 H   0  0  0  0  0  0  0  0  0  0  0  0
   -2.0703   -9.8563   35.5766 H   0  0  0  0  0  0  0  0  0  0  0  0
   -6.0038   -9.3610   36.1975 H   0  0  0  0  0  0  0  0  0  0  0  0
  1  2  1  0
  2  3  1  0
  3  4  1  0
  4  5  1  0
  3  6  1  0
  6  7  1  0
  7  8  1  0
  8  9  2  0
  8 10  1  0
 10 11  1  0
 11 12  2  0
 12 13  1  0
 12 14  1  0
 14 15  1  0
  3 16  1  0
 16 17  1  0
 17 18  2  0
 17 19  1  0
 19 20  1  0
 20 21  2  0
 21 22  1  0
 22 23  2  0
 23 24  1  0
 15 10  2  0
 24 20  1  0
  1 25  1  0
  1 26  1  0
  1 27  1  0
  2 28  1  0
  2 29  1  0
  4 30  1  0
  4 31  1  0
  5 32  1  0
  5 33  1  0
  5 34  1  0
  6 35  1  0
  6 36  1  0
  7 37  1  0
 11 38  1  0
 13 39  1  0
 13 40  1  0
 13 41  1  0
 16 42  1  0
 19 43  1  0
 19 44  1  0
 21 45  1  0
 22 46  1  0
 24 47  1  0
M  END
>  <Energy>  (541) 
321.6125292783334

>  <compound_id>  (541) 
24251

>  <target_id>  (541) 
1

>  <reference_id>  (541) 
59

>  <inspiration_ids>  (541) 
[59, 96]

>  <energy_score>  (541) 
232.12290992955468

>  <distance_score>  (541) 
10.373080782777123

>  <path>  (541) 
/opt/xchem-fragalysis-2/maxwin/BulkDock/SCRATCH/511013/C24251-P59/C24251-P59.minimised.mol

>  <scratch_subdir>  (541) 
/opt/xchem-fragalysis-2/maxwin/BulkDock/SCRATCH/511013/C24251-P59

>  <fragmenstein_runtime>  (541) 
28.50152349472046

>  <fragmenstein_outcome>  (541) 
too moved

>  <fragmenstein_mode>  (541) 
expansion

>  <fragmenstein_error>  (541) 


$$$$
C24251-P96
     RDKit          3D

 47 48  0  0  0  0  0  0  0  0999 V2000
   -6.9602  -15.4915   26.4289 C   0  0  0  0  0  0  0  0  0  0  0  0
   -5.5430  -15.9215   26.1222 C   0  0  0  0  0  0  0  0  0  0  0  0
   -4.7551  -16.7724   27.1741 C   0  0  0  0  0  0  0  0  0  0  0  0
   -3.4226  -17.1712   26.5014 C   0  0  0  0  0  0  0  0  0  0  0  0
   -2.4359  -16.0206   26.2225 C   0  0  0  0  0  0  0  0  0  0  0  0
   -4.1846  -15.8417   28.4751 C   0  0  0  0  0  0  0  0  0  0  0  0
   -4.2436  -14.3096   28.4463 N   0  0  0  0  0  0  0  0  0  0  0  0
   -3.0557  -13.1659   28.0795 C   0  0  0  0  0  0  0  0  0  0  0  0
   -1.8818  -13.3488   27.8422 O   0  0  0  0  0  0  0  0  0  0  0  0
   -3.5907  -11.3514   27.9077 C   0  0  0  0  0  0  0  0  0  0  0  0
   -3.4470  -10.2045   27.0407 C   0  0  0  0  0  0  0  0  0  0  0  0
   -3.2120   -9.2955   28.1067 C   0  0  0  0  0  0  0  0  0  0  0  0
   -2.2527   -8.1335   28.5998 C   0  0  0  0  0  0  0  0  0  0  0  0
   -4.3664   -9.5564   28.8006 O   0  0  0  0  0  0  0  0  0  0  0  0
   -4.7966  -10.8075   28.4097 N   0  0  0  0  0  0  0  0  0  0  0  0
   -5.7336  -18.1546   27.4530 N   0  0  0  0  0  0  0  0  0  0  0  0
   -5.5014  -19.6531   27.1043 C   0  0  0  0  0  0  0  0  0  0  0  0
   -4.5313  -20.2024   26.6234 O   0  0  0  0  0  0  0  0  0  0  0  0
   -6.8794  -20.8825   27.3231 C   0  0  0  0  0  0  0  0  0  0  0  0
   -8.3486  -21.6642   28.2726 C   0  0  0  0  0  0  0  0  0  0  0  0
   -8.6950  -22.9289   28.8631 C   0  0  0  0  0  0  0  0  0  0  0  0
  -10.0736  -22.9666   29.1483 C   0  0  0  0  0  0  0  0  0  0  0  0
  -10.6692  -21.8236   28.8706 N   0  0  0  0  0  0  0  0  0  0  0  0
   -9.6793  -21.0375   28.4121 N   0  0  0  0  0  0  0  0  0  0  0  0
   -6.9678  -14.6076   27.0583 H   0  0  0  0  0  0  0  0  0  0  0  0
   -7.5536  -16.2743   26.9007 H   0  0  0  0  0  0  0  0  0  0  0  0
   -7.4698  -15.2091   25.5007 H   0  0  0  0  0  0  0  0  0  0  0  0
   -5.6249  -16.5479   25.2212 H   0  0  0  0  0  0  0  0  0  0  0  0
   -4.9700  -15.0557   25.7971 H   0  0  0  0  0  0  0  0  0  0  0  0
   -3.6338  -17.6804   25.5521 H   0  0  0  0  0  0  0  0  0  0  0  0
   -2.9116  -17.9172   27.1236 H   0  0  0  0  0  0  0  0  0  0  0  0
   -2.8939  -15.1559   25.7430 H   0  0  0  0  0  0  0  0  0  0  0  0
   -1.9019  -15.7157   27.1230 H   0  0  0  0  0  0  0  0  0  0  0  0
   -1.6644  -16.3875   25.5349 H   0  0  0  0  0  0  0  0  0  0  0  0
   -3.1788  -16.1411   28.7841 H   0  0  0  0  0  0  0  0  0  0  0  0
   -4.8481  -16.1031   29.3084 H   0  0  0  0  0  0  0  0  0  0  0  0
   -5.1093  -13.8385   28.6751 H   0  0  0  0  0  0  0  0  0  0  0  0
   -3.0442  -10.2042   26.0309 H   0  0  0  0  0  0  0  0  0  0  0  0
   -2.7737   -7.4751   29.3071 H   0  0  0  0  0  0  0  0  0  0  0  0
   -1.8171   -7.5575   27.7746 H   0  0  0  0  0  0  0  0  0  0  0  0
   -1.3715   -8.4952   29.1413 H   0  0  0  0  0  0  0  0  0  0  0  0
   -6.6863  -18.0275   27.7633 H   0  0  0  0  0  0  0  0  0  0  0  0
   -7.4190  -19.9694   27.4056 H   0  0  0  0  0  0  0  0  0  0  0  0
   -6.1955  -21.4342   27.9430 H   0  0  0  0  0  0  0  0  0  0  0  0
   -8.0685  -23.7699   29.1296 H   0  0  0  0  0  0  0  0  0  0  0  0
  -10.6493  -23.7764   29.5763 H   0  0  0  0  0  0  0  0  0  0  0  0
   -9.9348  -20.0860   28.1451 H   0  0  0  0  0  0  0  0  0  0  0  0
  1  2  1  0
  2  3  1  0
  3  4  1  0
  4  5  1  0
  3  6  1  0
  6  7  1  0
  7  8  1  0
  8  9  2  0
  8 10  1  0
 10 11  1  0
 11 12  2  0
 12 13  1  0
 12 14  1  0
 14 15  1  0
  3 16  1  0
 16 17  1  0
 17 18  2  0
 17 19  1  0
 19 20  1  0
 20 21  2  0
 21 22  1  0
 22 23  2  0
 23 24  1  0
 15 10  2  0
 24 20  1  0
  1 25  1  0
  1 26  1  0
  1 27  1  0
  2 28  1  0
  2 29  1  0
  4 30  1  0
  4 31  1  0
  5 32  1  0
  5 33  1  0
  5 34  1  0
  6 35  1  0
  6 36  1  0
  7 37  1  0
 11 38  1  0
 13 39  1  0
 13 40  1  0
 13 41  1  0
 16 42  1  0
 19 43  1  0
 19 44  1  0
 21 45  1  0
 22 46  1  0
 24 47  1  0
M  END
>  <Energy>  (542) 
406.37545429212656

>  <compound_id>  (542) 
24251

>  <target_id>  (542) 
1

>  <reference_id>  (542) 
96

>  <inspiration_ids>  (542) 
[59, 96]

>  <energy_score>  (542) 
316.88583494336604

>  <distance_score>  (542) 
11.342721143771845

>  <path>  (542) 
/opt/xchem-fragalysis-2/maxwin/BulkDock/SCRATCH/511013/C24251-P96/C24251-P96.minimised.mol

>  <scratch_subdir>  (542) 
/opt/xchem-fragalysis-2/maxwin/BulkDock/SCRATCH/511013/C24251-P96

>  <fragmenstein_runtime>  (542) 
16.047388076782227

>  <fragmenstein_outcome>  (542) 
too moved

>  <fragmenstein_mode>  (542) 
expansion

>  <fragmenstein_error>  (542) 


$$$$
C24265-P59
     RDKit          3D

 43 44  0  0  0  0  0  0  0  0999 V2000
   -1.5203    0.0470   33.1082 C   0  0  0  0  0  0  0  0  0  0  0  0
   -2.6428   -0.6501   33.7658 C   0  0  0  0  0  0  0  0  0  0  0  0
   -3.5201   -1.6110   33.3483 C   0  0  0  0  0  0  0  0  0  0  0  0
   -4.2135   -2.0095   34.5231 C   0  0  0  0  0  0  0  0  0  0  0  0
   -5.0171   -3.1257   34.5416 N   0  0  0  0  0  0  0  0  0  0  0  0
   -5.3599   -4.3071   33.3274 C   0  0  0  0  0  0  0  0  0  0  0  0
   -4.9388   -4.1795   32.2467 O   0  0  0  0  0  0  0  0  0  0  0  0
   -6.7476   -5.8087   34.1485 C   0  0  0  0  0  0  0  0  0  0  0  0
   -8.4123   -6.9381   33.8351 N   0  0  0  0  0  0  0  0  0  0  0  0
   -7.7986   -6.8491   32.6245 C   0  0  0  0  0  0  0  0  0  0  0  0
   -9.4866   -8.5899   33.2284 C   0  0  0  0  0  0  0  0  0  0  0  0
   -9.2472  -10.3985   31.9199 C   0  0  0  0  0  0  0  0  0  0  0  0
   -9.5732  -10.8766   30.0037 N   0  0  0  0  0  0  0  0  0  0  0  0
   -9.4559  -12.8531   28.9135 C   0  0  0  0  0  0  0  0  0  0  0  0
   -9.0624  -13.9727   29.3537 O   0  0  0  0  0  0  0  0  0  0  0  0
  -10.1151  -13.0715   27.1823 C   0  0  0  0  0  0  0  0  0  0  0  0
  -10.2309  -14.4502   26.3336 C   0  0  0  0  0  0  0  0  0  0  0  0
   -9.4541  -15.5916   26.2207 C   0  0  0  0  0  0  0  0  0  0  0  0
   -9.7117  -16.0736   24.9257 C   0  0  0  0  0  0  0  0  0  0  0  0
  -10.7308  -15.4404   24.3415 N   0  0  0  0  0  0  0  0  0  0  0  0
  -11.0722  -14.4943   25.2452 N   0  0  0  0  0  0  0  0  0  0  0  0
   -3.8862   -1.2379   35.5591 N   0  0  0  0  0  0  0  0  0  0  0  0
   -2.8828   -0.3858   35.0812 O   0  0  0  0  0  0  0  0  0  0  0  0
   -1.7284    0.2058   32.0463 H   0  0  0  0  0  0  0  0  0  0  0  0
   -1.3324    1.0164   33.5782 H   0  0  0  0  0  0  0  0  0  0  0  0
   -0.6075   -0.5513   33.1899 H   0  0  0  0  0  0  0  0  0  0  0  0
   -3.5652   -2.0599   32.3681 H   0  0  0  0  0  0  0  0  0  0  0  0
   -5.3786   -3.4405   35.3870 H   0  0  0  0  0  0  0  0  0  0  0  0
   -7.0734   -5.4221   35.1272 H   0  0  0  0  0  0  0  0  0  0  0  0
   -6.3277   -6.7020   34.3931 H   0  0  0  0  0  0  0  0  0  0  0  0
   -8.6660   -6.9563   32.0573 H   0  0  0  0  0  0  0  0  0  0  0  0
   -6.9490   -6.5130   32.0371 H   0  0  0  0  0  0  0  0  0  0  0  0
   -7.1628   -7.5300   33.0127 H   0  0  0  0  0  0  0  0  0  0  0  0
  -10.0120   -8.9647   34.1163 H   0  0  0  0  0  0  0  0  0  0  0  0
  -10.4031   -8.0043   32.9184 H   0  0  0  0  0  0  0  0  0  0  0  0
   -8.4263  -11.1048   32.1634 H   0  0  0  0  0  0  0  0  0  0  0  0
  -10.0141  -11.0526   32.0625 H   0  0  0  0  0  0  0  0  0  0  0  0
   -9.8564  -10.0825   29.3851 H   0  0  0  0  0  0  0  0  0  0  0  0
  -11.0833  -13.4009   27.5981 H   0  0  0  0  0  0  0  0  0  0  0  0
   -9.0568  -13.3536   27.1064 H   0  0  0  0  0  0  0  0  0  0  0  0
   -8.6840  -15.9222   26.8974 H   0  0  0  0  0  0  0  0  0  0  0  0
   -9.2054  -16.8530   24.3753 H   0  0  0  0  0  0  0  0  0  0  0  0
  -11.7909  -13.8269   24.9869 H   0  0  0  0  0  0  0  0  0  0  0  0
  1  2  1  0
  2  3  2  0
  3  4  1  0
  4  5  1  0
  5  6  1  0
  6  7  2  0
  6  8  1  0
  8  9  1  0
  9 10  1  0
  9 11  1  0
 11 12  1  0
 12 13  1  0
 13 14  1  0
 14 15  2  0
 14 16  1  0
 16 17  1  0
 17 18  2  0
 18 19  1  0
 19 20  2  0
 20 21  1  0
  4 22  2  0
 22 23  1  0
 23  2  1  0
 21 17  1  0
  1 24  1  0
  1 25  1  0
  1 26  1  0
  3 27  1  0
  5 28  1  0
  8 29  1  0
  8 30  1  0
 10 31  1  0
 10 32  1  0
 10 33  1  0
 11 34  1  0
 11 35  1  0
 12 36  1  0
 12 37  1  0
 13 38  1  0
 16 39  1  0
 16 40  1  0
 18 41  1  0
 19 42  1  0
 21 43  1  0
M  END
>  <Energy>  (543) 
1325.0004243778408

>  <compound_id>  (543) 
24265

>  <target_id>  (543) 
1

>  <reference_id>  (543) 
59

>  <inspiration_ids>  (543) 
[59, 96]

>  <energy_score>  (543) 
1213.690449083504

>  <distance_score>  (543) 
7.497486373581385

>  <path>  (543) 
/opt/xchem-fragalysis-2/maxwin/BulkDock/SCRATCH/511013/C24265-P59/C24265-P59.minimised.mol

>  <scratch_subdir>  (543) 
/opt/xchem-fragalysis-2/maxwin/BulkDock/SCRATCH/511013/C24265-P59

>  <fragmenstein_runtime>  (543) 
16.29942750930786

>  <fragmenstein_outcome>  (543) 
too moved

>  <fragmenstein_mode>  (543) 
expansion

>  <fragmenstein_error>  (543) 


$$$$
C24265-P96
     RDKit          3D

 43 44  0  0  0  0  0  0  0  0999 V2000
   -1.3640   -3.7894   29.4558 C   0  0  0  0  0  0  0  0  0  0  0  0
   -2.1057   -4.9558   29.9818 C   0  0  0  0  0  0  0  0  0  0  0  0
   -2.3846   -6.2325   29.5382 C   0  0  0  0  0  0  0  0  0  0  0  0
   -3.5170   -6.6273   30.3065 C   0  0  0  0  0  0  0  0  0  0  0  0
   -4.4885   -7.6279   30.0743 N   0  0  0  0  0  0  0  0  0  0  0  0
   -5.8383   -7.9670   30.8353 C   0  0  0  0  0  0  0  0  0  0  0  0
   -6.3092   -7.3471   31.7214 O   0  0  0  0  0  0  0  0  0  0  0  0
   -6.9625   -9.6110   30.4523 C   0  0  0  0  0  0  0  0  0  0  0  0
   -8.7480   -9.9264   31.3083 N   0  0  0  0  0  0  0  0  0  0  0  0
   -9.6777   -9.1068   30.5158 C   0  0  0  0  0  0  0  0  0  0  0  0
   -9.5352  -11.8061   31.5823 C   0  0  0  0  0  0  0  0  0  0  0  0
  -11.0385  -13.1777   32.1214 C   0  0  0  0  0  0  0  0  0  0  0  0
  -11.5845  -14.3662   30.7537 N   0  0  0  0  0  0  0  0  0  0  0  0
  -12.8926  -15.1984   30.5695 C   0  0  0  0  0  0  0  0  0  0  0  0
  -13.9238  -15.1890   31.2262 O   0  0  0  0  0  0  0  0  0  0  0  0
  -12.7959  -16.6601   29.1106 C   0  0  0  0  0  0  0  0  0  0  0  0
  -12.3009  -18.6808   29.2699 C   0  0  0  0  0  0  0  0  0  0  0  0
  -11.7070  -20.0192   28.6864 C   0  0  0  0  0  0  0  0  0  0  0  0
  -11.7294  -21.1769   29.5163 C   0  0  0  0  0  0  0  0  0  0  0  0
  -11.9270  -20.7418   30.7309 N   0  0  0  0  0  0  0  0  0  0  0  0
  -11.4486  -19.5042   30.5190 N   0  0  0  0  0  0  0  0  0  0  0  0
   -3.5288   -5.8749   31.4202 N   0  0  0  0  0  0  0  0  0  0  0  0
   -2.7163   -4.7848   31.1784 O   0  0  0  0  0  0  0  0  0  0  0  0
   -0.7274   -4.0692   28.6125 H   0  0  0  0  0  0  0  0  0  0  0  0
   -2.0730   -3.0360   29.0966 H   0  0  0  0  0  0  0  0  0  0  0  0
   -0.7534   -3.3242   30.2348 H   0  0  0  0  0  0  0  0  0  0  0  0
   -1.9298   -6.6804   28.6701 H   0  0  0  0  0  0  0  0  0  0  0  0
   -4.2859   -8.3691   29.4275 H   0  0  0  0  0  0  0  0  0  0  0  0
   -6.8664   -9.2022   29.4173 H   0  0  0  0  0  0  0  0  0  0  0  0
   -6.6468  -10.5885   30.1541 H   0  0  0  0  0  0  0  0  0  0  0  0
  -10.3511   -8.3484   30.9009 H   0  0  0  0  0  0  0  0  0  0  0  0
   -9.4779   -8.9496   29.4641 H   0  0  0  0  0  0  0  0  0  0  0  0
  -10.4580   -9.7352   30.5198 H   0  0  0  0  0  0  0  0  0  0  0  0
   -8.6327  -12.4642   31.4567 H   0  0  0  0  0  0  0  0  0  0  0  0
   -9.8274  -11.1732   32.2925 H   0  0  0  0  0  0  0  0  0  0  0  0
  -12.0583  -12.8597   32.3256 H   0  0  0  0  0  0  0  0  0  0  0  0
  -10.5980  -13.7350   32.9501 H   0  0  0  0  0  0  0  0  0  0  0  0
  -11.0103  -14.5422   30.0456 H   0  0  0  0  0  0  0  0  0  0  0  0
  -12.3495  -16.3249   28.1833 H   0  0  0  0  0  0  0  0  0  0  0  0
  -13.8910  -16.6898   28.9400 H   0  0  0  0  0  0  0  0  0  0  0  0
  -11.4002  -20.2466   27.6740 H   0  0  0  0  0  0  0  0  0  0  0  0
  -11.5933  -22.2238   29.2800 H   0  0  0  0  0  0  0  0  0  0  0  0
  -11.0550  -18.9952   31.3083 H   0  0  0  0  0  0  0  0  0  0  0  0
  1  2  1  0
  2  3  2  0
  3  4  1  0
  4  5  1  0
  5  6  1  0
  6  7  2  0
  6  8  1  0
  8  9  1  0
  9 10  1  0
  9 11  1  0
 11 12  1  0
 12 13  1  0
 13 14  1  0
 14 15  2  0
 14 16  1  0
 16 17  1  0
 17 18  2  0
 18 19  1  0
 19 20  2  0
 20 21  1  0
  4 22  2  0
 22 23  1  0
 23  2  1  0
 21 17  1  0
  1 24  1  0
  1 25  1  0
  1 26  1  0
  3 27  1  0
  5 28  1  0
  8 29  1  0
  8 30  1  0
 10 31  1  0
 10 32  1  0
 10 33  1  0
 11 34  1  0
 11 35  1  0
 12 36  1  0
 12 37  1  0
 13 38  1  0
 16 39  1  0
 16 40  1  0
 18 41  1  0
 19 42  1  0
 21 43  1  0
M  END
>  <Energy>  (544) 
828.35672288443777

>  <compound_id>  (544) 
24265

>  <target_id>  (544) 
1

>  <reference_id>  (544) 
96

>  <inspiration_ids>  (544) 
[59, 96]

>  <energy_score>  (544) 
717.0467475901141

>  <distance_score>  (544) 
7.333477688717653

>  <path>  (544) 
/opt/xchem-fragalysis-2/maxwin/BulkDock/SCRATCH/511013/C24265-P96/C24265-P96.minimised.mol

>  <scratch_subdir>  (544) 
/opt/xchem-fragalysis-2/maxwin/BulkDock/SCRATCH/511013/C24265-P96

>  <fragmenstein_runtime>  (544) 
15.909284114837646

>  <fragmenstein_outcome>  (544) 
too moved

>  <fragmenstein_mode>  (544) 
expansion

>  <fragmenstein_error>  (544) 


$$$$
C24266-P59
     RDKit          3D

 44 45  0  0  0  0  0  0  0  0999 V2000
   -1.0830    0.5273   33.6651 C   0  0  0  0  0  0  0  0  0  0  0  0
   -2.0190   -0.4637   33.1149 C   0  0  0  0  0  0  0  0  0  0  0  0
   -1.9706   -1.2750   32.0211 C   0  0  0  0  0  0  0  0  0  0  0  0
   -3.1821   -2.0157   32.0656 C   0  0  0  0  0  0  0  0  0  0  0  0
   -3.5644   -2.9751   31.0266 C   0  0  0  0  0  0  0  0  0  0  0  0
   -2.8747   -2.9422   30.0194 O   0  0  0  0  0  0  0  0  0  0  0  0
   -4.8195   -3.9020   31.3948 N   0  0  0  0  0  0  0  0  0  0  0  0
   -5.8450   -5.2922   30.2873 C   0  0  0  0  0  0  0  0  0  0  0  0
   -6.6187   -6.4249   31.7312 C   0  0  0  0  0  0  0  0  0  0  0  0
   -5.9830   -6.9905   29.0950 C   0  0  0  0  0  0  0  0  0  0  0  0
   -6.9081   -8.8299   28.5314 C   0  0  0  0  0  0  0  0  0  0  0  0
   -8.5940   -9.1558   28.8591 C   0  0  0  0  0  0  0  0  0  0  0  0
   -6.9188   -9.4549   26.6908 N   0  0  0  0  0  0  0  0  0  0  0  0
   -6.5994  -11.0895   25.9953 C   0  0  0  0  0  0  0  0  0  0  0  0
   -6.3982  -12.1351   26.6319 O   0  0  0  0  0  0  0  0  0  0  0  0
   -6.3617  -11.4027   24.2040 C   0  0  0  0  0  0  0  0  0  0  0  0
   -5.7124  -12.8837   23.9855 C   0  0  0  0  0  0  0  0  0  0  0  0
   -5.3687  -13.5946   22.8481 C   0  0  0  0  0  0  0  0  0  0  0  0
   -5.1011  -14.9123   23.2889 C   0  0  0  0  0  0  0  0  0  0  0  0
   -5.2360  -15.0450   24.6065 N   0  0  0  0  0  0  0  0  0  0  0  0
   -5.5755  -13.8072   25.0064 N   0  0  0  0  0  0  0  0  0  0  0  0
   -3.9340   -1.6534   33.1128 N   0  0  0  0  0  0  0  0  0  0  0  0
   -3.1893   -0.6774   33.7758 O   0  0  0  0  0  0  0  0  0  0  0  0
   -0.3885    0.0466   34.3609 H   0  0  0  0  0  0  0  0  0  0  0  0
   -0.4972    0.9984   32.8698 H   0  0  0  0  0  0  0  0  0  0  0  0
   -1.6164    1.3141   34.2072 H   0  0  0  0  0  0  0  0  0  0  0  0
   -1.1875   -1.3384   31.2784 H   0  0  0  0  0  0  0  0  0  0  0  0
   -5.1062   -3.7184   32.3586 H   0  0  0  0  0  0  0  0  0  0  0  0
   -6.0384   -4.3573   29.6256 H   0  0  0  0  0  0  0  0  0  0  0  0
   -7.6349   -6.7421   31.8050 H   0  0  0  0  0  0  0  0  0  0  0  0
   -6.9045   -6.1305   32.7648 H   0  0  0  0  0  0  0  0  0  0  0  0
   -6.0967   -7.3249   31.8718 H   0  0  0  0  0  0  0  0  0  0  0  0
   -5.0684   -7.6380   28.9701 H   0  0  0  0  0  0  0  0  0  0  0  0
   -6.0839   -6.0626   28.3858 H   0  0  0  0  0  0  0  0  0  0  0  0
   -6.6474   -9.5867   29.2527 H   0  0  0  0  0  0  0  0  0  0  0  0
   -9.5385   -8.6760   29.0950 H   0  0  0  0  0  0  0  0  0  0  0  0
   -8.6203   -9.8023   29.7188 H   0  0  0  0  0  0  0  0  0  0  0  0
   -8.9654   -9.3691   27.8846 H   0  0  0  0  0  0  0  0  0  0  0  0
   -7.1271   -8.8225   25.9622 H   0  0  0  0  0  0  0  0  0  0  0  0
   -5.4642  -10.9354   23.7643 H   0  0  0  0  0  0  0  0  0  0  0  0
   -7.1226  -11.0737   23.5016 H   0  0  0  0  0  0  0  0  0  0  0  0
   -5.3735  -13.2323   21.8303 H   0  0  0  0  0  0  0  0  0  0  0  0
   -4.8242  -15.7755   22.6979 H   0  0  0  0  0  0  0  0  0  0  0  0
   -5.8330  -13.6433   25.9752 H   0  0  0  0  0  0  0  0  0  0  0  0
  1  2  1  0
  2  3  2  0
  3  4  1  0
  4  5  1  0
  5  6  2  0
  5  7  1  0
  7  8  1  0
  8  9  1  0
  8 10  1  0
 10 11  1  0
 11 12  1  0
 11 13  1  0
 13 14  1  0
 14 15  2  0
 14 16  1  0
 16 17  1  0
 17 18  2  0
 18 19  1  0
 19 20  2  0
 20 21  1  0
  4 22  2  0
 22 23  1  0
 23  2  1  0
 21 17  1  0
  1 24  1  0
  1 25  1  0
  1 26  1  0
  3 27  1  0
  7 28  1  0
  8 29  1  0
  9 30  1  0
  9 31  1  0
  9 32  1  0
 10 33  1  0
 10 34  1  0
 11 35  1  0
 12 36  1  0
 12 37  1  0
 12 38  1  0
 13 39  1  0
 16 40  1  0
 16 41  1  0
 18 42  1  0
 19 43  1  0
 21 44  1  0
M  END
>  <Energy>  (545) 
713.72279753881787

>  <compound_id>  (545) 
24266

>  <target_id>  (545) 
1

>  <reference_id>  (545) 
59

>  <inspiration_ids>  (545) 
[59, 96]

>  <energy_score>  (545) 
646.3338994462658

>  <distance_score>  (545) 
8.82764385880641

>  <path>  (545) 
/opt/xchem-fragalysis-2/maxwin/BulkDock/SCRATCH/511013/C24266-P59/C24266-P59.minimised.mol

>  <scratch_subdir>  (545) 
/opt/xchem-fragalysis-2/maxwin/BulkDock/SCRATCH/511013/C24266-P59

>  <fragmenstein_runtime>  (545) 
18.410675525665283

>  <fragmenstein_outcome>  (545) 
too moved

>  <fragmenstein_mode>  (545) 
expansion

>  <fragmenstein_error>  (545) 


$$$$
C24266-P96
     RDKit          3D

 44 45  0  0  0  0  0  0  0  0999 V2000
   -0.2306   -7.9633   26.0077 C   0  0  0  0  0  0  0  0  0  0  0  0
   -1.0019   -8.9412   25.2565 C   0  0  0  0  0  0  0  0  0  0  0  0
   -1.3705   -9.0456   23.9409 C   0  0  0  0  0  0  0  0  0  0  0  0
   -2.3480  -10.0710   23.9461 C   0  0  0  0  0  0  0  0  0  0  0  0
   -3.3183  -10.3917   22.8749 C   0  0  0  0  0  0  0  0  0  0  0  0
   -3.1431   -9.9728   21.7695 O   0  0  0  0  0  0  0  0  0  0  0  0
   -4.4074  -11.1251   23.4315 N   0  0  0  0  0  0  0  0  0  0  0  0
   -5.6873  -11.5118   22.8626 C   0  0  0  0  0  0  0  0  0  0  0  0
   -5.4959  -12.7522   21.9954 C   0  0  0  0  0  0  0  0  0  0  0  0
   -6.6840  -11.7071   24.0260 C   0  0  0  0  0  0  0  0  0  0  0  0
   -8.1910  -11.6556   23.7179 C   0  0  0  0  0  0  0  0  0  0  0  0
   -8.6323  -10.2864   23.1945 C   0  0  0  0  0  0  0  0  0  0  0  0
   -8.6127  -12.7735   22.8793 N   0  0  0  0  0  0  0  0  0  0  0  0
   -9.2737  -14.0196   23.2185 C   0  0  0  0  0  0  0  0  0  0  0  0
   -9.7125  -14.4128   24.2622 O   0  0  0  0  0  0  0  0  0  0  0  0
   -9.3287  -14.9245   21.9617 C   0  0  0  0  0  0  0  0  0  0  0  0
   -9.8819  -16.3054   22.2077 C   0  0  0  0  0  0  0  0  0  0  0  0
   -9.5177  -17.5471   21.7225 C   0  0  0  0  0  0  0  0  0  0  0  0
  -10.4885  -18.4381   22.2134 C   0  0  0  0  0  0  0  0  0  0  0  0
  -11.3624  -17.8275   23.0205 N   0  0  0  0  0  0  0  0  0  0  0  0
  -10.9884  -16.5309   22.9821 N   0  0  0  0  0  0  0  0  0  0  0  0
   -2.4364  -10.6315   25.1689 N   0  0  0  0  0  0  0  0  0  0  0  0
   -1.6005   -9.9057   25.9867 O   0  0  0  0  0  0  0  0  0  0  0  0
   -0.3764   -8.0801   27.0864 H   0  0  0  0  0  0  0  0  0  0  0  0
    0.8344   -8.0662   25.7839 H   0  0  0  0  0  0  0  0  0  0  0  0
   -0.5993   -6.9806   25.7037 H   0  0  0  0  0  0  0  0  0  0  0  0
   -1.1064   -8.3892   23.1252 H   0  0  0  0  0  0  0  0  0  0  0  0
   -4.1754  -11.3868   24.3894 H   0  0  0  0  0  0  0  0  0  0  0  0
   -5.9992  -10.6795   22.2230 H   0  0  0  0  0  0  0  0  0  0  0  0
   -5.2144  -13.6205   22.6012 H   0  0  0  0  0  0  0  0  0  0  0  0
   -4.6955  -12.5945   21.2633 H   0  0  0  0  0  0  0  0  0  0  0  0
   -6.3978  -13.0014   21.4339 H   0  0  0  0  0  0  0  0  0  0  0  0
   -6.4682  -10.9616   24.7918 H   0  0  0  0  0  0  0  0  0  0  0  0
   -6.4787  -12.6842   24.4749 H   0  0  0  0  0  0  0  0  0  0  0  0
   -8.7060  -11.8236   24.6698 H   0  0  0  0  0  0  0  0  0  0  0  0
   -9.7242  -10.2047   23.2238 H   0  0  0  0  0  0  0  0  0  0  0  0
   -8.3320  -10.1568   22.1489 H   0  0  0  0  0  0  0  0  0  0  0  0
   -8.2082   -9.4580   23.7657 H   0  0  0  0  0  0  0  0  0  0  0  0
   -8.4497  -12.7467   21.8798 H   0  0  0  0  0  0  0  0  0  0  0  0
   -9.9513  -14.4250   21.2099 H   0  0  0  0  0  0  0  0  0  0  0  0
   -8.3110  -15.0165   21.5634 H   0  0  0  0  0  0  0  0  0  0  0  0
   -8.6931  -17.7733   21.0606 H   0  0  0  0  0  0  0  0  0  0  0  0
  -10.5802  -19.5038   22.0375 H   0  0  0  0  0  0  0  0  0  0  0  0
  -11.4975  -15.8505   23.5416 H   0  0  0  0  0  0  0  0  0  0  0  0
  1  2  1  0
  2  3  2  0
  3  4  1  0
  4  5  1  0
  5  6  2  0
  5  7  1  0
  7  8  1  0
  8  9  1  0
  8 10  1  0
 10 11  1  0
 11 12  1  0
 11 13  1  0
 13 14  1  0
 14 15  2  0
 14 16  1  0
 16 17  1  0
 17 18  2  0
 18 19  1  0
 19 20  2  0
 20 21  1  0
  4 22  2  0
 22 23  1  0
 23  2  1  0
 21 17  1  0
  1 24  1  0
  1 25  1  0
  1 26  1  0
  3 27  1  0
  7 28  1  0
  8 29  1  0
  9 30  1  0
  9 31  1  0
  9 32  1  0
 10 33  1  0
 10 34  1  0
 11 35  1  0
 12 36  1  0
 12 37  1  0
 12 38  1  0
 13 39  1  0
 16 40  1  0
 16 41  1  0
 18 42  1  0
 19 43  1  0
 21 44  1  0
M  END
>  <Energy>  (546) 
34.846280115058114

>  <compound_id>  (546) 
24266

>  <target_id>  (546) 
1

>  <reference_id>  (546) 
96

>  <inspiration_ids>  (546) 
[59, 96]

>  <energy_score>  (546) 
-32.5426179774862

>  <distance_score>  (546) 
11.881574041423239

>  <path>  (546) 
/opt/xchem-fragalysis-2/maxwin/BulkDock/SCRATCH/511013/C24266-P96/C24266-P96.minimised.mol

>  <scratch_subdir>  (546) 
/opt/xchem-fragalysis-2/maxwin/BulkDock/SCRATCH/511013/C24266-P96

>  <fragmenstein_runtime>  (546) 
17.350237131118774

>  <fragmenstein_outcome>  (546) 
too moved

>  <fragmenstein_mode>  (546) 
expansion

>  <fragmenstein_error>  (546) 


$$$$
C24269-P59
     RDKit          3D

 42 43  0  0  0  0  0  0  0  0999 V2000
   -6.0086    0.4842   34.5327 C   0  0  0  0  0  0  0  0  0  0  0  0
   -5.4782   -0.4400   33.5308 C   0  0  0  0  0  0  0  0  0  0  0  0
   -6.0086   -1.4194   32.7241 C   0  0  0  0  0  0  0  0  0  0  0  0
   -4.8864   -2.0022   32.0853 C   0  0  0  0  0  0  0  0  0  0  0  0
   -4.6089   -3.1967   31.2133 C   0  0  0  0  0  0  0  0  0  0  0  0
   -3.6046   -3.7087   31.5532 O   0  0  0  0  0  0  0  0  0  0  0  0
   -5.8492   -3.6836   29.9601 N   0  0  0  0  0  0  0  0  0  0  0  0
   -5.8850   -4.5496   29.1015 C   0  0  0  0  0  0  0  0  0  0  0  0
   -7.4484   -3.5925   28.4058 C   0  0  0  0  0  0  0  0  0  0  0  0
   -8.2940   -2.9071   29.3098 O   0  0  0  0  0  0  0  0  0  0  0  0
   -5.8531   -5.5888   28.9366 C   0  0  0  0  0  0  0  0  0  0  0  0
   -5.6898   -7.8004   28.9648 C   0  0  0  0  0  0  0  0  0  0  0  0
   -6.6932   -9.6186   28.9547 N   0  0  0  0  0  0  0  0  0  0  0  0
   -6.0127  -11.5088   29.0972 C   0  0  0  0  0  0  0  0  0  0  0  0
   -4.8170  -11.8237   29.3307 O   0  0  0  0  0  0  0  0  0  0  0  0
   -7.1226  -13.2559   28.6817 C   0  0  0  0  0  0  0  0  0  0  0  0
   -8.4339  -14.0030   27.6010 C   0  0  0  0  0  0  0  0  0  0  0  0
   -8.6309  -15.3806   27.1679 C   0  0  0  0  0  0  0  0  0  0  0  0
   -9.7076  -15.5205   26.3210 C   0  0  0  0  0  0  0  0  0  0  0  0
  -10.5032  -14.4948   26.5291 N   0  0  0  0  0  0  0  0  0  0  0  0
   -9.7143  -13.6205   27.1949 N   0  0  0  0  0  0  0  0  0  0  0  0
   -3.7778   -1.2866   32.4133 N   0  0  0  0  0  0  0  0  0  0  0  0
   -4.1511   -0.3403   33.3156 O   0  0  0  0  0  0  0  0  0  0  0  0
   -5.5913    0.2524   35.5182 H   0  0  0  0  0  0  0  0  0  0  0  0
   -5.7451    1.5189   34.2953 H   0  0  0  0  0  0  0  0  0  0  0  0
   -7.0965    0.4027   34.6118 H   0  0  0  0  0  0  0  0  0  0  0  0
   -7.0490   -1.6854   32.6468 H   0  0  0  0  0  0  0  0  0  0  0  0
   -5.1975   -3.6401   28.8531 H   0  0  0  0  0  0  0  0  0  0  0  0
   -5.3847   -4.1319   28.1235 H   0  0  0  0  0  0  0  0  0  0  0  0
   -7.1176   -2.8083   27.7639 H   0  0  0  0  0  0  0  0  0  0  0  0
   -8.0598   -4.2240   27.7411 H   0  0  0  0  0  0  0  0  0  0  0  0
   -8.8107   -2.2674   28.7917 H   0  0  0  0  0  0  0  0  0  0  0  0
   -6.5417   -5.5917   27.9474 H   0  0  0  0  0  0  0  0  0  0  0  0
   -6.2300   -6.0859   29.9422 H   0  0  0  0  0  0  0  0  0  0  0  0
   -5.3315   -8.0001   27.9212 H   0  0  0  0  0  0  0  0  0  0  0  0
   -4.6442   -7.8761   29.1934 H   0  0  0  0  0  0  0  0  0  0  0  0
   -7.6606   -9.6242   28.6818 H   0  0  0  0  0  0  0  0  0  0  0  0
   -7.3111  -13.7026   29.6930 H   0  0  0  0  0  0  0  0  0  0  0  0
   -6.5908  -14.2065   28.6884 H   0  0  0  0  0  0  0  0  0  0  0  0
   -8.1184  -16.2731   27.5148 H   0  0  0  0  0  0  0  0  0  0  0  0
   -9.9973  -16.3680   25.7271 H   0  0  0  0  0  0  0  0  0  0  0  0
  -10.0760  -12.7082   27.0708 H   0  0  0  0  0  0  0  0  0  0  0  0
  1  2  1  0
  2  3  2  0
  3  4  1  0
  4  5  1  0
  5  6  2  0
  5  7  1  0
  7  8  1  0
  8  9  1  0
  9 10  1  0
  7 11  1  0
 11 12  1  0
 12 13  1  0
 13 14  1  0
 14 15  2  0
 14 16  1  0
 16 17  1  0
 17 18  2  0
 18 19  1  0
 19 20  2  0
 20 21  1  0
  4 22  2  0
 22 23  1  0
 23  2  1  0
 21 17  1  0
  1 24  1  0
  1 25  1  0
  1 26  1  0
  3 27  1  0
  8 28  1  0
  8 29  1  0
  9 30  1  0
  9 31  1  0
 10 32  1  0
 11 33  1  0
 11 34  1  0
 12 35  1  0
 12 36  1  0
 13 37  1  0
 16 38  1  0
 16 39  1  0
 18 40  1  0
 19 41  1  0
 21 42  1  0
M  END
>  <Energy>  (547) 
1674.6421298532384

>  <compound_id>  (547) 
24269

>  <target_id>  (547) 
1

>  <reference_id>  (547) 
59

>  <inspiration_ids>  (547) 
[59, 96]

>  <energy_score>  (547) 
1580.8334855600112

>  <distance_score>  (547) 
7.447307360315804

>  <path>  (547) 
/opt/xchem-fragalysis-2/maxwin/BulkDock/SCRATCH/511013/C24269-P59/C24269-P59.minimised.mol

>  <scratch_subdir>  (547) 
/opt/xchem-fragalysis-2/maxwin/BulkDock/SCRATCH/511013/C24269-P59

>  <fragmenstein_runtime>  (547) 
18.827425718307495

>  <fragmenstein_outcome>  (547) 
too moved

>  <fragmenstein_mode>  (547) 
expansion

>  <fragmenstein_error>  (547) 


$$$$
C24269-P96
     RDKit          3D

 42 43  0  0  0  0  0  0  0  0999 V2000
   -0.5745   -2.3940   30.6402 C   0  0  0  0  0  0  0  0  0  0  0  0
   -1.3039   -3.6748   30.6179 C   0  0  0  0  0  0  0  0  0  0  0  0
   -1.8320   -4.4462   29.6190 C   0  0  0  0  0  0  0  0  0  0  0  0
   -2.5035   -5.5265   30.2862 C   0  0  0  0  0  0  0  0  0  0  0  0
   -3.6505   -6.2432   29.6578 C   0  0  0  0  0  0  0  0  0  0  0  0
   -3.9581   -5.7446   28.6505 O   0  0  0  0  0  0  0  0  0  0  0  0
   -4.2746   -7.3973   30.4614 N   0  0  0  0  0  0  0  0  0  0  0  0
   -5.3322   -7.9425   30.2239 C   0  0  0  0  0  0  0  0  0  0  0  0
   -5.5649   -6.9312   31.7554 C   0  0  0  0  0  0  0  0  0  0  0  0
   -4.5734   -6.5544   32.7204 O   0  0  0  0  0  0  0  0  0  0  0  0
   -5.8486   -8.7759   30.0934 C   0  0  0  0  0  0  0  0  0  0  0  0
   -6.0922  -10.8165   29.6474 C   0  0  0  0  0  0  0  0  0  0  0  0
   -6.3625  -12.7876   30.0196 N   0  0  0  0  0  0  0  0  0  0  0  0
   -6.4748  -13.7441   31.6877 C   0  0  0  0  0  0  0  0  0  0  0  0
   -6.4939  -13.2603   32.8490 O   0  0  0  0  0  0  0  0  0  0  0  0
   -6.4237  -15.2803   31.7682 C   0  0  0  0  0  0  0  0  0  0  0  0
   -7.0643  -15.8084   33.0968 C   0  0  0  0  0  0  0  0  0  0  0  0
   -6.8786  -16.9751   33.8288 C   0  0  0  0  0  0  0  0  0  0  0  0
   -7.9125  -17.0005   34.7736 C   0  0  0  0  0  0  0  0  0  0  0  0
   -8.6621  -15.9008   34.7290 N   0  0  0  0  0  0  0  0  0  0  0  0
   -8.1035  -15.1708   33.7415 N   0  0  0  0  0  0  0  0  0  0  0  0
   -2.2601   -5.4538   31.6055 N   0  0  0  0  0  0  0  0  0  0  0  0
   -1.5238   -4.2926   31.8062 O   0  0  0  0  0  0  0  0  0  0  0  0
   -0.1708   -2.1555   29.6514 H   0  0  0  0  0  0  0  0  0  0  0  0
   -1.2432   -1.5828   30.9434 H   0  0  0  0  0  0  0  0  0  0  0  0
    0.2600   -2.4347   31.3471 H   0  0  0  0  0  0  0  0  0  0  0  0
   -1.8576   -4.2079   28.5663 H   0  0  0  0  0  0  0  0  0  0  0  0
   -4.3015   -8.3591   29.5427 H   0  0  0  0  0  0  0  0  0  0  0  0
   -5.7636   -6.9818   29.6568 H   0  0  0  0  0  0  0  0  0  0  0  0
   -5.9291   -6.0210   31.3627 H   0  0  0  0  0  0  0  0  0  0  0  0
   -6.3931   -7.2670   32.2939 H   0  0  0  0  0  0  0  0  0  0  0  0
   -4.4866   -7.2690   33.3863 H   0  0  0  0  0  0  0  0  0  0  0  0
   -6.6367   -8.6767   29.1825 H   0  0  0  0  0  0  0  0  0  0  0  0
   -6.5849   -8.8190   30.9702 H   0  0  0  0  0  0  0  0  0  0  0  0
   -5.7405  -10.8928   28.6085 H   0  0  0  0  0  0  0  0  0  0  0  0
   -7.0545  -10.7209   30.1530 H   0  0  0  0  0  0  0  0  0  0  0  0
   -6.2767  -13.4365   29.2537 H   0  0  0  0  0  0  0  0  0  0  0  0
   -6.7364  -15.8808   30.9429 H   0  0  0  0  0  0  0  0  0  0  0  0
   -5.3667  -15.3676   31.7076 H   0  0  0  0  0  0  0  0  0  0  0  0
   -6.1509  -17.7498   33.6353 H   0  0  0  0  0  0  0  0  0  0  0  0
   -8.1485  -17.7698   35.4958 H   0  0  0  0  0  0  0  0  0  0  0  0
   -8.4769  -14.2426   33.5416 H   0  0  0  0  0  0  0  0  0  0  0  0
  1  2  1  0
  2  3  2  0
  3  4  1  0
  4  5  1  0
  5  6  2  0
  5  7  1  0
  7  8  1  0
  8  9  1  0
  9 10  1  0
  7 11  1  0
 11 12  1  0
 12 13  1  0
 13 14  1  0
 14 15  2  0
 14 16  1  0
 16 17  1  0
 17 18  2  0
 18 19  1  0
 19 20  2  0
 20 21  1  0
  4 22  2  0
 22 23  1  0
 23  2  1  0
 21 17  1  0
  1 24  1  0
  1 25  1  0
  1 26  1  0
  3 27  1  0
  8 28  1  0
  8 29  1  0
  9 30  1  0
  9 31  1  0
 10 32  1  0
 11 33  1  0
 11 34  1  0
 12 35  1  0
 12 36  1  0
 13 37  1  0
 16 38  1  0
 16 39  1  0
 18 40  1  0
 19 41  1  0
 21 42  1  0
M  END
>  <Energy>  (548) 
1330.0327705242219

>  <compound_id>  (548) 
24269

>  <target_id>  (548) 
1

>  <reference_id>  (548) 
96

>  <inspiration_ids>  (548) 
[59, 96]

>  <energy_score>  (548) 
1236.2241262309901

>  <distance_score>  (548) 
7.366549122920934

>  <path>  (548) 
/opt/xchem-fragalysis-2/maxwin/BulkDock/SCRATCH/511013/C24269-P96/C24269-P96.minimised.mol

>  <scratch_subdir>  (548) 
/opt/xchem-fragalysis-2/maxwin/BulkDock/SCRATCH/511013/C24269-P96

>  <fragmenstein_runtime>  (548) 
11.885294675827026

>  <fragmenstein_outcome>  (548) 
too moved

>  <fragmenstein_mode>  (548) 
expansion

>  <fragmenstein_error>  (548) 


$$$$
C24271-P59
     RDKit          3D

 44 45  0  0  0  0  0  0  0  0999 V2000
   -6.6322    2.0630   35.8565 C   0  0  0  0  0  0  0  0  0  0  0  0
   -7.6172    0.9672   35.9593 C   0  0  0  0  0  0  0  0  0  0  0  0
   -7.5049   -0.3867   35.8384 C   0  0  0  0  0  0  0  0  0  0  0  0
   -8.8528   -0.8241   35.5486 C   0  0  0  0  0  0  0  0  0  0  0  0
   -9.0134   -1.9216   34.5541 C   0  0  0  0  0  0  0  0  0  0  0  0
   -7.9506   -2.1827   34.0635 O   0  0  0  0  0  0  0  0  0  0  0  0
  -10.4584   -2.4732   34.2203 N   0  0  0  0  0  0  0  0  0  0  0  0
  -10.7641   -3.6855   35.1035 C   0  0  0  0  0  0  0  0  0  0  0  0
  -11.0777   -3.6917   32.7307 C   0  0  0  0  0  0  0  0  0  0  0  0
  -11.7422   -5.5154   31.8486 C   0  0  0  0  0  0  0  0  0  0  0  0
  -10.9253   -7.5218   32.0497 C   0  0  0  0  0  0  0  0  0  0  0  0
   -9.9543   -9.0985   33.0423 N   0  0  0  0  0  0  0  0  0  0  0  0
   -9.0265   -7.5362   33.1738 C   0  0  0  0  0  0  0  0  0  0  0  0
   -9.3972  -10.9446   32.3688 C   0  0  0  0  0  0  0  0  0  0  0  0
   -8.3251  -10.9149   31.9161 O   0  0  0  0  0  0  0  0  0  0  0  0
   -9.9956  -12.9975   32.5120 C   0  0  0  0  0  0  0  0  0  0  0  0
  -10.8524  -14.5818   33.2198 C   0  0  0  0  0  0  0  0  0  0  0  0
  -10.5713  -15.6765   34.0469 C   0  0  0  0  0  0  0  0  0  0  0  0
  -11.8433  -16.0514   34.6536 C   0  0  0  0  0  0  0  0  0  0  0  0
  -12.8733  -15.4142   34.0810 N   0  0  0  0  0  0  0  0  0  0  0  0
  -12.3006  -14.9427   32.9313 N   0  0  0  0  0  0  0  0  0  0  0  0
   -9.7212    0.1272   35.9104 N   0  0  0  0  0  0  0  0  0  0  0  0
   -8.9359    1.2776   36.0994 O   0  0  0  0  0  0  0  0  0  0  0  0
   -6.1812    2.2584   36.8341 H   0  0  0  0  0  0  0  0  0  0  0  0
   -7.1067    2.9855   35.5077 H   0  0  0  0  0  0  0  0  0  0  0  0
   -5.8337    1.8059   35.1535 H   0  0  0  0  0  0  0  0  0  0  0  0
   -6.5886   -0.9146   35.6120 H   0  0  0  0  0  0  0  0  0  0  0  0
  -10.3564   -4.6723   35.3647 H   0  0  0  0  0  0  0  0  0  0  0  0
  -10.3553   -3.2550   36.0436 H   0  0  0  0  0  0  0  0  0  0  0  0
  -11.7994   -3.5658   35.4386 H   0  0  0  0  0  0  0  0  0  0  0  0
  -11.5188   -3.0945   31.9206 H   0  0  0  0  0  0  0  0  0  0  0  0
  -11.6822   -3.4939   33.5035 H   0  0  0  0  0  0  0  0  0  0  0  0
  -11.7437   -5.3509   30.7053 H   0  0  0  0  0  0  0  0  0  0  0  0
  -12.7904   -5.2171   31.7028 H   0  0  0  0  0  0  0  0  0  0  0  0
  -10.4070   -7.3428   31.0754 H   0  0  0  0  0  0  0  0  0  0  0  0
  -10.6075   -6.9490   32.8484 H   0  0  0  0  0  0  0  0  0  0  0  0
   -8.0099   -7.4793   33.5220 H   0  0  0  0  0  0  0  0  0  0  0  0
   -9.4689   -6.8858   33.8899 H   0  0  0  0  0  0  0  0  0  0  0  0
   -8.8041   -7.0225   32.2794 H   0  0  0  0  0  0  0  0  0  0  0  0
   -9.1804  -13.0584   33.2415 H   0  0  0  0  0  0  0  0  0  0  0  0
   -9.4322  -13.9945   32.2099 H   0  0  0  0  0  0  0  0  0  0  0  0
   -9.6650  -16.1317   34.3848 H   0  0  0  0  0  0  0  0  0  0  0  0
  -12.0094  -16.7489   35.4635 H   0  0  0  0  0  0  0  0  0  0  0  0
  -12.9352  -14.6061   32.2091 H   0  0  0  0  0  0  0  0  0  0  0  0
  1  2  1  0
  2  3  2  0
  3  4  1  0
  4  5  1  0
  5  6  2  0
  5  7  1  0
  7  8  1  0
  7  9  1  0
  9 10  1  0
 10 11  1  0
 11 12  1  0
 12 13  1  0
 12 14  1  0
 14 15  2  0
 14 16  1  0
 16 17  1  0
 17 18  2  0
 18 19  1  0
 19 20  2  0
 20 21  1  0
  4 22  2  0
 22 23  1  0
 23  2  1  0
 21 17  1  0
  1 24  1  0
  1 25  1  0
  1 26  1  0
  3 27  1  0
  8 28  1  0
  8 29  1  0
  8 30  1  0
  9 31  1  0
  9 32  1  0
 10 33  1  0
 10 34  1  0
 11 35  1  0
 11 36  1  0
 13 37  1  0
 13 38  1  0
 13 39  1  0
 16 40  1  0
 16 41  1  0
 18 42  1  0
 19 43  1  0
 21 44  1  0
M  END
>  <Energy>  (549) 
1387.3067383839993

>  <compound_id>  (549) 
24271

>  <target_id>  (549) 
1

>  <reference_id>  (549) 
59

>  <inspiration_ids>  (549) 
[59, 96]

>  <energy_score>  (549) 
1293.6960659673605

>  <distance_score>  (549) 
9.25422715555509

>  <path>  (549) 
/opt/xchem-fragalysis-2/maxwin/BulkDock/SCRATCH/511013/C24271-P59/C24271-P59.minimised.mol

>  <scratch_subdir>  (549) 
/opt/xchem-fragalysis-2/maxwin/BulkDock/SCRATCH/511013/C24271-P59

>  <fragmenstein_runtime>  (549) 
16.664876461029053

>  <fragmenstein_outcome>  (549) 
too moved

>  <fragmenstein_mode>  (549) 
expansion

>  <fragmenstein_error>  (549) 


$$$$
C24271-P96
     RDKit          3D

 44 45  0  0  0  0  0  0  0  0999 V2000
   -5.0950    1.8627   36.5248 C   0  0  0  0  0  0  0  0  0  0  0  0
   -6.1775    1.0837   37.1685 C   0  0  0  0  0  0  0  0  0  0  0  0
   -6.2271    0.0457   38.0726 C   0  0  0  0  0  0  0  0  0  0  0  0
   -7.5626   -0.4775   37.9587 C   0  0  0  0  0  0  0  0  0  0  0  0
   -7.9394   -1.9188   38.2150 C   0  0  0  0  0  0  0  0  0  0  0  0
   -7.3994   -2.5279   39.1028 O   0  0  0  0  0  0  0  0  0  0  0  0
   -8.8806   -2.3592   37.2143 N   0  0  0  0  0  0  0  0  0  0  0  0
  -10.2798   -2.1821   37.7134 C   0  0  0  0  0  0  0  0  0  0  0  0
   -9.4618   -3.9001   36.8472 C   0  0  0  0  0  0  0  0  0  0  0  0
   -7.9712   -5.1376   36.3221 C   0  0  0  0  0  0  0  0  0  0  0  0
   -7.1214   -7.0252   34.9690 C   0  0  0  0  0  0  0  0  0  0  0  0
   -8.5977   -8.6919   34.7320 N   0  0  0  0  0  0  0  0  0  0  0  0
   -9.9237   -7.4070   35.4910 C   0  0  0  0  0  0  0  0  0  0  0  0
   -8.5258   -9.4209   32.9161 C   0  0  0  0  0  0  0  0  0  0  0  0
   -9.1418   -9.1138   31.9686 O   0  0  0  0  0  0  0  0  0  0  0  0
   -7.4728  -11.2651   32.4182 C   0  0  0  0  0  0  0  0  0  0  0  0
   -6.9993  -13.0026   33.1735 C   0  0  0  0  0  0  0  0  0  0  0  0
   -5.8102  -13.6034   33.5986 C   0  0  0  0  0  0  0  0  0  0  0  0
   -6.1195  -14.9601   33.8476 C   0  0  0  0  0  0  0  0  0  0  0  0
   -7.4030  -15.2350   33.6388 N   0  0  0  0  0  0  0  0  0  0  0  0
   -7.8872  -14.0854   33.1492 N   0  0  0  0  0  0  0  0  0  0  0  0
   -8.3108    0.3802   37.2320 N   0  0  0  0  0  0  0  0  0  0  0  0
   -7.4398    1.3387   36.7361 O   0  0  0  0  0  0  0  0  0  0  0  0
   -4.6749    1.3037   35.6842 H   0  0  0  0  0  0  0  0  0  0  0  0
   -4.2967    2.0786   37.2407 H   0  0  0  0  0  0  0  0  0  0  0  0
   -5.4728    2.8177   36.1462 H   0  0  0  0  0  0  0  0  0  0  0  0
   -5.3834   -0.4551   38.5288 H   0  0  0  0  0  0  0  0  0  0  0  0
  -10.3732   -1.1198   37.9776 H   0  0  0  0  0  0  0  0  0  0  0  0
  -10.4532   -2.6855   38.6759 H   0  0  0  0  0  0  0  0  0  0  0  0
  -11.0796   -2.3271   36.9849 H   0  0  0  0  0  0  0  0  0  0  0  0
  -10.0412   -3.8733   35.9674 H   0  0  0  0  0  0  0  0  0  0  0  0
  -10.0909   -4.2924   37.6680 H   0  0  0  0  0  0  0  0  0  0  0  0
   -7.5963   -4.0674   36.6868 H   0  0  0  0  0  0  0  0  0  0  0  0
   -9.1303   -5.4040   36.4300 H   0  0  0  0  0  0  0  0  0  0  0  0
   -6.3161   -7.5853   35.5468 H   0  0  0  0  0  0  0  0  0  0  0  0
   -6.5796   -6.8168   34.0383 H   0  0  0  0  0  0  0  0  0  0  0  0
  -10.7796   -7.8623   34.8525 H   0  0  0  0  0  0  0  0  0  0  0  0
  -10.1152   -7.2489   36.6382 H   0  0  0  0  0  0  0  0  0  0  0  0
  -10.4164   -8.3374   35.9956 H   0  0  0  0  0  0  0  0  0  0  0  0
   -8.2052  -11.8552   31.7423 H   0  0  0  0  0  0  0  0  0  0  0  0
   -7.3812  -11.0853   31.2488 H   0  0  0  0  0  0  0  0  0  0  0  0
   -4.8391  -13.1368   33.6856 H   0  0  0  0  0  0  0  0  0  0  0  0
   -5.4606  -15.7506   34.1811 H   0  0  0  0  0  0  0  0  0  0  0  0
   -8.8668  -14.0186   32.8938 H   0  0  0  0  0  0  0  0  0  0  0  0
  1  2  1  0
  2  3  2  0
  3  4  1  0
  4  5  1  0
  5  6  2  0
  5  7  1  0
  7  8  1  0
  7  9  1  0
  9 10  1  0
 10 11  1  0
 11 12  1  0
 12 13  1  0
 12 14  1  0
 14 15  2  0
 14 16  1  0
 16 17  1  0
 17 18  2  0
 18 19  1  0
 19 20  2  0
 20 21  1  0
  4 22  2  0
 22 23  1  0
 23  2  1  0
 21 17  1  0
  1 24  1  0
  1 25  1  0
  1 26  1  0
  3 27  1  0
  8 28  1  0
  8 29  1  0
  8 30  1  0
  9 31  1  0
  9 32  1  0
 10 33  1  0
 10 34  1  0
 11 35  1  0
 11 36  1  0
 13 37  1  0
 13 38  1  0
 13 39  1  0
 16 40  1  0
 16 41  1  0
 18 42  1  0
 19 43  1  0
 21 44  1  0
M  END
>  <Energy>  (550) 
1388.9237849485942

>  <compound_id>  (550) 
24271

>  <target_id>  (550) 
1

>  <reference_id>  (550) 
96

>  <inspiration_ids>  (550) 
[59, 96]

>  <energy_score>  (550) 
1295.3131125319694

>  <distance_score>  (550) 
9.59398081234244

>  <path>  (550) 
/opt/xchem-fragalysis-2/maxwin/BulkDock/SCRATCH/511013/C24271-P96/C24271-P96.minimised.mol

>  <scratch_subdir>  (550) 
/opt/xchem-fragalysis-2/maxwin/BulkDock/SCRATCH/511013/C24271-P96

>  <fragmenstein_runtime>  (550) 
12.927820682525635

>  <fragmenstein_outcome>  (550) 
too moved

>  <fragmenstein_mode>  (550) 
expansion

>  <fragmenstein_error>  (550) 


$$$$
C24278-P59
     RDKit          3D

 39 40  0  0  0  0  0  0  0  0999 V2000
   -2.7834   -0.0153   33.5206 C   0  0  0  0  0  0  0  0  0  0  0  0
   -3.8854   -0.9721   33.3383 C   0  0  0  0  0  0  0  0  0  0  0  0
   -4.3366   -1.7107   32.2875 C   0  0  0  0  0  0  0  0  0  0  0  0
   -5.2475   -2.7895   32.7842 C   0  0  0  0  0  0  0  0  0  0  0  0
   -4.8881   -4.2016   31.9164 C   0  0  0  0  0  0  0  0  0  0  0  0
   -3.7936   -4.0322   31.3521 O   0  0  0  0  0  0  0  0  0  0  0  0
   -6.0875   -5.8851   32.0175 N   0  0  0  0  0  0  0  0  0  0  0  0
   -5.9257   -7.9216   31.4109 C   0  0  0  0  0  0  0  0  0  0  0  0
   -7.3677   -7.2834   32.7899 C   0  0  0  0  0  0  0  0  0  0  0  0
   -7.1771   -6.4304   33.9683 O   0  0  0  0  0  0  0  0  0  0  0  0
   -6.5034   -9.3975   29.7490 C   0  0  0  0  0  0  0  0  0  0  0  0
   -6.2315  -11.3538   28.8988 N   0  0  0  0  0  0  0  0  0  0  0  0
   -6.5624  -12.0493   27.0531 C   0  0  0  0  0  0  0  0  0  0  0  0
   -6.8898  -11.3247   26.0479 O   0  0  0  0  0  0  0  0  0  0  0  0
   -6.6450  -13.4214   26.6954 C   0  0  0  0  0  0  0  0  0  0  0  0
   -8.2649  -13.8758   26.1022 C   0  0  0  0  0  0  0  0  0  0  0  0
   -9.5089  -13.9319   26.6760 C   0  0  0  0  0  0  0  0  0  0  0  0
  -10.3604  -14.4505   25.6964 C   0  0  0  0  0  0  0  0  0  0  0  0
   -9.7006  -14.8656   24.6183 N   0  0  0  0  0  0  0  0  0  0  0  0
   -8.4404  -14.4579   24.8574 N   0  0  0  0  0  0  0  0  0  0  0  0
   -5.2197   -2.5381   34.1367 N   0  0  0  0  0  0  0  0  0  0  0  0
   -4.5329   -1.4013   34.4290 O   0  0  0  0  0  0  0  0  0  0  0  0
   -3.1526    0.9238   33.9424 H   0  0  0  0  0  0  0  0  0  0  0  0
   -2.0359   -0.4238   34.2082 H   0  0  0  0  0  0  0  0  0  0  0  0
   -2.2822    0.1941   32.5715 H   0  0  0  0  0  0  0  0  0  0  0  0
   -3.8021   -1.7212   31.3487 H   0  0  0  0  0  0  0  0  0  0  0  0
   -6.8616   -5.7567   32.6196 H   0  0  0  0  0  0  0  0  0  0  0  0
   -4.9630   -8.3200   31.9199 H   0  0  0  0  0  0  0  0  0  0  0  0
   -8.0518   -6.7676   32.1780 H   0  0  0  0  0  0  0  0  0  0  0  0
   -8.2907   -7.7375   33.1599 H   0  0  0  0  0  0  0  0  0  0  0  0
   -7.3711   -6.9383   34.7651 H   0  0  0  0  0  0  0  0  0  0  0  0
   -6.6034   -8.8482   28.8110 H   0  0  0  0  0  0  0  0  0  0  0  0
   -7.4882   -9.7811   29.9798 H   0  0  0  0  0  0  0  0  0  0  0  0
   -5.8951  -12.1090   29.4904 H   0  0  0  0  0  0  0  0  0  0  0  0
   -6.6965  -13.2193   25.6246 H   0  0  0  0  0  0  0  0  0  0  0  0
   -7.1064  -13.8466   27.6038 H   0  0  0  0  0  0  0  0  0  0  0  0
   -9.7808  -13.6172   27.6594 H   0  0  0  0  0  0  0  0  0  0  0  0
  -11.4344  -14.5452   25.7337 H   0  0  0  0  0  0  0  0  0  0  0  0
   -7.7413  -14.6141   24.1396 H   0  0  0  0  0  0  0  0  0  0  0  0
  1  2  1  0
  2  3  2  0
  3  4  1  0
  4  5  1  0
  5  6  2  0
  5  7  1  0
  7  8  1  0
  8  9  1  0
  9 10  1  0
  8 11  1  0
 11 12  1  0
 12 13  1  0
 13 14  2  0
 13 15  1  0
 15 16  1  0
 16 17  2  0
 17 18  1  0
 18 19  2  0
 19 20  1  0
  4 21  2  0
 21 22  1  0
 22  2  1  0
 20 16  1  0
  1 23  1  0
  1 24  1  0
  1 25  1  0
  3 26  1  0
  7 27  1  0
  8 28  1  0
  9 29  1  0
  9 30  1  0
 10 31  1  0
 11 32  1  0
 11 33  1  0
 12 34  1  0
 15 35  1  0
 15 36  1  0
 17 37  1  0
 18 38  1  0
 20 39  1  0
M  END
>  <Energy>  (551) 
1201.2089237012674

>  <compound_id>  (551) 
24278

>  <target_id>  (551) 
1

>  <reference_id>  (551) 
59

>  <inspiration_ids>  (551) 
[59, 96]

>  <energy_score>  (551) 
1121.3375446933692

>  <distance_score>  (551) 
7.721895673158336

>  <path>  (551) 
/opt/xchem-fragalysis-2/maxwin/BulkDock/SCRATCH/511013/C24278-P59/C24278-P59.minimised.mol

>  <scratch_subdir>  (551) 
/opt/xchem-fragalysis-2/maxwin/BulkDock/SCRATCH/511013/C24278-P59

>  <fragmenstein_runtime>  (551) 
18.073498725891113

>  <fragmenstein_outcome>  (551) 
too moved

>  <fragmenstein_mode>  (551) 
expansion

>  <fragmenstein_error>  (551) 


$$$$
C24278-P96
     RDKit          3D

 39 40  0  0  0  0  0  0  0  0999 V2000
   -1.4576   -5.2409   25.2823 C   0  0  0  0  0  0  0  0  0  0  0  0
   -1.4909   -6.2395   26.3671 C   0  0  0  0  0  0  0  0  0  0  0  0
   -1.3350   -7.6259   26.4941 C   0  0  0  0  0  0  0  0  0  0  0  0
   -1.9776   -7.9662   27.7516 C   0  0  0  0  0  0  0  0  0  0  0  0
   -3.3068   -8.8166   28.4755 C   0  0  0  0  0  0  0  0  0  0  0  0
   -3.6288   -8.2536   29.4902 O   0  0  0  0  0  0  0  0  0  0  0  0
   -4.1633  -10.1955   27.7673 N   0  0  0  0  0  0  0  0  0  0  0  0
   -5.7926  -11.0483   28.2666 C   0  0  0  0  0  0  0  0  0  0  0  0
   -6.2064   -9.6336   29.5494 C   0  0  0  0  0  0  0  0  0  0  0  0
   -5.7663   -8.4190   30.1800 O   0  0  0  0  0  0  0  0  0  0  0  0
   -7.0111  -12.5161   27.2510 C   0  0  0  0  0  0  0  0  0  0  0  0
   -8.1364  -14.0467   27.4815 N   0  0  0  0  0  0  0  0  0  0  0  0
   -7.9384  -15.8633   27.0470 C   0  0  0  0  0  0  0  0  0  0  0  0
   -7.0221  -16.3198   26.4104 O   0  0  0  0  0  0  0  0  0  0  0  0
   -9.1136  -17.3963   27.7351 C   0  0  0  0  0  0  0  0  0  0  0  0
   -9.6722  -19.1497   28.9128 C   0  0  0  0  0  0  0  0  0  0  0  0
  -10.1357  -19.5763   30.2623 C   0  0  0  0  0  0  0  0  0  0  0  0
  -10.8739  -20.7767   30.2407 C   0  0  0  0  0  0  0  0  0  0  0  0
  -10.8930  -21.2977   29.0376 N   0  0  0  0  0  0  0  0  0  0  0  0
  -10.2187  -20.4115   28.2871 N   0  0  0  0  0  0  0  0  0  0  0  0
   -1.9881   -6.7500   28.4272 N   0  0  0  0  0  0  0  0  0  0  0  0
   -1.7825   -5.7293   27.5733 O   0  0  0  0  0  0  0  0  0  0  0  0
   -2.4575   -5.0932   24.8627 H   0  0  0  0  0  0  0  0  0  0  0  0
   -1.1443   -4.2652   25.6604 H   0  0  0  0  0  0  0  0  0  0  0  0
   -0.8105   -5.5707   24.4678 H   0  0  0  0  0  0  0  0  0  0  0  0
   -1.0750   -8.1994   25.6320 H   0  0  0  0  0  0  0  0  0  0  0  0
   -3.7574  -10.4170   26.9076 H   0  0  0  0  0  0  0  0  0  0  0  0
   -5.4092  -11.7960   28.8853 H   0  0  0  0  0  0  0  0  0  0  0  0
   -6.9118  -10.0918   30.2459 H   0  0  0  0  0  0  0  0  0  0  0  0
   -6.7895   -8.9928   28.8547 H   0  0  0  0  0  0  0  0  0  0  0  0
   -6.1718   -8.2322   31.0308 H   0  0  0  0  0  0  0  0  0  0  0  0
   -7.2129  -12.3107   26.1973 H   0  0  0  0  0  0  0  0  0  0  0  0
   -6.4474  -13.2325   27.7917 H   0  0  0  0  0  0  0  0  0  0  0  0
   -8.8502  -13.9365   28.0278 H   0  0  0  0  0  0  0  0  0  0  0  0
   -9.5385  -17.1251   26.7700 H   0  0  0  0  0  0  0  0  0  0  0  0
  -10.2624  -16.9905   28.2074 H   0  0  0  0  0  0  0  0  0  0  0  0
   -9.9765  -19.0673   31.2084 H   0  0  0  0  0  0  0  0  0  0  0  0
  -11.3455  -21.2941   31.0653 H   0  0  0  0  0  0  0  0  0  0  0  0
  -10.4508  -20.4304   27.3118 H   0  0  0  0  0  0  0  0  0  0  0  0
  1  2  1  0
  2  3  2  0
  3  4  1  0
  4  5  1  0
  5  6  2  0
  5  7  1  0
  7  8  1  0
  8  9  1  0
  9 10  1  0
  8 11  1  0
 11 12  1  0
 12 13  1  0
 13 14  2  0
 13 15  1  0
 15 16  1  0
 16 17  2  0
 17 18  1  0
 18 19  2  0
 19 20  1  0
  4 21  2  0
 21 22  1  0
 22  2  1  0
 20 16  1  0
  1 23  1  0
  1 24  1  0
  1 25  1  0
  3 26  1  0
  7 27  1  0
  8 28  1  0
  9 29  1  0
  9 30  1  0
 10 31  1  0
 11 32  1  0
 11 33  1  0
 12 34  1  0
 15 35  1  0
 15 36  1  0
 17 37  1  0
 18 38  1  0
 20 39  1  0
M  END
>  <Energy>  (552) 
975.85168717565602

>  <compound_id>  (552) 
24278

>  <target_id>  (552) 
1

>  <reference_id>  (552) 
96

>  <inspiration_ids>  (552) 
[59, 96]

>  <energy_score>  (552) 
895.9803081677419

>  <distance_score>  (552) 
7.386988578528256

>  <path>  (552) 
/opt/xchem-fragalysis-2/maxwin/BulkDock/SCRATCH/511013/C24278-P96/C24278-P96.minimised.mol

>  <scratch_subdir>  (552) 
/opt/xchem-fragalysis-2/maxwin/BulkDock/SCRATCH/511013/C24278-P96

>  <fragmenstein_runtime>  (552) 
12.866491079330444

>  <fragmenstein_outcome>  (552) 
too moved

>  <fragmenstein_mode>  (552) 
expansion

>  <fragmenstein_error>  (552) 


$$$$
C24279-P59
     RDKit          3D

 44 45  0  0  0  0  0  0  0  0999 V2000
   -0.7140    0.3819   30.2791 C   0  0  0  0  0  0  0  0  0  0  0  0
   -1.8305   -0.4542   30.7586 C   0  0  0  0  0  0  0  0  0  0  0  0
   -2.3647   -1.6246   30.3082 C   0  0  0  0  0  0  0  0  0  0  0  0
   -3.3477   -1.9874   31.2903 C   0  0  0  0  0  0  0  0  0  0  0  0
   -3.8174   -3.4504   31.4069 C   0  0  0  0  0  0  0  0  0  0  0  0
   -5.1016   -4.3226   32.4105 C   0  0  0  0  0  0  0  0  0  0  0  0
   -5.1837   -3.7697   33.4648 O   0  0  0  0  0  0  0  0  0  0  0  0
   -6.2154   -5.8537   31.6282 N   0  0  0  0  0  0  0  0  0  0  0  0
   -7.8894   -6.7917   32.2888 C   0  0  0  0  0  0  0  0  0  0  0  0
   -9.3381   -7.1951   33.2967 C   0  0  0  0  0  0  0  0  0  0  0  0
   -7.4716   -6.5821   33.7441 C   0  0  0  0  0  0  0  0  0  0  0  0
   -9.5341   -7.0261   30.9045 C   0  0  0  0  0  0  0  0  0  0  0  0
   -9.7963   -7.7923   29.3551 N   0  0  0  0  0  0  0  0  0  0  0  0
  -10.7853   -7.5091   28.2916 C   0  0  0  0  0  0  0  0  0  0  0  0
  -11.6584   -6.6818   28.2344 O   0  0  0  0  0  0  0  0  0  0  0  0
  -10.6115   -8.3365   26.9961 C   0  0  0  0  0  0  0  0  0  0  0  0
  -11.7124   -9.3398   26.6402 C   0  0  0  0  0  0  0  0  0  0  0  0
  -11.7688  -10.2714   25.6057 C   0  0  0  0  0  0  0  0  0  0  0  0
  -12.8557  -11.1120   25.9085 C   0  0  0  0  0  0  0  0  0  0  0  0
  -13.5008  -10.7096   27.0022 N   0  0  0  0  0  0  0  0  0  0  0  0
  -12.8411   -9.5923   27.3811 N   0  0  0  0  0  0  0  0  0  0  0  0
   -3.4520   -1.0305   32.2226 N   0  0  0  0  0  0  0  0  0  0  0  0
   -2.4777   -0.0877   31.8974 O   0  0  0  0  0  0  0  0  0  0  0  0
   -0.4070    1.1107   31.0350 H   0  0  0  0  0  0  0  0  0  0  0  0
   -0.9995    0.9179   29.3692 H   0  0  0  0  0  0  0  0  0  0  0  0
    0.1555   -0.2410   30.0459 H   0  0  0  0  0  0  0  0  0  0  0  0
   -2.0279   -2.2016   29.4574 H   0  0  0  0  0  0  0  0  0  0  0  0
   -3.3081   -3.3150   32.4118 H   0  0  0  0  0  0  0  0  0  0  0  0
   -2.8784   -3.9307   31.0702 H   0  0  0  0  0  0  0  0  0  0  0  0
   -5.9761   -6.0601   30.6811 H   0  0  0  0  0  0  0  0  0  0  0  0
   -9.5521   -6.5416   34.1099 H   0  0  0  0  0  0  0  0  0  0  0  0
   -9.4373   -8.2328   33.5425 H   0  0  0  0  0  0  0  0  0  0  0  0
  -10.3708   -7.1144   32.9410 H   0  0  0  0  0  0  0  0  0  0  0  0
   -7.9517   -6.7126   34.7131 H   0  0  0  0  0  0  0  0  0  0  0  0
   -6.8227   -7.3621   33.5460 H   0  0  0  0  0  0  0  0  0  0  0  0
   -6.7877   -5.8462   34.1211 H   0  0  0  0  0  0  0  0  0  0  0  0
  -10.5364   -7.2933   31.3388 H   0  0  0  0  0  0  0  0  0  0  0  0
   -9.9334   -6.3037   30.2043 H   0  0  0  0  0  0  0  0  0  0  0  0
   -9.2596   -8.6254   29.1006 H   0  0  0  0  0  0  0  0  0  0  0  0
  -10.5763   -7.6029   26.1774 H   0  0  0  0  0  0  0  0  0  0  0  0
   -9.6195   -8.7953   26.9842 H   0  0  0  0  0  0  0  0  0  0  0  0
  -11.0563  -10.3840   24.8002 H   0  0  0  0  0  0  0  0  0  0  0  0
  -13.2011  -11.9921   25.3823 H   0  0  0  0  0  0  0  0  0  0  0  0
  -13.1921   -9.0813   28.1849 H   0  0  0  0  0  0  0  0  0  0  0  0
  1  2  1  0
  2  3  2  0
  3  4  1  0
  4  5  1  0
  5  6  1  0
  6  7  2  0
  6  8  1  0
  8  9  1  0
  9 10  1  0
  9 11  1  0
  9 12  1  0
 12 13  1  0
 13 14  1  0
 14 15  2  0
 14 16  1  0
 16 17  1  0
 17 18  2  0
 18 19  1  0
 19 20  2  0
 20 21  1  0
  4 22  2  0
 22 23  1  0
 23  2  1  0
 21 17  1  0
  1 24  1  0
  1 25  1  0
  1 26  1  0
  3 27  1  0
  5 28  1  0
  5 29  1  0
  8 30  1  0
 10 31  1  0
 10 32  1  0
 10 33  1  0
 11 34  1  0
 11 35  1  0
 11 36  1  0
 12 37  1  0
 12 38  1  0
 13 39  1  0
 16 40  1  0
 16 41  1  0
 18 42  1  0
 19 43  1  0
 21 44  1  0
M  END
>  <Energy>  (553) 
783.50943725363993

>  <compound_id>  (553) 
24279

>  <target_id>  (553) 
1

>  <reference_id>  (553) 
59

>  <inspiration_ids>  (553) 
[59, 96]

>  <energy_score>  (553) 
684.9264167278311

>  <distance_score>  (553) 
9.24742842695158

>  <path>  (553) 
/opt/xchem-fragalysis-2/maxwin/BulkDock/SCRATCH/511013/C24279-P59/C24279-P59.minimised.mol

>  <scratch_subdir>  (553) 
/opt/xchem-fragalysis-2/maxwin/BulkDock/SCRATCH/511013/C24279-P59

>  <fragmenstein_runtime>  (553) 
14.48418402671814

>  <fragmenstein_outcome>  (553) 
too moved

>  <fragmenstein_mode>  (553) 
expansion

>  <fragmenstein_error>  (553) 


$$$$
C24279-P96
     RDKit          3D

 44 45  0  0  0  0  0  0  0  0999 V2000
    0.8490   -1.7131   29.6170 C   0  0  0  0  0  0  0  0  0  0  0  0
   -0.0984   -2.1975   30.6349 C   0  0  0  0  0  0  0  0  0  0  0  0
   -1.0294   -3.2040   30.6675 C   0  0  0  0  0  0  0  0  0  0  0  0
   -1.6372   -3.0933   31.9395 C   0  0  0  0  0  0  0  0  0  0  0  0
   -2.9473   -3.6739   32.3703 C   0  0  0  0  0  0  0  0  0  0  0  0
   -3.2593   -5.1500   32.3778 C   0  0  0  0  0  0  0  0  0  0  0  0
   -2.3409   -5.8223   31.9635 O   0  0  0  0  0  0  0  0  0  0  0  0
   -4.7200   -5.5680   32.8055 N   0  0  0  0  0  0  0  0  0  0  0  0
   -5.4666   -6.9944   32.7185 C   0  0  0  0  0  0  0  0  0  0  0  0
   -5.2774   -6.9334   31.1332 C   0  0  0  0  0  0  0  0  0  0  0  0
   -4.1885   -7.5666   33.3779 C   0  0  0  0  0  0  0  0  0  0  0  0
   -7.2835   -7.7847   33.2809 C   0  0  0  0  0  0  0  0  0  0  0  0
   -8.6318   -9.2185   32.9198 N   0  0  0  0  0  0  0  0  0  0  0  0
   -8.5368  -10.8206   31.8799 C   0  0  0  0  0  0  0  0  0  0  0  0
   -7.5353  -11.0289   31.2135 O   0  0  0  0  0  0  0  0  0  0  0  0
   -9.6454  -12.3383   31.7668 C   0  0  0  0  0  0  0  0  0  0  0  0
  -10.4768  -13.4017   32.8645 C   0  0  0  0  0  0  0  0  0  0  0  0
  -11.8137  -13.7346   33.1465 C   0  0  0  0  0  0  0  0  0  0  0  0
  -11.7810  -14.6643   34.2380 C   0  0  0  0  0  0  0  0  0  0  0  0
  -10.5252  -14.9039   34.6437 N   0  0  0  0  0  0  0  0  0  0  0  0
   -9.7580  -14.2455   33.7266 N   0  0  0  0  0  0  0  0  0  0  0  0
   -1.1048   -2.0724   32.6290 N   0  0  0  0  0  0  0  0  0  0  0  0
   -0.1182   -1.5355   31.8204 O   0  0  0  0  0  0  0  0  0  0  0  0
    0.6609   -0.6600   29.3869 H   0  0  0  0  0  0  0  0  0  0  0  0
    1.8783   -1.8104   29.9753 H   0  0  0  0  0  0  0  0  0  0  0  0
    0.7564   -2.2859   28.6889 H   0  0  0  0  0  0  0  0  0  0  0  0
   -1.2728   -3.8910   29.8707 H   0  0  0  0  0  0  0  0  0  0  0  0
   -3.3165   -3.1283   33.2241 H   0  0  0  0  0  0  0  0  0  0  0  0
   -3.4567   -3.4356   31.4515 H   0  0  0  0  0  0  0  0  0  0  0  0
   -5.2458   -4.7589   33.0201 H   0  0  0  0  0  0  0  0  0  0  0  0
   -4.2676   -6.6776   30.7860 H   0  0  0  0  0  0  0  0  0  0  0  0
   -5.9196   -6.1899   30.6872 H   0  0  0  0  0  0  0  0  0  0  0  0
   -5.4630   -7.8562   30.5967 H   0  0  0  0  0  0  0  0  0  0  0  0
   -3.9995   -8.6395   33.5011 H   0  0  0  0  0  0  0  0  0  0  0  0
   -4.1212   -7.0273   34.3320 H   0  0  0  0  0  0  0  0  0  0  0  0
   -3.2784   -7.3892   32.8151 H   0  0  0  0  0  0  0  0  0  0  0  0
   -7.0351   -8.0715   34.2515 H   0  0  0  0  0  0  0  0  0  0  0  0
   -7.1298   -7.8763   32.1842 H   0  0  0  0  0  0  0  0  0  0  0  0
   -9.5460   -9.1608   33.3361 H   0  0  0  0  0  0  0  0  0  0  0  0
   -9.4970  -12.6154   30.7459 H   0  0  0  0  0  0  0  0  0  0  0  0
   -8.7740  -13.1040   31.7723 H   0  0  0  0  0  0  0  0  0  0  0  0
  -12.6782  -13.4329   32.5901 H   0  0  0  0  0  0  0  0  0  0  0  0
  -12.6045  -15.1702   34.7223 H   0  0  0  0  0  0  0  0  0  0  0  0
   -8.7481  -14.3214   33.7741 H   0  0  0  0  0  0  0  0  0  0  0  0
  1  2  1  0
  2  3  2  0
  3  4  1  0
  4  5  1  0
  5  6  1  0
  6  7  2  0
  6  8  1  0
  8  9  1  0
  9 10  1  0
  9 11  1  0
  9 12  1  0
 12 13  1  0
 13 14  1  0
 14 15  2  0
 14 16  1  0
 16 17  1  0
 17 18  2  0
 18 19  1  0
 19 20  2  0
 20 21  1  0
  4 22  2  0
 22 23  1  0
 23  2  1  0
 21 17  1  0
  1 24  1  0
  1 25  1  0
  1 26  1  0
  3 27  1  0
  5 28  1  0
  5 29  1  0
  8 30  1  0
 10 31  1  0
 10 32  1  0
 10 33  1  0
 11 34  1  0
 11 35  1  0
 11 36  1  0
 12 37  1  0
 12 38  1  0
 13 39  1  0
 16 40  1  0
 16 41  1  0
 18 42  1  0
 19 43  1  0
 21 44  1  0
M  END
>  <Energy>  (554) 
556.73554135628672

>  <compound_id>  (554) 
24279

>  <target_id>  (554) 
1

>  <reference_id>  (554) 
96

>  <inspiration_ids>  (554) 
[59, 96]

>  <energy_score>  (554) 
458.15252083048654

>  <distance_score>  (554) 
7.517116452621429

>  <path>  (554) 
/opt/xchem-fragalysis-2/maxwin/BulkDock/SCRATCH/511013/C24279-P96/C24279-P96.minimised.mol

>  <scratch_subdir>  (554) 
/opt/xchem-fragalysis-2/maxwin/BulkDock/SCRATCH/511013/C24279-P96

>  <fragmenstein_runtime>  (554) 
13.580013275146484

>  <fragmenstein_outcome>  (554) 
too moved

>  <fragmenstein_mode>  (554) 
expansion

>  <fragmenstein_error>  (554) 


$$$$
C29359-P186
     RDKit          3D

 40 42  0  0  0  0  0  0  0  0999 V2000
   -1.0752   -8.3411   36.3234 O   0  0  0  0  0  0  0  0  0  0  0  0
   -1.2788   -7.9649   35.2378 C   0  0  0  0  0  0  0  0  0  0  0  0
   -0.3965   -7.2131   34.3048 N   0  0  0  0  0  0  0  0  0  0  0  0
    0.9818   -6.8190   34.4311 C   0  0  0  0  0  0  0  0  0  0  0  0
    1.6030   -5.9048   33.3802 C   0  0  0  0  0  0  0  0  0  0  0  0
    0.9405   -5.8853   32.0103 C   0  0  0  0  0  0  0  0  0  0  0  0
   -0.1098   -4.8963   31.8831 N   0  0  0  0  0  0  0  0  0  0  0  0
   -0.8056   -4.2781   32.8787 C   0  0  0  0  0  0  0  0  0  0  0  0
   -1.5821   -3.3376   32.2501 C   0  0  0  0  0  0  0  0  0  0  0  0
   -1.4419   -3.4342   30.8971 N   0  0  0  0  0  0  0  0  0  0  0  0
   -0.5092   -4.3388   30.7041 C   0  0  0  0  0  0  0  0  0  0  0  0
   -2.4928   -8.1249   34.3713 N   0  0  0  0  0  0  0  0  0  0  0  0
   -3.6817   -8.8447   34.5811 C   0  0  0  0  0  0  0  0  0  0  0  0
   -4.7851   -9.0540   33.6928 C   0  0  0  0  0  0  0  0  0  0  0  0
   -5.5411  -10.6214   33.8694 C   0  0  0  0  0  0  0  0  0  0  0  0
   -6.2718  -11.9118   32.8074 C   0  0  0  0  0  0  0  0  0  0  0  0
   -6.4579  -13.2273   32.8393 C   0  0  0  0  0  0  0  0  0  0  0  0
   -5.8259  -14.5714   31.8885 C   0  0  0  0  0  0  0  0  0  0  0  0
   -6.2693  -15.0215   30.8005 C   0  0  0  0  0  0  0  0  0  0  0  0
   -6.4956  -13.7768   30.5288 C   0  0  0  0  0  0  0  0  0  0  0  0
   -6.5479  -12.2665   31.5335 C   0  0  0  0  0  0  0  0  0  0  0  0
   -5.2003  -10.7609   35.1685 N   0  0  0  0  0  0  0  0  0  0  0  0
   -4.0392   -9.8069   35.8409 S   0  0  0  0  0  0  0  0  0  0  0  0
   -0.8530   -7.1211   33.4217 H   0  0  0  0  0  0  0  0  0  0  0  0
    1.0976   -6.3708   35.4251 H   0  0  0  0  0  0  0  0  0  0  0  0
    1.5521   -7.7513   34.4808 H   0  0  0  0  0  0  0  0  0  0  0  0
    1.6739   -4.8874   33.7865 H   0  0  0  0  0  0  0  0  0  0  0  0
    2.6463   -6.2191   33.2604 H   0  0  0  0  0  0  0  0  0  0  0  0
    0.5243   -6.8572   31.7262 H   0  0  0  0  0  0  0  0  0  0  0  0
    1.6976   -5.6189   31.2622 H   0  0  0  0  0  0  0  0  0  0  0  0
   -0.6972   -4.4977   33.9325 H   0  0  0  0  0  0  0  0  0  0  0  0
   -2.2597   -2.6272   32.7074 H   0  0  0  0  0  0  0  0  0  0  0  0
   -0.1043   -4.6212   29.7392 H   0  0  0  0  0  0  0  0  0  0  0  0
   -2.3042   -7.7520   33.4666 H   0  0  0  0  0  0  0  0  0  0  0  0
   -4.7869   -8.6870   32.6699 H   0  0  0  0  0  0  0  0  0  0  0  0
   -7.5865  -13.3084   33.0153 H   0  0  0  0  0  0  0  0  0  0  0  0
   -4.7427  -14.8036   31.7688 H   0  0  0  0  0  0  0  0  0  0  0  0
   -5.8896  -15.7915   30.1580 H   0  0  0  0  0  0  0  0  0  0  0  0
   -6.4444  -13.7097   29.4250 H   0  0  0  0  0  0  0  0  0  0  0  0
   -6.2886  -11.4268   30.8373 H   0  0  0  0  0  0  0  0  0  0  0  0
  1  2  2  0
  2  3  1  0
  3  4  1  0
  4  5  1  0
  5  6  1  0
  6  7  1  0
  7  8  1  0
  8  9  2  0
  9 10  1  0
 10 11  2  0
  2 12  1  0
 12 13  1  0
 13 14  2  0
 14 15  1  0
 15 16  1  0
 16 17  2  0
 17 18  1  0
 18 19  2  0
 19 20  1  0
 20 21  2  0
 15 22  2  0
 22 23  1  0
 11  7  1  0
 23 13  1  0
 21 16  1  0
  3 24  1  0
  4 25  1  0
  4 26  1  0
  5 27  1  0
  5 28  1  0
  6 29  1  0
  6 30  1  0
  8 31  1  0
  9 32  1  0
 11 33  1  0
 12 34  1  0
 14 35  1  0
 17 36  1  0
 18 37  1  0
 19 38  1  0
 20 39  1  0
 21 40  1  0
M  END
>  <Energy>  (555) 
350.40428999867538

>  <compound_id>  (555) 
29359

>  <target_id>  (555) 
1

>  <reference_id>  (555) 
186

>  <inspiration_ids>  (555) 
[186, 35]

>  <energy_score>  (555) 
322.9601676179782

>  <distance_score>  (555) 
7.827064004920255

>  <path>  (555) 
/opt/xchem-fragalysis-2/maxwin/BulkDock/SCRATCH/511013/C29359-P186/C29359-P186.minimised.mol

>  <scratch_subdir>  (555) 
/opt/xchem-fragalysis-2/maxwin/BulkDock/SCRATCH/511013/C29359-P186

>  <fragmenstein_runtime>  (555) 
22.505027770996094

>  <fragmenstein_outcome>  (555) 
too moved

>  <fragmenstein_mode>  (555) 
expansion

>  <fragmenstein_error>  (555) 


$$$$
C29359-P35
     RDKit          3D

 40 42  0  0  0  0  0  0  0  0999 V2000
   -0.6017   -6.6353   34.2493 O   0  0  0  0  0  0  0  0  0  0  0  0
   -0.6749   -6.9296   33.1161 C   0  0  0  0  0  0  0  0  0  0  0  0
    0.0692   -6.3882   31.9173 N   0  0  0  0  0  0  0  0  0  0  0  0
    1.1425   -5.4298   31.8316 C   0  0  0  0  0  0  0  0  0  0  0  0
    1.0722   -4.3594   32.8873 C   0  0  0  0  0  0  0  0  0  0  0  0
   -0.2396   -3.5937   32.8003 C   0  0  0  0  0  0  0  0  0  0  0  0
   -0.3734   -2.7245   33.9437 N   0  0  0  0  0  0  0  0  0  0  0  0
    0.0326   -1.4284   34.0257 C   0  0  0  0  0  0  0  0  0  0  0  0
   -0.1818   -1.0839   35.3398 C   0  0  0  0  0  0  0  0  0  0  0  0
   -0.7203   -2.1293   36.0435 N   0  0  0  0  0  0  0  0  0  0  0  0
   -0.8344   -3.1032   35.1676 C   0  0  0  0  0  0  0  0  0  0  0  0
   -1.5809   -7.8577   32.4328 N   0  0  0  0  0  0  0  0  0  0  0  0
   -2.6467   -8.5686   32.8975 C   0  0  0  0  0  0  0  0  0  0  0  0
   -3.6397   -8.9648   32.0511 C   0  0  0  0  0  0  0  0  0  0  0  0
   -4.7426   -9.7338   32.5336 C   0  0  0  0  0  0  0  0  0  0  0  0
   -5.5106  -11.1059   31.6670 C   0  0  0  0  0  0  0  0  0  0  0  0
   -6.6096  -12.0062   31.8638 C   0  0  0  0  0  0  0  0  0  0  0  0
   -6.8036  -13.5230   31.2105 C   0  0  0  0  0  0  0  0  0  0  0  0
   -6.1502  -13.7338   30.0814 C   0  0  0  0  0  0  0  0  0  0  0  0
   -5.2345  -12.6737   29.8503 C   0  0  0  0  0  0  0  0  0  0  0  0
   -4.7400  -11.7701   30.7183 C   0  0  0  0  0  0  0  0  0  0  0  0
   -4.7784   -9.4381   33.8605 N   0  0  0  0  0  0  0  0  0  0  0  0
   -3.2212   -8.8560   34.4492 S   0  0  0  0  0  0  0  0  0  0  0  0
   -0.1744   -6.9210   31.1054 H   0  0  0  0  0  0  0  0  0  0  0  0
    1.0796   -4.9833   30.8326 H   0  0  0  0  0  0  0  0  0  0  0  0
    2.1006   -5.9478   31.8793 H   0  0  0  0  0  0  0  0  0  0  0  0
    1.2003   -4.8060   33.8810 H   0  0  0  0  0  0  0  0  0  0  0  0
    1.9130   -3.6660   32.7582 H   0  0  0  0  0  0  0  0  0  0  0  0
   -1.1220   -4.2391   32.7849 H   0  0  0  0  0  0  0  0  0  0  0  0
   -0.2724   -2.9744   31.8964 H   0  0  0  0  0  0  0  0  0  0  0  0
    0.4474   -0.8827   33.1909 H   0  0  0  0  0  0  0  0  0  0  0  0
    0.0264   -0.1364   35.8187 H   0  0  0  0  0  0  0  0  0  0  0  0
   -1.2240   -4.0964   35.3582 H   0  0  0  0  0  0  0  0  0  0  0  0
   -1.4221   -7.8076   31.4505 H   0  0  0  0  0  0  0  0  0  0  0  0
   -3.6835   -8.4529   31.1425 H   0  0  0  0  0  0  0  0  0  0  0  0
   -7.5420  -11.6914   32.3241 H   0  0  0  0  0  0  0  0  0  0  0  0
   -7.5655  -14.2103   31.5646 H   0  0  0  0  0  0  0  0  0  0  0  0
   -6.5152  -14.3350   29.2779 H   0  0  0  0  0  0  0  0  0  0  0  0
   -5.2138  -12.2637   28.8683 H   0  0  0  0  0  0  0  0  0  0  0  0
   -3.7115  -11.4991   30.4692 H   0  0  0  0  0  0  0  0  0  0  0  0
  1  2  2  0
  2  3  1  0
  3  4  1  0
  4  5  1  0
  5  6  1  0
  6  7  1  0
  7  8  1  0
  8  9  2  0
  9 10  1  0
 10 11  2  0
  2 12  1  0
 12 13  1  0
 13 14  2  0
 14 15  1  0
 15 16  1  0
 16 17  2  0
 17 18  1  0
 18 19  2  0
 19 20  1  0
 20 21  2  0
 15 22  2  0
 22 23  1  0
 11  7  1  0
 23 13  1  0
 21 16  1  0
  3 24  1  0
  4 25  1  0
  4 26  1  0
  5 27  1  0
  5 28  1  0
  6 29  1  0
  6 30  1  0
  8 31  1  0
  9 32  1  0
 11 33  1  0
 12 34  1  0
 14 35  1  0
 17 36  1  0
 18 37  1  0
 19 38  1  0
 20 39  1  0
 21 40  1  0
M  END
>  <Energy>  (556) 
139.02135378984033

>  <compound_id>  (556) 
29359

>  <target_id>  (556) 
1

>  <reference_id>  (556) 
35

>  <inspiration_ids>  (556) 
[186, 35]

>  <energy_score>  (556) 
111.57723140915107

>  <distance_score>  (556) 
7.8923904215617595

>  <path>  (556) 
/opt/xchem-fragalysis-2/maxwin/BulkDock/SCRATCH/511013/C29359-P35/C29359-P35.minimised.mol

>  <scratch_subdir>  (556) 
/opt/xchem-fragalysis-2/maxwin/BulkDock/SCRATCH/511013/C29359-P35

>  <fragmenstein_runtime>  (556) 
22.0970242023468

>  <fragmenstein_outcome>  (556) 
too moved

>  <fragmenstein_mode>  (556) 
expansion

>  <fragmenstein_error>  (556) 


$$$$
C29361-P186
     RDKit          3D

 41 42  0  0  0  0  0  0  0  0999 V2000
   -0.6807   -7.5875   31.4630 C   0  0  0  0  0  0  0  0  0  0  0  0
   -0.5115   -6.3290   32.3565 C   0  0  0  0  0  0  0  0  0  0  0  0
    0.6531   -6.6644   33.3477 C   0  0  0  0  0  0  0  0  0  0  0  0
    0.4562   -6.1426   34.6785 N   0  0  0  0  0  0  0  0  0  0  0  0
   -0.6195   -6.3081   35.5970 C   0  0  0  0  0  0  0  0  0  0  0  0
   -1.6715   -6.8565   35.4739 O   0  0  0  0  0  0  0  0  0  0  0  0
   -0.3209   -5.6470   36.8581 C   0  0  0  0  0  0  0  0  0  0  0  0
   -1.0331   -4.5589   37.3301 C   0  0  0  0  0  0  0  0  0  0  0  0
   -0.4019   -4.0979   38.8499 S   0  0  0  0  0  0  0  0  0  0  0  0
    0.7853   -5.2545   38.8985 N   0  0  0  0  0  0  0  0  0  0  0  0
    0.6864   -6.0018   37.8041 C   0  0  0  0  0  0  0  0  0  0  0  0
    1.7776   -7.2997   37.6041 Cl  0  0  0  0  0  0  0  0  0  0  0  0
   -0.2749   -5.2018   31.3292 N   0  0  0  0  0  0  0  0  0  0  0  0
   -0.4933   -4.3370   32.5508 C   0  0  0  0  0  0  0  0  0  0  0  0
    0.9239   -4.7939   30.6411 C   0  0  0  0  0  0  0  0  0  0  0  0
    2.0627   -5.1717   30.7623 O   0  0  0  0  0  0  0  0  0  0  0  0
    0.5756   -3.7777   29.5212 C   0  0  0  0  0  0  0  0  0  0  0  0
    1.6865   -3.6905   28.4721 C   0  0  0  0  0  0  0  0  0  0  0  0
    0.2944   -2.4523   30.0564 N   0  0  0  0  0  0  0  0  0  0  0  0
   -0.8507   -1.7344   29.8463 C   0  0  0  0  0  0  0  0  0  0  0  0
   -0.7192   -0.6168   30.6358 C   0  0  0  0  0  0  0  0  0  0  0  0
    0.4845   -0.6283   31.2955 N   0  0  0  0  0  0  0  0  0  0  0  0
    1.0918   -1.7221   30.8934 C   0  0  0  0  0  0  0  0  0  0  0  0
    0.2280   -7.7953   30.8898 H   0  0  0  0  0  0  0  0  0  0  0  0
   -0.9324   -8.4675   32.0629 H   0  0  0  0  0  0  0  0  0  0  0  0
   -1.4889   -7.4389   30.7431 H   0  0  0  0  0  0  0  0  0  0  0  0
   -1.4960   -6.2923   32.8450 H   0  0  0  0  0  0  0  0  0  0  0  0
    0.7118   -7.7417   33.4975 H   0  0  0  0  0  0  0  0  0  0  0  0
    1.6249   -6.3177   32.9883 H   0  0  0  0  0  0  0  0  0  0  0  0
    1.2313   -5.6914   35.1550 H   0  0  0  0  0  0  0  0  0  0  0  0
   -1.8627   -4.0373   36.8732 H   0  0  0  0  0  0  0  0  0  0  0  0
   -0.7261   -3.3453   32.1559 H   0  0  0  0  0  0  0  0  0  0  0  0
   -1.3770   -4.4961   33.1776 H   0  0  0  0  0  0  0  0  0  0  0  0
    0.4333   -4.1671   33.1137 H   0  0  0  0  0  0  0  0  0  0  0  0
   -0.3391   -4.1302   29.0279 H   0  0  0  0  0  0  0  0  0  0  0  0
    2.6083   -3.2703   28.8906 H   0  0  0  0  0  0  0  0  0  0  0  0
    1.9343   -4.6799   28.0761 H   0  0  0  0  0  0  0  0  0  0  0  0
    1.3827   -3.0526   27.6349 H   0  0  0  0  0  0  0  0  0  0  0  0
   -1.6409   -2.0712   29.1878 H   0  0  0  0  0  0  0  0  0  0  0  0
   -1.4264    0.1942   30.7608 H   0  0  0  0  0  0  0  0  0  0  0  0
    2.0816   -2.0406   31.1960 H   0  0  0  0  0  0  0  0  0  0  0  0
  1  2  1  0
  2  3  1  0
  3  4  1  0
  4  5  1  0
  5  6  2  0
  5  7  1  0
  7  8  2  0
  8  9  1  0
  9 10  1  0
 10 11  2  0
 11 12  1  0
  2 13  1  0
 13 14  1  0
 13 15  1  0
 15 16  2  0
 15 17  1  0
 17 18  1  0
 17 19  1  0
 19 20  1  0
 20 21  2  0
 21 22  1  0
 22 23  2  0
 11  7  1  0
 23 19  1  0
  1 24  1  0
  1 25  1  0
  1 26  1  0
  2 27  1  0
  3 28  1  0
  3 29  1  0
  4 30  1  0
  8 31  1  0
 14 32  1  0
 14 33  1  0
 14 34  1  0
 17 35  1  0
 18 36  1  0
 18 37  1  0
 18 38  1  0
 20 39  1  0
 21 40  1  0
 23 41  1  0
M  END
>  <Energy>  (557) 
70.786605773823283

>  <compound_id>  (557) 
29361

>  <target_id>  (557) 
1

>  <reference_id>  (557) 
186

>  <inspiration_ids>  (557) 
[186, 35]

>  <energy_score>  (557) 
29.69702195159212

>  <distance_score>  (557) 
2.2775574281242026

>  <path>  (557) 
/opt/xchem-fragalysis-2/maxwin/BulkDock/SCRATCH/511013/C29361-P186/C29361-P186.minimised.mol

>  <scratch_subdir>  (557) 
/opt/xchem-fragalysis-2/maxwin/BulkDock/SCRATCH/511013/C29361-P186

>  <fragmenstein_runtime>  (557) 
7.227783918380737

>  <fragmenstein_outcome>  (557) 
too moved

>  <fragmenstein_mode>  (557) 
expansion

>  <fragmenstein_error>  (557) 


$$$$
C29361-P35
     RDKit          3D

 41 42  0  0  0  0  0  0  0  0999 V2000
   -0.6914   -6.5490   32.7786 C   0  0  0  0  0  0  0  0  0  0  0  0
    0.3364   -5.3959   32.9569 C   0  0  0  0  0  0  0  0  0  0  0  0
   -0.0097   -4.7693   34.3572 C   0  0  0  0  0  0  0  0  0  0  0  0
    0.9715   -3.8011   34.8015 N   0  0  0  0  0  0  0  0  0  0  0  0
    2.2232   -3.9728   35.4521 C   0  0  0  0  0  0  0  0  0  0  0  0
    2.8274   -4.9639   35.7314 O   0  0  0  0  0  0  0  0  0  0  0  0
    2.8388   -2.6923   35.8068 C   0  0  0  0  0  0  0  0  0  0  0  0
    4.1942   -2.4556   35.6311 C   0  0  0  0  0  0  0  0  0  0  0  0
    4.5739   -0.8902   36.1925 S   0  0  0  0  0  0  0  0  0  0  0  0
    3.0462   -0.5180   36.7045 N   0  0  0  0  0  0  0  0  0  0  0  0
    2.2490   -1.5512   36.4404 C   0  0  0  0  0  0  0  0  0  0  0  0
    0.6193   -1.4477   36.9483 Cl  0  0  0  0  0  0  0  0  0  0  0  0
    0.2787   -4.1919   31.9817 N   0  0  0  0  0  0  0  0  0  0  0  0
    0.8453   -5.2130   31.0294 C   0  0  0  0  0  0  0  0  0  0  0  0
   -0.8382   -3.5270   31.3842 C   0  0  0  0  0  0  0  0  0  0  0  0
   -2.0141   -3.7900   31.4146 O   0  0  0  0  0  0  0  0  0  0  0  0
   -0.4156   -2.2138   30.6864 C   0  0  0  0  0  0  0  0  0  0  0  0
    0.1791   -2.3880   29.2939 C   0  0  0  0  0  0  0  0  0  0  0  0
    0.3628   -1.4098   31.6193 N   0  0  0  0  0  0  0  0  0  0  0  0
    1.6898   -1.0927   31.5770 C   0  0  0  0  0  0  0  0  0  0  0  0
    1.9397   -0.4561   32.7700 C   0  0  0  0  0  0  0  0  0  0  0  0
    0.8085   -0.3916   33.5383 N   0  0  0  0  0  0  0  0  0  0  0  0
   -0.1347   -0.9340   32.8061 C   0  0  0  0  0  0  0  0  0  0  0  0
   -0.4508   -7.2211   31.9506 H   0  0  0  0  0  0  0  0  0  0  0  0
   -0.7221   -7.1802   33.6742 H   0  0  0  0  0  0  0  0  0  0  0  0
   -1.6945   -6.1559   32.6156 H   0  0  0  0  0  0  0  0  0  0  0  0
    1.3628   -5.7527   33.1204 H   0  0  0  0  0  0  0  0  0  0  0  0
   -0.9736   -4.2571   34.3365 H   0  0  0  0  0  0  0  0  0  0  0  0
   -0.0386   -5.5592   35.1150 H   0  0  0  0  0  0  0  0  0  0  0  0
    0.8068   -2.8065   34.6568 H   0  0  0  0  0  0  0  0  0  0  0  0
    4.9438   -3.1134   35.2136 H   0  0  0  0  0  0  0  0  0  0  0  0
    1.1844   -4.6338   30.1644 H   0  0  0  0  0  0  0  0  0  0  0  0
    1.7797   -5.7185   31.3099 H   0  0  0  0  0  0  0  0  0  0  0  0
    0.0834   -5.8565   30.5733 H   0  0  0  0  0  0  0  0  0  0  0  0
   -1.3444   -1.6388   30.5499 H   0  0  0  0  0  0  0  0  0  0  0  0
    0.1832   -1.4304   28.7608 H   0  0  0  0  0  0  0  0  0  0  0  0
    1.2131   -2.7414   29.3100 H   0  0  0  0  0  0  0  0  0  0  0  0
   -0.4110   -3.0988   28.7057 H   0  0  0  0  0  0  0  0  0  0  0  0
    2.3383   -1.3374   30.7485 H   0  0  0  0  0  0  0  0  0  0  0  0
    2.8791   -0.0478   33.1201 H   0  0  0  0  0  0  0  0  0  0  0  0
   -1.1739   -1.0427   33.0946 H   0  0  0  0  0  0  0  0  0  0  0  0
  1  2  1  0
  2  3  1  0
  3  4  1  0
  4  5  1  0
  5  6  2  0
  5  7  1  0
  7  8  2  0
  8  9  1  0
  9 10  1  0
 10 11  2  0
 11 12  1  0
  2 13  1  0
 13 14  1  0
 13 15  1  0
 15 16  2  0
 15 17  1  0
 17 18  1  0
 17 19  1  0
 19 20  1  0
 20 21  2  0
 21 22  1  0
 22 23  2  0
 11  7  1  0
 23 19  1  0
  1 24  1  0
  1 25  1  0
  1 26  1  0
  2 27  1  0
  3 28  1  0
  3 29  1  0
  4 30  1  0
  8 31  1  0
 14 32  1  0
 14 33  1  0
 14 34  1  0
 17 35  1  0
 18 36  1  0
 18 37  1  0
 18 38  1  0
 20 39  1  0
 21 40  1  0
 23 41  1  0
M  END
>  <Energy>  (558) 
68.337263431324715

>  <compound_id>  (558) 
29361

>  <target_id>  (558) 
1

>  <reference_id>  (558) 
35

>  <inspiration_ids>  (558) 
[186, 35]

>  <energy_score>  (558) 
27.247679609093154

>  <distance_score>  (558) 
3.5448752336955307

>  <path>  (558) 
/opt/xchem-fragalysis-2/maxwin/BulkDock/SCRATCH/511013/C29361-P35/C29361-P35.minimised.mol

>  <scratch_subdir>  (558) 
/opt/xchem-fragalysis-2/maxwin/BulkDock/SCRATCH/511013/C29361-P35

>  <fragmenstein_runtime>  (558) 
7.586538553237915

>  <fragmenstein_outcome>  (558) 
too moved

>  <fragmenstein_mode>  (558) 
expansion

>  <fragmenstein_error>  (558) 


$$$$
C29365-P186
     RDKit          3D

 44 45  0  0  0  0  0  0  0  0999 V2000
    1.6869    2.8641   33.8325 C   0  0  0  0  0  0  0  0  0  0  0  0
    0.9488    1.9398   34.7428 C   0  0  0  0  0  0  0  0  0  0  0  0
    1.1350    2.0780   36.0571 N   0  0  0  0  0  0  0  0  0  0  0  0
    0.2035    0.9778   36.8589 S   0  0  0  0  0  0  0  0  0  0  0  0
   -0.4759    0.2721   35.4607 C   0  0  0  0  0  0  0  0  0  0  0  0
    0.0446    0.8858   34.3311 C   0  0  0  0  0  0  0  0  0  0  0  0
   -0.3114    0.5703   32.9375 C   0  0  0  0  0  0  0  0  0  0  0  0
   -0.2914    1.4198   32.1432 O   0  0  0  0  0  0  0  0  0  0  0  0
   -0.6953   -0.9113   32.8016 N   0  0  0  0  0  0  0  0  0  0  0  0
   -1.0472   -1.6879   31.6320 C   0  0  0  0  0  0  0  0  0  0  0  0
   -2.1190   -2.7000   32.0040 C   0  0  0  0  0  0  0  0  0  0  0  0
    0.2168   -2.3085   31.0154 C   0  0  0  0  0  0  0  0  0  0  0  0
   -0.0643   -3.3050   29.8941 C   0  0  0  0  0  0  0  0  0  0  0  0
   -0.1495   -4.6411   30.4294 N   0  0  0  0  0  0  0  0  0  0  0  0
    0.9560   -5.6775   30.7170 C   0  0  0  0  0  0  0  0  0  0  0  0
    2.1004   -5.6431   30.4947 O   0  0  0  0  0  0  0  0  0  0  0  0
    0.3277   -6.9257   31.3584 C   0  0  0  0  0  0  0  0  0  0  0  0
   -0.3164   -7.8218   30.3161 C   0  0  0  0  0  0  0  0  0  0  0  0
   -0.4486   -6.7033   32.5675 N   0  0  0  0  0  0  0  0  0  0  0  0
   -0.1927   -5.7349   33.4941 C   0  0  0  0  0  0  0  0  0  0  0  0
   -0.9219   -6.0763   34.6043 C   0  0  0  0  0  0  0  0  0  0  0  0
   -1.6058   -7.2300   34.3741 N   0  0  0  0  0  0  0  0  0  0  0  0
   -1.2899   -7.5986   33.1572 C   0  0  0  0  0  0  0  0  0  0  0  0
    0.9910    3.5581   33.3506 H   0  0  0  0  0  0  0  0  0  0  0  0
    2.4301    3.4565   34.3771 H   0  0  0  0  0  0  0  0  0  0  0  0
    2.2159    2.3003   33.0575 H   0  0  0  0  0  0  0  0  0  0  0  0
   -1.2128   -0.5133   35.5473 H   0  0  0  0  0  0  0  0  0  0  0  0
   -0.5198   -1.3872   33.6772 H   0  0  0  0  0  0  0  0  0  0  0  0
   -1.4706   -0.9822   30.9067 H   0  0  0  0  0  0  0  0  0  0  0  0
   -2.5205   -3.1895   31.1173 H   0  0  0  0  0  0  0  0  0  0  0  0
   -1.7261   -3.4548   32.6886 H   0  0  0  0  0  0  0  0  0  0  0  0
   -2.9581   -2.2073   32.5086 H   0  0  0  0  0  0  0  0  0  0  0  0
    0.8334   -2.7702   31.7980 H   0  0  0  0  0  0  0  0  0  0  0  0
    0.8188   -1.4861   30.6060 H   0  0  0  0  0  0  0  0  0  0  0  0
    0.7798   -3.3051   29.1965 H   0  0  0  0  0  0  0  0  0  0  0  0
   -0.9775   -3.0798   29.3366 H   0  0  0  0  0  0  0  0  0  0  0  0
   -1.0208   -4.9583   30.8286 H   0  0  0  0  0  0  0  0  0  0  0  0
    1.1773   -7.4504   31.7758 H   0  0  0  0  0  0  0  0  0  0  0  0
   -0.7000   -8.7514   30.7438 H   0  0  0  0  0  0  0  0  0  0  0  0
   -1.1371   -7.3203   29.8042 H   0  0  0  0  0  0  0  0  0  0  0  0
    0.4270   -8.1155   29.5716 H   0  0  0  0  0  0  0  0  0  0  0  0
    0.4948   -4.9168   33.3284 H   0  0  0  0  0  0  0  0  0  0  0  0
   -0.9929   -5.5594   35.5528 H   0  0  0  0  0  0  0  0  0  0  0  0
   -1.6401   -8.5088   32.6905 H   0  0  0  0  0  0  0  0  0  0  0  0
  1  2  1  0
  2  3  2  0
  3  4  1  0
  4  5  1  0
  5  6  2  0
  6  7  1  0
  7  8  2  0
  7  9  1  0
  9 10  1  0
 10 11  1  0
 10 12  1  0
 12 13  1  0
 13 14  1  0
 14 15  1  0
 15 16  2  0
 15 17  1  0
 17 18  1  0
 17 19  1  0
 19 20  1  0
 20 21  2  0
 21 22  1  0
 22 23  2  0
  6  2  1  0
 23 19  1  0
  1 24  1  0
  1 25  1  0
  1 26  1  0
  5 27  1  0
  9 28  1  0
 10 29  1  0
 11 30  1  0
 11 31  1  0
 11 32  1  0
 12 33  1  0
 12 34  1  0
 13 35  1  0
 13 36  1  0
 14 37  1  0
 17 38  1  0
 18 39  1  0
 18 40  1  0
 18 41  1  0
 20 42  1  0
 21 43  1  0
 23 44  1  0
M  END
>  <Energy>  (559) 
18.921813693244896

>  <compound_id>  (559) 
29365

>  <target_id>  (559) 
1

>  <reference_id>  (559) 
186

>  <inspiration_ids>  (559) 
[186, 35]

>  <energy_score>  (559) 
-14.785232407104303

>  <distance_score>  (559) 
1.7046459422376465

>  <path>  (559) 
/opt/xchem-fragalysis-2/maxwin/BulkDock/SCRATCH/511013/C29365-P186/C29365-P186.minimised.mol

>  <scratch_subdir>  (559) 
/opt/xchem-fragalysis-2/maxwin/BulkDock/SCRATCH/511013/C29365-P186

>  <fragmenstein_runtime>  (559) 
10.793280363082886

>  <fragmenstein_outcome>  (559) 
too moved

>  <fragmenstein_mode>  (559) 
expansion

>  <fragmenstein_error>  (559) 


$$$$
C29365-P35
     RDKit          3D

 44 45  0  0  0  0  0  0  0  0999 V2000
    0.1950   -2.0560   36.0516 C   0  0  0  0  0  0  0  0  0  0  0  0
   -1.1563   -1.4852   36.3276 C   0  0  0  0  0  0  0  0  0  0  0  0
   -1.7179   -1.7701   37.5056 N   0  0  0  0  0  0  0  0  0  0  0  0
   -3.1246   -0.9118   37.6545 S   0  0  0  0  0  0  0  0  0  0  0  0
   -3.0632   -0.2020   36.1058 C   0  0  0  0  0  0  0  0  0  0  0  0
   -1.9314   -0.6470   35.4440 C   0  0  0  0  0  0  0  0  0  0  0  0
   -1.6291   -0.2557   34.0659 C   0  0  0  0  0  0  0  0  0  0  0  0
   -1.6940    0.8601   33.7415 O   0  0  0  0  0  0  0  0  0  0  0  0
   -1.2823   -1.5108   33.2515 N   0  0  0  0  0  0  0  0  0  0  0  0
   -1.0327   -1.6735   31.8355 C   0  0  0  0  0  0  0  0  0  0  0  0
   -2.1168   -2.5897   31.2957 C   0  0  0  0  0  0  0  0  0  0  0  0
    0.4031   -2.1734   31.5871 C   0  0  0  0  0  0  0  0  0  0  0  0
    0.6176   -2.9072   30.2636 C   0  0  0  0  0  0  0  0  0  0  0  0
    0.2462   -4.2927   30.4117 N   0  0  0  0  0  0  0  0  0  0  0  0
    1.0204   -5.4801   31.0362 C   0  0  0  0  0  0  0  0  0  0  0  0
    2.1079   -5.5360   31.4569 O   0  0  0  0  0  0  0  0  0  0  0  0
    0.0521   -6.6896   31.1371 C   0  0  0  0  0  0  0  0  0  0  0  0
   -0.7122   -7.0495   29.8681 C   0  0  0  0  0  0  0  0  0  0  0  0
   -0.7494   -6.7533   32.3607 N   0  0  0  0  0  0  0  0  0  0  0  0
   -0.6746   -5.9445   33.4526 C   0  0  0  0  0  0  0  0  0  0  0  0
   -1.3484   -6.6058   34.4516 C   0  0  0  0  0  0  0  0  0  0  0  0
   -1.8483   -7.7860   33.9898 N   0  0  0  0  0  0  0  0  0  0  0  0
   -1.5142   -7.8276   32.7258 C   0  0  0  0  0  0  0  0  0  0  0  0
    0.7728   -1.3987   35.3942 H   0  0  0  0  0  0  0  0  0  0  0  0
    0.7674   -2.1791   36.9773 H   0  0  0  0  0  0  0  0  0  0  0  0
    0.1049   -3.0359   35.5726 H   0  0  0  0  0  0  0  0  0  0  0  0
   -3.8364    0.4651   35.7504 H   0  0  0  0  0  0  0  0  0  0  0  0
   -1.2385   -2.3143   33.8700 H   0  0  0  0  0  0  0  0  0  0  0  0
   -1.1505   -0.6876   31.3704 H   0  0  0  0  0  0  0  0  0  0  0  0
   -2.1042   -2.6282   30.2033 H   0  0  0  0  0  0  0  0  0  0  0  0
   -1.9797   -3.5946   31.6964 H   0  0  0  0  0  0  0  0  0  0  0  0
   -3.1116   -2.2428   31.5978 H   0  0  0  0  0  0  0  0  0  0  0  0
    0.7295   -2.8102   32.4203 H   0  0  0  0  0  0  0  0  0  0  0  0
    1.0628   -1.2959   31.6132 H   0  0  0  0  0  0  0  0  0  0  0  0
    1.6850   -2.8956   30.0195 H   0  0  0  0  0  0  0  0  0  0  0  0
    0.0631   -2.4653   29.4315 H   0  0  0  0  0  0  0  0  0  0  0  0
   -0.7053   -4.5705   30.2279 H   0  0  0  0  0  0  0  0  0  0  0  0
    0.7010   -7.5350   31.3049 H   0  0  0  0  0  0  0  0  0  0  0  0
   -0.4562   -6.4266   29.0070 H   0  0  0  0  0  0  0  0  0  0  0  0
   -0.5202   -8.0878   29.5768 H   0  0  0  0  0  0  0  0  0  0  0  0
   -1.7790   -7.0345   30.0470 H   0  0  0  0  0  0  0  0  0  0  0  0
   -0.1189   -5.0183   33.4695 H   0  0  0  0  0  0  0  0  0  0  0  0
   -1.5149   -6.2972   35.4742 H   0  0  0  0  0  0  0  0  0  0  0  0
   -1.7755   -8.6279   32.0505 H   0  0  0  0  0  0  0  0  0  0  0  0
  1  2  1  0
  2  3  2  0
  3  4  1  0
  4  5  1  0
  5  6  2  0
  6  7  1  0
  7  8  2  0
  7  9  1  0
  9 10  1  0
 10 11  1  0
 10 12  1  0
 12 13  1  0
 13 14  1  0
 14 15  1  0
 15 16  2  0
 15 17  1  0
 17 18  1  0
 17 19  1  0
 19 20  1  0
 20 21  2  0
 21 22  1  0
 22 23  2  0
  6  2  1  0
 23 19  1  0
  1 24  1  0
  1 25  1  0
  1 26  1  0
  5 27  1  0
  9 28  1  0
 10 29  1  0
 11 30  1  0
 11 31  1  0
 11 32  1  0
 12 33  1  0
 12 34  1  0
 13 35  1  0
 13 36  1  0
 14 37  1  0
 17 38  1  0
 18 39  1  0
 18 40  1  0
 18 41  1  0
 20 42  1  0
 21 43  1  0
 23 44  1  0
M  END
>  <Energy>  (560) 
27.184516616093362

>  <compound_id>  (560) 
29365

>  <target_id>  (560) 
1

>  <reference_id>  (560) 
35

>  <inspiration_ids>  (560) 
[186, 35]

>  <energy_score>  (560) 
-6.522529484254093

>  <distance_score>  (560) 
1.595671798290203

>  <path>  (560) 
/opt/xchem-fragalysis-2/maxwin/BulkDock/SCRATCH/511013/C29365-P35/C29365-P35.minimised.mol

>  <scratch_subdir>  (560) 
/opt/xchem-fragalysis-2/maxwin/BulkDock/SCRATCH/511013/C29365-P35

>  <fragmenstein_runtime>  (560) 
9.569766521453857

>  <fragmenstein_outcome>  (560) 
too moved

>  <fragmenstein_mode>  (560) 
expansion

>  <fragmenstein_error>  (560) 


$$$$
C29366-P186
     RDKit          3D

 33 35  0  0  0  0  0  0  0  0999 V2000
   -5.5395  -10.9267   35.4853 O   0  0  0  0  0  0  0  0  0  0  0  0
   -5.5066  -10.5910   34.3380 C   0  0  0  0  0  0  0  0  0  0  0  0
   -6.7177  -11.8060   33.1237 C   0  0  0  0  0  0  0  0  0  0  0  0
   -8.2596  -12.8136   33.3552 O   0  0  0  0  0  0  0  0  0  0  0  0
   -9.1169  -14.2539   32.9258 C   0  0  0  0  0  0  0  0  0  0  0  0
   -9.8932  -15.5200   33.6380 C   0  0  0  0  0  0  0  0  0  0  0  0
  -11.2710  -15.6251   33.6479 C   0  0  0  0  0  0  0  0  0  0  0  0
  -11.6569  -14.8783   32.2478 S   0  0  0  0  0  0  0  0  0  0  0  0
  -10.1119  -14.1875   32.0851 N   0  0  0  0  0  0  0  0  0  0  0  0
   -4.4065   -9.3160   33.7797 N   0  0  0  0  0  0  0  0  0  0  0  0
   -3.2047   -8.4792   34.5530 C   0  0  0  0  0  0  0  0  0  0  0  0
   -2.5918   -8.8324   35.7035 C   0  0  0  0  0  0  0  0  0  0  0  0
   -1.3662   -8.1002   36.1404 C   0  0  0  0  0  0  0  0  0  0  0  0
   -0.8715   -6.9174   35.6679 C   0  0  0  0  0  0  0  0  0  0  0  0
   -1.3344   -6.5885   34.4646 C   0  0  0  0  0  0  0  0  0  0  0  0
   -2.1839   -7.5233   33.8208 C   0  0  0  0  0  0  0  0  0  0  0  0
   -1.7715   -7.5461   32.4379 N   0  0  0  0  0  0  0  0  0  0  0  0
   -1.1128   -6.5404   31.7292 C   0  0  0  0  0  0  0  0  0  0  0  0
   -0.6202   -7.1127   30.5866 C   0  0  0  0  0  0  0  0  0  0  0  0
   -1.0059   -8.4078   30.5102 N   0  0  0  0  0  0  0  0  0  0  0  0
   -1.6132   -8.6373   31.6526 C   0  0  0  0  0  0  0  0  0  0  0  0
   -6.1521  -12.7293   33.0151 H   0  0  0  0  0  0  0  0  0  0  0  0
   -6.5692  -11.8493   32.0612 H   0  0  0  0  0  0  0  0  0  0  0  0
   -9.5479  -16.2538   34.3576 H   0  0  0  0  0  0  0  0  0  0  0  0
  -11.9066  -16.2488   34.2654 H   0  0  0  0  0  0  0  0  0  0  0  0
   -4.6032   -9.1222   32.7744 H   0  0  0  0  0  0  0  0  0  0  0  0
   -2.9358   -9.7187   36.2295 H   0  0  0  0  0  0  0  0  0  0  0  0
   -0.7455   -8.3896   36.9847 H   0  0  0  0  0  0  0  0  0  0  0  0
   -0.0711   -6.3773   36.1590 H   0  0  0  0  0  0  0  0  0  0  0  0
   -0.8370   -5.7488   33.9963 H   0  0  0  0  0  0  0  0  0  0  0  0
   -1.0567   -5.5146   32.0614 H   0  0  0  0  0  0  0  0  0  0  0  0
   -0.0457   -6.6271   29.8114 H   0  0  0  0  0  0  0  0  0  0  0  0
   -1.9114   -9.5986   31.9766 H   0  0  0  0  0  0  0  0  0  0  0  0
  1  2  2  0
  2  3  1  0
  3  4  1  0
  4  5  1  0
  5  6  1  0
  6  7  2  0
  7  8  1  0
  8  9  1  0
  2 10  1  0
 10 11  1  0
 11 12  2  0
 12 13  1  0
 13 14  2  0
 14 15  1  0
 15 16  2  0
 16 17  1  0
 17 18  1  0
 18 19  2  0
 19 20  1  0
 20 21  2  0
  9  5  2  0
 16 11  1  0
 21 17  1  0
  3 22  1  0
  3 23  1  0
  6 24  1  0
  7 25  1  0
 10 26  1  0
 12 27  1  0
 13 28  1  0
 14 29  1  0
 15 30  1  0
 18 31  1  0
 19 32  1  0
 21 33  1  0
M  END
>  <Energy>  (561) 
526.41816495436899

>  <compound_id>  (561) 
29366

>  <target_id>  (561) 
1

>  <reference_id>  (561) 
186

>  <inspiration_ids>  (561) 
[186, 35]

>  <energy_score>  (561) 
452.05950573556663

>  <distance_score>  (561) 
5.74369374402658

>  <path>  (561) 
/opt/xchem-fragalysis-2/maxwin/BulkDock/SCRATCH/511013/C29366-P186/C29366-P186.minimised.mol

>  <scratch_subdir>  (561) 
/opt/xchem-fragalysis-2/maxwin/BulkDock/SCRATCH/511013/C29366-P186

>  <fragmenstein_runtime>  (561) 
7.030924558639526

>  <fragmenstein_outcome>  (561) 
too moved

>  <fragmenstein_mode>  (561) 
expansion

>  <fragmenstein_error>  (561) 


$$$$
C29366-P35
     RDKit          3D

 33 35  0  0  0  0  0  0  0  0999 V2000
   -5.6080   -9.7242   33.6218 O   0  0  0  0  0  0  0  0  0  0  0  0
   -5.1401  -10.2571   32.6721 C   0  0  0  0  0  0  0  0  0  0  0  0
   -6.3624  -11.8536   32.0323 C   0  0  0  0  0  0  0  0  0  0  0  0
   -7.4487  -13.3963   32.6970 O   0  0  0  0  0  0  0  0  0  0  0  0
   -7.6675  -15.1622   33.2078 C   0  0  0  0  0  0  0  0  0  0  0  0
   -6.9047  -16.5448   33.0049 C   0  0  0  0  0  0  0  0  0  0  0  0
   -7.5206  -17.6022   33.6873 C   0  0  0  0  0  0  0  0  0  0  0  0
   -8.3307  -16.8361   34.9608 S   0  0  0  0  0  0  0  0  0  0  0  0
   -7.3857  -15.4598   34.5836 N   0  0  0  0  0  0  0  0  0  0  0  0
   -3.6382   -9.7842   31.9976 N   0  0  0  0  0  0  0  0  0  0  0  0
   -2.6452   -8.5703   32.3546 C   0  0  0  0  0  0  0  0  0  0  0  0
   -1.5145   -8.3451   31.5785 C   0  0  0  0  0  0  0  0  0  0  0  0
   -0.3857   -7.8216   32.2018 C   0  0  0  0  0  0  0  0  0  0  0  0
   -0.3389   -7.9202   33.6062 C   0  0  0  0  0  0  0  0  0  0  0  0
   -1.4745   -8.3204   34.2958 C   0  0  0  0  0  0  0  0  0  0  0  0
   -2.4750   -7.8223   33.5594 C   0  0  0  0  0  0  0  0  0  0  0  0
   -1.9620   -6.2414   33.5457 N   0  0  0  0  0  0  0  0  0  0  0  0
   -1.4099   -5.6115   34.6889 C   0  0  0  0  0  0  0  0  0  0  0  0
   -0.7074   -4.5129   34.2521 C   0  0  0  0  0  0  0  0  0  0  0  0
   -0.7875   -4.3955   32.8950 N   0  0  0  0  0  0  0  0  0  0  0  0
   -1.5000   -5.4262   32.4997 C   0  0  0  0  0  0  0  0  0  0  0  0
   -7.2599  -11.3221   31.8234 H   0  0  0  0  0  0  0  0  0  0  0  0
   -5.7507  -12.3097   31.2409 H   0  0  0  0  0  0  0  0  0  0  0  0
   -6.1035  -16.7208   32.3018 H   0  0  0  0  0  0  0  0  0  0  0  0
   -7.4295  -18.6710   33.6391 H   0  0  0  0  0  0  0  0  0  0  0  0
   -3.4011  -10.4255   31.2581 H   0  0  0  0  0  0  0  0  0  0  0  0
   -1.2275   -8.6893   30.5967 H   0  0  0  0  0  0  0  0  0  0  0  0
    0.4431   -7.4525   31.6057 H   0  0  0  0  0  0  0  0  0  0  0  0
    0.5054   -7.5286   34.1757 H   0  0  0  0  0  0  0  0  0  0  0  0
   -1.5060   -8.3294   35.3815 H   0  0  0  0  0  0  0  0  0  0  0  0
   -1.6204   -6.0181   35.6613 H   0  0  0  0  0  0  0  0  0  0  0  0
   -0.1712   -3.7845   34.8457 H   0  0  0  0  0  0  0  0  0  0  0  0
   -1.6428   -5.6870   31.4679 H   0  0  0  0  0  0  0  0  0  0  0  0
  1  2  2  0
  2  3  1  0
  3  4  1  0
  4  5  1  0
  5  6  1  0
  6  7  2  0
  7  8  1  0
  8  9  1  0
  2 10  1  0
 10 11  1  0
 11 12  2  0
 12 13  1  0
 13 14  2  0
 14 15  1  0
 15 16  2  0
 16 17  1  0
 17 18  1  0
 18 19  2  0
 19 20  1  0
 20 21  2  0
  9  5  2  0
 16 11  1  0
 21 17  1  0
  3 22  1  0
  3 23  1  0
  6 24  1  0
  7 25  1  0
 10 26  1  0
 12 27  1  0
 13 28  1  0
 14 29  1  0
 15 30  1  0
 18 31  1  0
 19 32  1  0
 21 33  1  0
M  END
>  <Energy>  (562) 
675.37870235411401

>  <compound_id>  (562) 
29366

>  <target_id>  (562) 
1

>  <reference_id>  (562) 
35

>  <inspiration_ids>  (562) 
[186, 35]

>  <energy_score>  (562) 
601.0200431353012

>  <distance_score>  (562) 
5.100083801052978

>  <path>  (562) 
/opt/xchem-fragalysis-2/maxwin/BulkDock/SCRATCH/511013/C29366-P35/C29366-P35.minimised.mol

>  <scratch_subdir>  (562) 
/opt/xchem-fragalysis-2/maxwin/BulkDock/SCRATCH/511013/C29366-P35

>  <fragmenstein_runtime>  (562) 
7.664907693862915

>  <fragmenstein_outcome>  (562) 
too moved

>  <fragmenstein_mode>  (562) 
expansion

>  <fragmenstein_error>  (562) 


$$$$
C29371-P186
     RDKit          3D

 36 38  0  0  0  0  0  0  0  0999 V2000
   -1.7253  -14.9292   27.4019 C   0  0  0  0  0  0  0  0  0  0  0  0
   -2.1443  -13.7128   26.7420 C   0  0  0  0  0  0  0  0  0  0  0  0
   -2.6674  -12.4001   27.4444 C   0  0  0  0  0  0  0  0  0  0  0  0
   -2.5895  -12.0467   28.9388 C   0  0  0  0  0  0  0  0  0  0  0  0
   -1.3495  -10.7117   29.7562 C   0  0  0  0  0  0  0  0  0  0  0  0
   -0.5258   -9.4992   29.0244 C   0  0  0  0  0  0  0  0  0  0  0  0
    0.5907   -8.6393   29.4465 N   0  0  0  0  0  0  0  0  0  0  0  0
    0.5597   -7.6057   30.3405 C   0  0  0  0  0  0  0  0  0  0  0  0
    1.2233   -6.5203   29.8303 C   0  0  0  0  0  0  0  0  0  0  0  0
    1.9233   -6.9525   28.7458 N   0  0  0  0  0  0  0  0  0  0  0  0
    1.5548   -8.2096   28.5753 C   0  0  0  0  0  0  0  0  0  0  0  0
   -1.2998   -9.7700   31.1779 N   0  0  0  0  0  0  0  0  0  0  0  0
   -2.0257   -8.6126   31.8373 C   0  0  0  0  0  0  0  0  0  0  0  0
   -1.3457   -7.3973   32.5351 C   0  0  0  0  0  0  0  0  0  0  0  0
   -1.1171   -6.0851   32.1181 C   0  0  0  0  0  0  0  0  0  0  0  0
   -0.4849   -5.2937   33.1124 C   0  0  0  0  0  0  0  0  0  0  0  0
   -0.2206   -5.9051   34.2551 N   0  0  0  0  0  0  0  0  0  0  0  0
   -0.8386   -7.4391   34.1858 S   0  0  0  0  0  0  0  0  0  0  0  0
   -2.3942  -13.4264   29.3286 C   0  0  0  0  0  0  0  0  0  0  0  0
   -1.9152  -14.9035   28.7773 C   0  0  0  0  0  0  0  0  0  0  0  0
   -1.4368  -15.8157   26.8530 H   0  0  0  0  0  0  0  0  0  0  0  0
   -2.0714  -13.6704   25.6525 H   0  0  0  0  0  0  0  0  0  0  0  0
   -2.7021  -11.6566   26.6643 H   0  0  0  0  0  0  0  0  0  0  0  0
   -2.3170  -10.4870   29.9717 H   0  0  0  0  0  0  0  0  0  0  0  0
   -0.1630   -9.9620   28.1647 H   0  0  0  0  0  0  0  0  0  0  0  0
   -1.1675   -8.6766   28.7465 H   0  0  0  0  0  0  0  0  0  0  0  0
    0.3440   -7.8258   31.3507 H   0  0  0  0  0  0  0  0  0  0  0  0
    1.3993   -5.5478   30.2707 H   0  0  0  0  0  0  0  0  0  0  0  0
    1.8666   -8.7656   27.7101 H   0  0  0  0  0  0  0  0  0  0  0  0
   -0.5377  -10.1070   31.7368 H   0  0  0  0  0  0  0  0  0  0  0  0
   -2.8409   -8.2157   31.2500 H   0  0  0  0  0  0  0  0  0  0  0  0
   -2.4806   -9.0382   32.7212 H   0  0  0  0  0  0  0  0  0  0  0  0
   -1.3180   -5.7080   31.1351 H   0  0  0  0  0  0  0  0  0  0  0  0
   -0.1865   -4.2576   33.0179 H   0  0  0  0  0  0  0  0  0  0  0  0
   -1.4320  -13.2467   28.9629 H   0  0  0  0  0  0  0  0  0  0  0  0
   -1.9552  -15.7645   29.4326 H   0  0  0  0  0  0  0  0  0  0  0  0
  1  2  2  0
  2  3  1  0
  3  4  2  0
  4  5  1  0
  5  6  1  0
  6  7  1  0
  7  8  1  0
  8  9  2  0
  9 10  1  0
 10 11  2  0
  5 12  1  0
 12 13  1  0
 13 14  1  0
 14 15  2  0
 15 16  1  0
 16 17  2  0
 17 18  1  0
  4 19  1  0
 19 20  2  0
 20  1  1  0
 11  7  1  0
 18 14  1  0
  1 21  1  0
  2 22  1  0
  3 23  1  0
  5 24  1  0
  6 25  1  0
  6 26  1  0
  8 27  1  0
  9 28  1  0
 11 29  1  0
 12 30  1  0
 13 31  1  0
 13 32  1  0
 15 33  1  0
 16 34  1  0
 19 35  1  0
 20 36  1  0
M  END
>  <Energy>  (563) 
449.72650587382657

>  <compound_id>  (563) 
29371

>  <target_id>  (563) 
1

>  <reference_id>  (563) 
186

>  <inspiration_ids>  (563) 
[186, 35]

>  <energy_score>  (563) 
357.8231100761333

>  <distance_score>  (563) 
8.105522096368269

>  <path>  (563) 
/opt/xchem-fragalysis-2/maxwin/BulkDock/SCRATCH/511013/C29371-P186/C29371-P186.minimised.mol

>  <scratch_subdir>  (563) 
/opt/xchem-fragalysis-2/maxwin/BulkDock/SCRATCH/511013/C29371-P186

>  <fragmenstein_runtime>  (563) 
17.773972272872925

>  <fragmenstein_outcome>  (563) 
too moved

>  <fragmenstein_mode>  (563) 
expansion

>  <fragmenstein_error>  (563) 


$$$$
C29371-P35
     RDKit          3D

 36 38  0  0  0  0  0  0  0  0999 V2000
   -9.2520   -8.9646   26.1225 C   0  0  0  0  0  0  0  0  0  0  0  0
   -9.4233   -8.3357   27.3438 C   0  0  0  0  0  0  0  0  0  0  0  0
   -8.3011   -7.9464   28.0882 C   0  0  0  0  0  0  0  0  0  0  0  0
   -6.9692   -8.2183   27.6931 C   0  0  0  0  0  0  0  0  0  0  0  0
   -5.8034   -7.8756   28.6797 C   0  0  0  0  0  0  0  0  0  0  0  0
   -5.9198   -8.5810   30.4262 C   0  0  0  0  0  0  0  0  0  0  0  0
   -4.5579   -8.6813   31.6987 N   0  0  0  0  0  0  0  0  0  0  0  0
   -3.2148   -8.2374   31.7273 C   0  0  0  0  0  0  0  0  0  0  0  0
   -2.5848   -8.5772   32.8878 C   0  0  0  0  0  0  0  0  0  0  0  0
   -3.5028   -9.1061   33.6945 N   0  0  0  0  0  0  0  0  0  0  0  0
   -4.6037   -9.2171   32.9699 C   0  0  0  0  0  0  0  0  0  0  0  0
   -4.2749   -7.5103   28.2481 N   0  0  0  0  0  0  0  0  0  0  0  0
   -2.7634   -7.0685   27.3646 C   0  0  0  0  0  0  0  0  0  0  0  0
   -1.4588   -6.6884   28.2202 C   0  0  0  0  0  0  0  0  0  0  0  0
   -0.6721   -5.5343   28.1157 C   0  0  0  0  0  0  0  0  0  0  0  0
    0.0274   -5.2407   29.3176 C   0  0  0  0  0  0  0  0  0  0  0  0
   -0.0900   -6.1530   30.2667 N   0  0  0  0  0  0  0  0  0  0  0  0
   -0.8287   -7.4740   29.5849 S   0  0  0  0  0  0  0  0  0  0  0  0
   -6.8489   -8.7891   26.4192 C   0  0  0  0  0  0  0  0  0  0  0  0
   -7.9640   -9.1754   25.6524 C   0  0  0  0  0  0  0  0  0  0  0  0
  -10.1091   -9.2678   25.5301 H   0  0  0  0  0  0  0  0  0  0  0  0
  -10.4216   -8.1203   27.7131 H   0  0  0  0  0  0  0  0  0  0  0  0
   -8.5065   -7.3632   28.9762 H   0  0  0  0  0  0  0  0  0  0  0  0
   -6.2502   -6.8860   28.9110 H   0  0  0  0  0  0  0  0  0  0  0  0
   -6.4382   -9.5451   30.3950 H   0  0  0  0  0  0  0  0  0  0  0  0
   -6.3837   -7.7855   31.0038 H   0  0  0  0  0  0  0  0  0  0  0  0
   -2.8222   -7.5437   31.0295 H   0  0  0  0  0  0  0  0  0  0  0  0
   -1.5841   -8.3282   33.2147 H   0  0  0  0  0  0  0  0  0  0  0  0
   -5.4546   -9.7103   33.3817 H   0  0  0  0  0  0  0  0  0  0  0  0
   -3.9122   -7.3317   29.1829 H   0  0  0  0  0  0  0  0  0  0  0  0
   -2.5375   -6.2450   26.7207 H   0  0  0  0  0  0  0  0  0  0  0  0
   -2.7208   -7.6296   26.3971 H   0  0  0  0  0  0  0  0  0  0  0  0
   -0.7308   -4.8163   27.3330 H   0  0  0  0  0  0  0  0  0  0  0  0
    0.5996   -4.3480   29.5343 H   0  0  0  0  0  0  0  0  0  0  0  0
   -5.8842   -9.0074   25.9876 H   0  0  0  0  0  0  0  0  0  0  0  0
   -7.8087   -9.6586   24.6915 H   0  0  0  0  0  0  0  0  0  0  0  0
  1  2  2  0
  2  3  1  0
  3  4  2  0
  4  5  1  0
  5  6  1  0
  6  7  1  0
  7  8  1  0
  8  9  2  0
  9 10  1  0
 10 11  2  0
  5 12  1  0
 12 13  1  0
 13 14  1  0
 14 15  2  0
 15 16  1  0
 16 17  2  0
 17 18  1  0
  4 19  1  0
 19 20  2  0
 20  1  1  0
 11  7  1  0
 18 14  1  0
  1 21  1  0
  2 22  1  0
  3 23  1  0
  5 24  1  0
  6 25  1  0
  6 26  1  0
  8 27  1  0
  9 28  1  0
 11 29  1  0
 12 30  1  0
 13 31  1  0
 13 32  1  0
 15 33  1  0
 16 34  1  0
 19 35  1  0
 20 36  1  0
M  END
>  <Energy>  (564) 
311.25474797016568

>  <compound_id>  (564) 
29371

>  <target_id>  (564) 
1

>  <reference_id>  (564) 
35

>  <inspiration_ids>  (564) 
[186, 35]

>  <energy_score>  (564) 
219.35135217247313

>  <distance_score>  (564) 
8.863214203497913

>  <path>  (564) 
/opt/xchem-fragalysis-2/maxwin/BulkDock/SCRATCH/511013/C29371-P35/C29371-P35.minimised.mol

>  <scratch_subdir>  (564) 
/opt/xchem-fragalysis-2/maxwin/BulkDock/SCRATCH/511013/C29371-P35

>  <fragmenstein_runtime>  (564) 
17.27115249633789

>  <fragmenstein_outcome>  (564) 
too moved

>  <fragmenstein_mode>  (564) 
expansion

>  <fragmenstein_error>  (564) 


$$$$
C29374-P186
     RDKit          3D

 37 39  0  0  0  0  0  0  0  0999 V2000
   -1.8111   -8.0598   35.8854 O   0  0  0  0  0  0  0  0  0  0  0  0
   -2.2279   -8.2714   34.8154 C   0  0  0  0  0  0  0  0  0  0  0  0
   -1.6428   -7.9746   33.4881 N   0  0  0  0  0  0  0  0  0  0  0  0
   -0.3684   -7.4368   33.1310 C   0  0  0  0  0  0  0  0  0  0  0  0
   -0.4221   -6.1477   32.3949 C   0  0  0  0  0  0  0  0  0  0  0  0
   -0.8022   -4.9936   33.0739 C   0  0  0  0  0  0  0  0  0  0  0  0
   -0.8659   -3.7792   32.4062 C   0  0  0  0  0  0  0  0  0  0  0  0
   -0.5148   -3.7000   31.0543 C   0  0  0  0  0  0  0  0  0  0  0  0
   -0.5851   -2.4556   30.3782 N   0  0  0  0  0  0  0  0  0  0  0  0
   -0.8820   -1.2315   30.9326 C   0  0  0  0  0  0  0  0  0  0  0  0
   -0.8003   -0.3212   29.9080 C   0  0  0  0  0  0  0  0  0  0  0  0
   -0.4677   -0.9324   28.7367 N   0  0  0  0  0  0  0  0  0  0  0  0
   -0.3735   -2.2091   29.0376 C   0  0  0  0  0  0  0  0  0  0  0  0
   -0.0855   -4.8500   30.3831 C   0  0  0  0  0  0  0  0  0  0  0  0
   -0.0496   -6.0716   31.0501 C   0  0  0  0  0  0  0  0  0  0  0  0
   -3.4575   -9.0096   34.3889 N   0  0  0  0  0  0  0  0  0  0  0  0
   -4.4482   -9.7695   35.1800 C   0  0  0  0  0  0  0  0  0  0  0  0
   -5.5767  -10.6936   34.3666 C   0  0  0  0  0  0  0  0  0  0  0  0
   -5.7713  -11.3571   33.0355 C   0  0  0  0  0  0  0  0  0  0  0  0
   -6.6135  -12.3762   32.6396 C   0  0  0  0  0  0  0  0  0  0  0  0
   -7.9042  -12.1631   33.5959 S   0  0  0  0  0  0  0  0  0  0  0  0
   -6.6740  -11.0551   35.0698 N   0  0  0  0  0  0  0  0  0  0  0  0
   -2.2252   -8.3640   32.7762 H   0  0  0  0  0  0  0  0  0  0  0  0
    0.0948   -8.1860   32.4928 H   0  0  0  0  0  0  0  0  0  0  0  0
    0.2470   -7.3395   34.0321 H   0  0  0  0  0  0  0  0  0  0  0  0
   -1.0661   -5.0384   34.1305 H   0  0  0  0  0  0  0  0  0  0  0  0
   -1.1992   -2.9200   32.9812 H   0  0  0  0  0  0  0  0  0  0  0  0
   -1.1147   -1.0805   31.9747 H   0  0  0  0  0  0  0  0  0  0  0  0
   -0.9694    0.7465   29.9569 H   0  0  0  0  0  0  0  0  0  0  0  0
   -0.1654   -2.9845   28.3135 H   0  0  0  0  0  0  0  0  0  0  0  0
    0.2231   -4.8287   29.3425 H   0  0  0  0  0  0  0  0  0  0  0  0
    0.2768   -6.9590   30.5128 H   0  0  0  0  0  0  0  0  0  0  0  0
   -3.5609   -8.9330   33.3972 H   0  0  0  0  0  0  0  0  0  0  0  0
   -3.8255  -10.4241   35.7809 H   0  0  0  0  0  0  0  0  0  0  0  0
   -4.8812   -9.1238   35.9438 H   0  0  0  0  0  0  0  0  0  0  0  0
   -5.4327  -10.9899   32.1243 H   0  0  0  0  0  0  0  0  0  0  0  0
   -6.6174  -12.9793   31.7541 H   0  0  0  0  0  0  0  0  0  0  0  0
  1  2  2  0
  2  3  1  0
  3  4  1  0
  4  5  1  0
  5  6  2  0
  6  7  1  0
  7  8  2  0
  8  9  1  0
  9 10  1  0
 10 11  2  0
 11 12  1  0
 12 13  2  0
  8 14  1  0
 14 15  2  0
  2 16  1  0
 16 17  1  0
 17 18  1  0
 18 19  1  0
 19 20  2  0
 20 21  1  0
 21 22  1  0
 15  5  1  0
 22 18  2  0
 13  9  1  0
  3 23  1  0
  4 24  1  0
  4 25  1  0
  6 26  1  0
  7 27  1  0
 10 28  1  0
 11 29  1  0
 13 30  1  0
 14 31  1  0
 15 32  1  0
 16 33  1  0
 17 34  1  0
 17 35  1  0
 19 36  1  0
 20 37  1  0
M  END
>  <Energy>  (565) 
67.460048945819551

>  <compound_id>  (565) 
29374

>  <target_id>  (565) 
1

>  <reference_id>  (565) 
186

>  <inspiration_ids>  (565) 
[186, 35]

>  <energy_score>  (565) 
59.34496090664294

>  <distance_score>  (565) 
7.396533525096687

>  <path>  (565) 
/opt/xchem-fragalysis-2/maxwin/BulkDock/SCRATCH/511013/C29374-P186/C29374-P186.minimised.mol

>  <scratch_subdir>  (565) 
/opt/xchem-fragalysis-2/maxwin/BulkDock/SCRATCH/511013/C29374-P186

>  <fragmenstein_runtime>  (565) 
17.410842657089233

>  <fragmenstein_outcome>  (565) 
too moved

>  <fragmenstein_mode>  (565) 
expansion

>  <fragmenstein_error>  (565) 


$$$$
C29374-P35
     RDKit          3D

 37 39  0  0  0  0  0  0  0  0999 V2000
   -4.8499   -9.3205   34.5234 O   0  0  0  0  0  0  0  0  0  0  0  0
   -4.2540   -9.2995   33.5247 C   0  0  0  0  0  0  0  0  0  0  0  0
   -2.9740   -8.6639   33.1987 N   0  0  0  0  0  0  0  0  0  0  0  0
   -2.0387   -7.9664   34.0294 C   0  0  0  0  0  0  0  0  0  0  0  0
   -1.2051   -6.9612   33.2858 C   0  0  0  0  0  0  0  0  0  0  0  0
   -0.8811   -7.0741   31.9308 C   0  0  0  0  0  0  0  0  0  0  0  0
   -0.0984   -6.1130   31.2967 C   0  0  0  0  0  0  0  0  0  0  0  0
    0.4201   -5.0405   32.0248 C   0  0  0  0  0  0  0  0  0  0  0  0
    1.2711   -4.1017   31.3935 N   0  0  0  0  0  0  0  0  0  0  0  0
    1.4673   -3.9418   30.0410 C   0  0  0  0  0  0  0  0  0  0  0  0
    2.3767   -2.9221   29.9041 C   0  0  0  0  0  0  0  0  0  0  0  0
    2.7636   -2.4485   31.1232 N   0  0  0  0  0  0  0  0  0  0  0  0
    2.0787   -3.1589   31.9937 C   0  0  0  0  0  0  0  0  0  0  0  0
    0.1148   -4.9199   33.3812 C   0  0  0  0  0  0  0  0  0  0  0  0
   -0.6961   -5.8712   33.9971 C   0  0  0  0  0  0  0  0  0  0  0  0
   -4.5220  -10.0020   32.2180 N   0  0  0  0  0  0  0  0  0  0  0  0
   -5.7792  -11.2148   31.7627 C   0  0  0  0  0  0  0  0  0  0  0  0
   -7.0693  -12.5679   32.1400 C   0  0  0  0  0  0  0  0  0  0  0  0
   -7.2179  -14.0993   31.4408 C   0  0  0  0  0  0  0  0  0  0  0  0
   -7.7814  -14.9851   32.5281 C   0  0  0  0  0  0  0  0  0  0  0  0
   -9.2616  -14.5546   32.5507 S   0  0  0  0  0  0  0  0  0  0  0  0
   -8.4600  -12.5762   33.1282 N   0  0  0  0  0  0  0  0  0  0  0  0
   -2.7916   -8.7734   32.2303 H   0  0  0  0  0  0  0  0  0  0  0  0
   -1.4263   -8.7210   34.5066 H   0  0  0  0  0  0  0  0  0  0  0  0
   -2.6048   -7.4895   34.8359 H   0  0  0  0  0  0  0  0  0  0  0  0
   -1.1869   -7.9243   31.3382 H   0  0  0  0  0  0  0  0  0  0  0  0
    0.1492   -6.2741   30.2516 H   0  0  0  0  0  0  0  0  0  0  0  0
    0.9371   -4.5105   29.2938 H   0  0  0  0  0  0  0  0  0  0  0  0
    2.7607   -2.4987   28.9843 H   0  0  0  0  0  0  0  0  0  0  0  0
    2.1544   -3.0433   33.0655 H   0  0  0  0  0  0  0  0  0  0  0  0
    0.4671   -4.0904   33.9865 H   0  0  0  0  0  0  0  0  0  0  0  0
   -0.9547   -5.7452   35.0445 H   0  0  0  0  0  0  0  0  0  0  0  0
   -3.7686   -9.8331   31.5934 H   0  0  0  0  0  0  0  0  0  0  0  0
   -6.0688  -10.8295   32.7276 H   0  0  0  0  0  0  0  0  0  0  0  0
   -6.1739  -10.7578   30.8655 H   0  0  0  0  0  0  0  0  0  0  0  0
   -6.4490  -14.3122   30.6985 H   0  0  0  0  0  0  0  0  0  0  0  0
   -7.4394  -15.9217   32.9983 H   0  0  0  0  0  0  0  0  0  0  0  0
  1  2  2  0
  2  3  1  0
  3  4  1  0
  4  5  1  0
  5  6  2  0
  6  7  1  0
  7  8  2  0
  8  9  1  0
  9 10  1  0
 10 11  2  0
 11 12  1  0
 12 13  2  0
  8 14  1  0
 14 15  2  0
  2 16  1  0
 16 17  1  0
 17 18  1  0
 18 19  1  0
 19 20  2  0
 20 21  1  0
 21 22  1  0
 15  5  1  0
 22 18  2  0
 13  9  1  0
  3 23  1  0
  4 24  1  0
  4 25  1  0
  6 26  1  0
  7 27  1  0
 10 28  1  0
 11 29  1  0
 13 30  1  0
 14 31  1  0
 15 32  1  0
 16 33  1  0
 17 34  1  0
 17 35  1  0
 19 36  1  0
 20 37  1  0
M  END
>  <Energy>  (566) 
268.20036242925187

>  <compound_id>  (566) 
29374

>  <target_id>  (566) 
1

>  <reference_id>  (566) 
35

>  <inspiration_ids>  (566) 
[186, 35]

>  <energy_score>  (566) 
260.08527439006616

>  <distance_score>  (566) 
6.462797678303551

>  <path>  (566) 
/opt/xchem-fragalysis-2/maxwin/BulkDock/SCRATCH/511013/C29374-P35/C29374-P35.minimised.mol

>  <scratch_subdir>  (566) 
/opt/xchem-fragalysis-2/maxwin/BulkDock/SCRATCH/511013/C29374-P35

>  <fragmenstein_runtime>  (566) 
20.102803230285645

>  <fragmenstein_outcome>  (566) 
too moved

>  <fragmenstein_mode>  (566) 
expansion

>  <fragmenstein_error>  (566) 


$$$$
C29377-P186
     RDKit          3D

 36 38  0  0  0  0  0  0  0  0999 V2000
   -5.0528   -9.9489   36.0609 C   0  0  0  0  0  0  0  0  0  0  0  0
   -4.9303  -10.1025   34.5762 C   0  0  0  0  0  0  0  0  0  0  0  0
   -5.8234  -11.3097   33.3878 N   0  0  0  0  0  0  0  0  0  0  0  0
   -7.4207  -12.4078   33.0504 C   0  0  0  0  0  0  0  0  0  0  0  0
   -8.7558  -13.9000   33.0468 C   0  0  0  0  0  0  0  0  0  0  0  0
   -9.5816  -15.2879   33.7776 C   0  0  0  0  0  0  0  0  0  0  0  0
  -10.0203  -16.6077   33.4861 C   0  0  0  0  0  0  0  0  0  0  0  0
  -11.0202  -15.4542   32.9073 S   0  0  0  0  0  0  0  0  0  0  0  0
   -9.0475  -14.7813   32.0654 N   0  0  0  0  0  0  0  0  0  0  0  0
   -3.3898   -9.0036   34.3140 C   0  0  0  0  0  0  0  0  0  0  0  0
   -2.5846   -8.6275   35.3883 C   0  0  0  0  0  0  0  0  0  0  0  0
   -1.3989   -7.8162   35.3194 C   0  0  0  0  0  0  0  0  0  0  0  0
   -0.8499   -7.4196   34.1064 C   0  0  0  0  0  0  0  0  0  0  0  0
    0.3694   -6.7083   34.0301 N   0  0  0  0  0  0  0  0  0  0  0  0
    1.1960   -6.3536   35.0688 C   0  0  0  0  0  0  0  0  0  0  0  0
    2.3095   -5.7910   34.4934 C   0  0  0  0  0  0  0  0  0  0  0  0
    2.2004   -5.7777   33.1349 N   0  0  0  0  0  0  0  0  0  0  0  0
    1.0127   -6.2814   32.8887 C   0  0  0  0  0  0  0  0  0  0  0  0
   -1.4843   -7.8414   32.9626 C   0  0  0  0  0  0  0  0  0  0  0  0
   -2.6670   -8.6080   33.0710 C   0  0  0  0  0  0  0  0  0  0  0  0
   -5.3016   -8.9574   36.4335 H   0  0  0  0  0  0  0  0  0  0  0  0
   -5.7722  -10.7138   36.1909 H   0  0  0  0  0  0  0  0  0  0  0  0
   -4.1932  -10.2449   36.6652 H   0  0  0  0  0  0  0  0  0  0  0  0
   -4.3088  -10.8890   34.8328 H   0  0  0  0  0  0  0  0  0  0  0  0
   -5.4468  -11.0520   32.4874 H   0  0  0  0  0  0  0  0  0  0  0  0
   -8.0008  -11.7552   32.4233 H   0  0  0  0  0  0  0  0  0  0  0  0
   -6.7864  -12.9820   32.3582 H   0  0  0  0  0  0  0  0  0  0  0  0
   -9.1944  -15.7678   34.6497 H   0  0  0  0  0  0  0  0  0  0  0  0
  -10.1768  -17.4757   34.1223 H   0  0  0  0  0  0  0  0  0  0  0  0
   -2.7364   -9.1138   36.3337 H   0  0  0  0  0  0  0  0  0  0  0  0
   -0.8934   -7.6101   36.2581 H   0  0  0  0  0  0  0  0  0  0  0  0
    0.9543   -6.5224   36.1070 H   0  0  0  0  0  0  0  0  0  0  0  0
    3.1842   -5.3951   34.9943 H   0  0  0  0  0  0  0  0  0  0  0  0
    0.5909   -6.3709   31.8981 H   0  0  0  0  0  0  0  0  0  0  0  0
   -1.1343   -7.6082   31.9638 H   0  0  0  0  0  0  0  0  0  0  0  0
   -3.1087   -8.7005   32.0766 H   0  0  0  0  0  0  0  0  0  0  0  0
  1  2  1  0
  2  3  1  0
  3  4  1  0
  4  5  1  0
  5  6  1  0
  6  7  2  0
  7  8  1  0
  8  9  1  0
  2 10  1  0
 10 11  2  0
 11 12  1  0
 12 13  2  0
 13 14  1  0
 14 15  1  0
 15 16  2  0
 16 17  1  0
 17 18  2  0
 13 19  1  0
 19 20  2  0
  9  5  2  0
 20 10  1  0
 18 14  1  0
  1 21  1  0
  1 22  1  0
  1 23  1  0
  2 24  1  0
  3 25  1  0
  4 26  1  0
  4 27  1  0
  6 28  1  0
  7 29  1  0
 11 30  1  0
 12 31  1  0
 15 32  1  0
 16 33  1  0
 18 34  1  0
 19 35  1  0
 20 36  1  0
M  END
>  <Energy>  (567) 
721.08105703235526

>  <compound_id>  (567) 
29377

>  <target_id>  (567) 
1

>  <reference_id>  (567) 
186

>  <inspiration_ids>  (567) 
[186, 35]

>  <energy_score>  (567) 
630.3874015275187

>  <distance_score>  (567) 
6.227529889714551

>  <path>  (567) 
/opt/xchem-fragalysis-2/maxwin/BulkDock/SCRATCH/511013/C29377-P186/C29377-P186.minimised.mol

>  <scratch_subdir>  (567) 
/opt/xchem-fragalysis-2/maxwin/BulkDock/SCRATCH/511013/C29377-P186

>  <fragmenstein_runtime>  (567) 
9.883894205093384

>  <fragmenstein_outcome>  (567) 
too moved

>  <fragmenstein_mode>  (567) 
expansion

>  <fragmenstein_error>  (567) 


$$$$
C29377-P35
     RDKit          3D

 36 38  0  0  0  0  0  0  0  0999 V2000
   -0.8176   -3.0164   30.7612 C   0  0  0  0  0  0  0  0  0  0  0  0
   -0.6151   -3.7206   32.0990 C   0  0  0  0  0  0  0  0  0  0  0  0
   -0.9764   -5.1506   32.0118 N   0  0  0  0  0  0  0  0  0  0  0  0
   -0.7394   -5.8967   33.2706 C   0  0  0  0  0  0  0  0  0  0  0  0
   -1.5048   -7.2013   33.3168 C   0  0  0  0  0  0  0  0  0  0  0  0
   -1.9075   -7.8646   34.5310 C   0  0  0  0  0  0  0  0  0  0  0  0
   -2.6744   -8.9700   34.2550 C   0  0  0  0  0  0  0  0  0  0  0  0
   -2.8156   -9.0814   32.5602 S   0  0  0  0  0  0  0  0  0  0  0  0
   -1.8873   -7.7899   32.1816 N   0  0  0  0  0  0  0  0  0  0  0  0
    0.8186   -3.6036   32.5857 C   0  0  0  0  0  0  0  0  0  0  0  0
    1.0315   -3.1615   33.8937 C   0  0  0  0  0  0  0  0  0  0  0  0
    2.1042   -3.6685   34.6141 C   0  0  0  0  0  0  0  0  0  0  0  0
    2.9557   -4.6035   34.0144 C   0  0  0  0  0  0  0  0  0  0  0  0
    3.6908   -5.5050   34.8299 N   0  0  0  0  0  0  0  0  0  0  0  0
    4.4368   -6.5877   34.4213 C   0  0  0  0  0  0  0  0  0  0  0  0
    4.7106   -7.3147   35.5523 C   0  0  0  0  0  0  0  0  0  0  0  0
    4.2416   -6.6748   36.6615 N   0  0  0  0  0  0  0  0  0  0  0  0
    3.6673   -5.5840   36.2057 C   0  0  0  0  0  0  0  0  0  0  0  0
    2.9078   -4.7969   32.6296 C   0  0  0  0  0  0  0  0  0  0  0  0
    1.8374   -4.2862   31.9070 C   0  0  0  0  0  0  0  0  0  0  0  0
   -0.2631   -3.5005   29.9494 H   0  0  0  0  0  0  0  0  0  0  0  0
   -0.4832   -1.9741   30.8140 H   0  0  0  0  0  0  0  0  0  0  0  0
   -1.8758   -3.0086   30.4829 H   0  0  0  0  0  0  0  0  0  0  0  0
   -1.2873   -3.2356   32.8186 H   0  0  0  0  0  0  0  0  0  0  0  0
   -1.9461   -5.2819   31.7715 H   0  0  0  0  0  0  0  0  0  0  0  0
    0.3179   -6.1448   33.3851 H   0  0  0  0  0  0  0  0  0  0  0  0
   -1.0499   -5.2984   34.1349 H   0  0  0  0  0  0  0  0  0  0  0  0
   -1.6927   -7.5182   35.5343 H   0  0  0  0  0  0  0  0  0  0  0  0
   -3.1486   -9.6390   34.9623 H   0  0  0  0  0  0  0  0  0  0  0  0
    0.2702   -2.5843   34.4148 H   0  0  0  0  0  0  0  0  0  0  0  0
    2.1564   -3.4172   35.6687 H   0  0  0  0  0  0  0  0  0  0  0  0
    4.6628   -6.7921   33.3908 H   0  0  0  0  0  0  0  0  0  0  0  0
    5.2312   -8.2613   35.6243 H   0  0  0  0  0  0  0  0  0  0  0  0
    3.1966   -4.8451   36.8381 H   0  0  0  0  0  0  0  0  0  0  0  0
    3.5809   -5.4683   32.1130 H   0  0  0  0  0  0  0  0  0  0  0  0
    1.6851   -4.6250   30.8837 H   0  0  0  0  0  0  0  0  0  0  0  0
  1  2  1  0
  2  3  1  0
  3  4  1  0
  4  5  1  0
  5  6  1  0
  6  7  2  0
  7  8  1  0
  8  9  1  0
  2 10  1  0
 10 11  2  0
 11 12  1  0
 12 13  2  0
 13 14  1  0
 14 15  1  0
 15 16  2  0
 16 17  1  0
 17 18  2  0
 13 19  1  0
 19 20  2  0
  9  5  2  0
 20 10  1  0
 18 14  1  0
  1 21  1  0
  1 22  1  0
  1 23  1  0
  2 24  1  0
  3 25  1  0
  4 26  1  0
  4 27  1  0
  6 28  1  0
  7 29  1  0
 11 30  1  0
 12 31  1  0
 15 32  1  0
 16 33  1  0
 18 34  1  0
 19 35  1  0
 20 36  1  0
M  END
>  <Energy>  (568) 
72.595218459990193

>  <compound_id>  (568) 
29377

>  <target_id>  (568) 
1

>  <reference_id>  (568) 
35

>  <inspiration_ids>  (568) 
[186, 35]

>  <energy_score>  (568) 
-18.098437044837624

>  <distance_score>  (568) 
9.304617660962899

>  <path>  (568) 
/opt/xchem-fragalysis-2/maxwin/BulkDock/SCRATCH/511013/C29377-P35/C29377-P35.minimised.mol

>  <scratch_subdir>  (568) 
/opt/xchem-fragalysis-2/maxwin/BulkDock/SCRATCH/511013/C29377-P35

>  <fragmenstein_runtime>  (568) 
11.109904766082764

>  <fragmenstein_outcome>  (568) 
too moved

>  <fragmenstein_mode>  (568) 
expansion

>  <fragmenstein_error>  (568) 


$$$$
C29399-P186
     RDKit          3D

 42 43  0  0  0  0  0  0  0  0999 V2000
   -1.3513   -7.0340   34.5194 O   0  0  0  0  0  0  0  0  0  0  0  0
   -1.6503   -7.8083   33.6608 C   0  0  0  0  0  0  0  0  0  0  0  0
   -0.8244   -7.8983   32.3928 C   0  0  0  0  0  0  0  0  0  0  0  0
    0.2977   -6.8718   32.3748 C   0  0  0  0  0  0  0  0  0  0  0  0
   -0.1398   -5.5814   31.8879 N   0  0  0  0  0  0  0  0  0  0  0  0
    0.0317   -5.1189   30.6144 C   0  0  0  0  0  0  0  0  0  0  0  0
   -0.5705   -3.8838   30.6045 C   0  0  0  0  0  0  0  0  0  0  0  0
   -1.1030   -3.5994   31.8327 N   0  0  0  0  0  0  0  0  0  0  0  0
   -0.7828   -4.6165   32.6012 C   0  0  0  0  0  0  0  0  0  0  0  0
   -2.7859   -8.6851   33.5392 N   0  0  0  0  0  0  0  0  0  0  0  0
   -3.9968   -8.8332   34.3867 C   0  0  0  0  0  0  0  0  0  0  0  0
   -4.4913   -9.9865   35.1542 C   0  0  0  0  0  0  0  0  0  0  0  0
   -3.3918  -10.2389   36.1238 C   0  0  0  0  0  0  0  0  0  0  0  0
   -2.4950   -9.1618   36.2431 O   0  0  0  0  0  0  0  0  0  0  0  0
   -5.7701  -10.8746   34.8033 N   0  0  0  0  0  0  0  0  0  0  0  0
   -6.3043  -11.5934   33.2933 C   0  0  0  0  0  0  0  0  0  0  0  0
   -5.7393  -11.4666   32.2797 O   0  0  0  0  0  0  0  0  0  0  0  0
   -7.9345  -12.7094   33.0269 C   0  0  0  0  0  0  0  0  0  0  0  0
   -9.0970  -14.3452   33.0418 C   0  0  0  0  0  0  0  0  0  0  0  0
  -10.5790  -15.0330   33.3061 C   0  0  0  0  0  0  0  0  0  0  0  0
  -10.9254  -16.0722   34.1220 C   0  0  0  0  0  0  0  0  0  0  0  0
   -9.6726  -17.0690   33.7814 S   0  0  0  0  0  0  0  0  0  0  0  0
   -8.8941  -15.5374   32.4189 N   0  0  0  0  0  0  0  0  0  0  0  0
   -1.4882   -7.7359   31.5337 H   0  0  0  0  0  0  0  0  0  0  0  0
   -0.4388   -8.9005   32.2989 H   0  0  0  0  0  0  0  0  0  0  0  0
    0.7813   -6.7267   33.3465 H   0  0  0  0  0  0  0  0  0  0  0  0
    1.0661   -7.1943   31.6724 H   0  0  0  0  0  0  0  0  0  0  0  0
    0.5406   -5.6756   29.8418 H   0  0  0  0  0  0  0  0  0  0  0  0
   -0.6649   -3.1946   29.7738 H   0  0  0  0  0  0  0  0  0  0  0  0
   -1.0149   -4.7027   33.6570 H   0  0  0  0  0  0  0  0  0  0  0  0
   -2.7564   -9.1434   32.6306 H   0  0  0  0  0  0  0  0  0  0  0  0
   -4.7887   -8.7712   33.6444 H   0  0  0  0  0  0  0  0  0  0  0  0
   -3.9702   -7.9814   35.0553 H   0  0  0  0  0  0  0  0  0  0  0  0
   -5.0757   -9.4496   35.9137 H   0  0  0  0  0  0  0  0  0  0  0  0
   -3.8826  -10.4207   37.0450 H   0  0  0  0  0  0  0  0  0  0  0  0
   -2.7669  -11.0787   35.9970 H   0  0  0  0  0  0  0  0  0  0  0  0
   -1.8583   -9.2976   35.5090 H   0  0  0  0  0  0  0  0  0  0  0  0
   -6.3723  -11.1956   35.5548 H   0  0  0  0  0  0  0  0  0  0  0  0
   -7.5475  -13.2606   33.7745 H   0  0  0  0  0  0  0  0  0  0  0  0
   -7.2242  -13.2057   32.3063 H   0  0  0  0  0  0  0  0  0  0  0  0
  -11.4935  -14.9176   32.7196 H   0  0  0  0  0  0  0  0  0  0  0  0
  -11.8705  -16.4221   34.5138 H   0  0  0  0  0  0  0  0  0  0  0  0
  1  2  2  0
  2  3  1  0
  3  4  1  0
  4  5  1  0
  5  6  1  0
  6  7  2  0
  7  8  1  0
  8  9  2  0
  2 10  1  0
 10 11  1  0
 11 12  1  0
 12 13  1  0
 13 14  1  0
 12 15  1  0
 15 16  1  0
 16 17  2  0
 16 18  1  0
 18 19  1  0
 19 20  1  0
 20 21  2  0
 21 22  1  0
 22 23  1  0
  9  5  1  0
 23 19  2  0
  3 24  1  0
  3 25  1  0
  4 26  1  0
  4 27  1  0
  6 28  1  0
  7 29  1  0
  9 30  1  0
 10 31  1  0
 11 32  1  0
 11 33  1  0
 12 34  1  0
 13 35  1  0
 13 36  1  0
 14 37  1  0
 15 38  1  0
 18 39  1  0
 18 40  1  0
 20 41  1  0
 21 42  1  0
M  END
>  <Energy>  (569) 
495.37773346741409

>  <compound_id>  (569) 
29399

>  <target_id>  (569) 
1

>  <reference_id>  (569) 
186

>  <inspiration_ids>  (569) 
[186, 35]

>  <energy_score>  (569) 
448.04198051221215

>  <distance_score>  (569) 
6.517086869624621

>  <path>  (569) 
/opt/xchem-fragalysis-2/maxwin/BulkDock/SCRATCH/511013/C29399-P186/C29399-P186.minimised.mol

>  <scratch_subdir>  (569) 
/opt/xchem-fragalysis-2/maxwin/BulkDock/SCRATCH/511013/C29399-P186

>  <fragmenstein_runtime>  (569) 
14.973441123962402

>  <fragmenstein_outcome>  (569) 
too moved

>  <fragmenstein_mode>  (569) 
expansion

>  <fragmenstein_error>  (569) 


$$$$
C29399-P35
     RDKit          3D

 42 43  0  0  0  0  0  0  0  0999 V2000
   -0.8567   -8.3455   35.0760 O   0  0  0  0  0  0  0  0  0  0  0  0
   -1.6687   -8.6030   34.2394 C   0  0  0  0  0  0  0  0  0  0  0  0
   -1.9301   -7.5720   33.1539 C   0  0  0  0  0  0  0  0  0  0  0  0
   -0.7400   -7.0047   32.4095 C   0  0  0  0  0  0  0  0  0  0  0  0
   -0.2059   -5.8088   33.0220 N   0  0  0  0  0  0  0  0  0  0  0  0
   -0.3928   -4.5334   32.5692 C   0  0  0  0  0  0  0  0  0  0  0  0
    0.2115   -3.7346   33.5122 C   0  0  0  0  0  0  0  0  0  0  0  0
    0.7725   -4.4892   34.5083 N   0  0  0  0  0  0  0  0  0  0  0  0
    0.5269   -5.7350   34.1705 C   0  0  0  0  0  0  0  0  0  0  0  0
   -2.4552   -9.7778   34.0327 N   0  0  0  0  0  0  0  0  0  0  0  0
   -2.6028  -11.1137   34.9062 C   0  0  0  0  0  0  0  0  0  0  0  0
   -4.1555  -12.3715   35.1010 C   0  0  0  0  0  0  0  0  0  0  0  0
   -4.5812  -10.3256   35.2045 C   0  0  0  0  0  0  0  0  0  0  0  0
   -4.7687   -9.5136   33.9547 O   0  0  0  0  0  0  0  0  0  0  0  0
   -4.7735  -14.2286   35.7600 N   0  0  0  0  0  0  0  0  0  0  0  0
   -6.2739  -15.3693   35.2024 C   0  0  0  0  0  0  0  0  0  0  0  0
   -6.9660  -15.0726   34.2604 O   0  0  0  0  0  0  0  0  0  0  0  0
   -6.9175  -16.7214   35.9404 C   0  0  0  0  0  0  0  0  0  0  0  0
   -8.3884  -17.0774   35.4999 C   0  0  0  0  0  0  0  0  0  0  0  0
   -8.7383  -18.2324   34.7162 C   0  0  0  0  0  0  0  0  0  0  0  0
  -10.0858  -18.5005   34.8124 C   0  0  0  0  0  0  0  0  0  0  0  0
  -10.8117  -17.2918   35.7735 S   0  0  0  0  0  0  0  0  0  0  0  0
   -9.4071  -16.5101   36.1660 N   0  0  0  0  0  0  0  0  0  0  0  0
   -2.3817   -6.7503   33.7014 H   0  0  0  0  0  0  0  0  0  0  0  0
   -2.6194   -7.9721   32.4055 H   0  0  0  0  0  0  0  0  0  0  0  0
   -1.0550   -6.7176   31.3984 H   0  0  0  0  0  0  0  0  0  0  0  0
    0.0440   -7.7320   32.2867 H   0  0  0  0  0  0  0  0  0  0  0  0
   -0.9235   -4.2968   31.6600 H   0  0  0  0  0  0  0  0  0  0  0  0
    0.2709   -2.6544   33.5256 H   0  0  0  0  0  0  0  0  0  0  0  0
    0.8531   -6.6077   34.7197 H   0  0  0  0  0  0  0  0  0  0  0  0
   -3.1044   -9.6107   33.2684 H   0  0  0  0  0  0  0  0  0  0  0  0
   -2.8433  -10.7480   35.8437 H   0  0  0  0  0  0  0  0  0  0  0  0
   -1.5457  -11.2497   34.9491 H   0  0  0  0  0  0  0  0  0  0  0  0
   -3.5772  -13.0536   34.4476 H   0  0  0  0  0  0  0  0  0  0  0  0
   -5.5537  -10.0415   35.7107 H   0  0  0  0  0  0  0  0  0  0  0  0
   -4.0122   -9.6658   35.9023 H   0  0  0  0  0  0  0  0  0  0  0  0
   -5.2953   -8.7480   34.2649 H   0  0  0  0  0  0  0  0  0  0  0  0
   -4.3693  -14.6002   36.6126 H   0  0  0  0  0  0  0  0  0  0  0  0
   -6.4980  -17.6884   35.6776 H   0  0  0  0  0  0  0  0  0  0  0  0
   -7.2784  -16.5396   36.9577 H   0  0  0  0  0  0  0  0  0  0  0  0
   -8.0335  -18.8485   34.1727 H   0  0  0  0  0  0  0  0  0  0  0  0
  -10.6564  -19.2943   34.3552 H   0  0  0  0  0  0  0  0  0  0  0  0
  1  2  2  0
  2  3  1  0
  3  4  1  0
  4  5  1  0
  5  6  1  0
  6  7  2  0
  7  8  1  0
  8  9  2  0
  2 10  1  0
 10 11  1  0
 11 12  1  0
 12 13  1  0
 13 14  1  0
 12 15  1  0
 15 16  1  0
 16 17  2  0
 16 18  1  0
 18 19  1  0
 19 20  1  0
 20 21  2  0
 21 22  1  0
 22 23  1  0
  9  5  1  0
 23 19  2  0
  3 24  1  0
  3 25  1  0
  4 26  1  0
  4 27  1  0
  6 28  1  0
  7 29  1  0
  9 30  1  0
 10 31  1  0
 11 32  1  0
 11 33  1  0
 12 34  1  0
 13 35  1  0
 13 36  1  0
 14 37  1  0
 15 38  1  0
 18 39  1  0
 18 40  1  0
 20 41  1  0
 21 42  1  0
M  END
>  <Energy>  (570) 
609.73035728157254

>  <compound_id>  (570) 
29399

>  <target_id>  (570) 
1

>  <reference_id>  (570) 
35

>  <inspiration_ids>  (570) 
[186, 35]

>  <energy_score>  (570) 
562.3946043263466

>  <distance_score>  (570) 
6.618191473668841

>  <path>  (570) 
/opt/xchem-fragalysis-2/maxwin/BulkDock/SCRATCH/511013/C29399-P35/C29399-P35.minimised.mol

>  <scratch_subdir>  (570) 
/opt/xchem-fragalysis-2/maxwin/BulkDock/SCRATCH/511013/C29399-P35

>  <fragmenstein_runtime>  (570) 
23.56958270072937

>  <fragmenstein_outcome>  (570) 
too moved

>  <fragmenstein_mode>  (570) 
expansion

>  <fragmenstein_error>  (570) 


$$$$
C29409-P186
     RDKit          3D

 32 33  0  0  0  0  0  0  0  0999 V2000
   -2.5818  -12.0419   28.8891 C   0  0  0  0  0  0  0  0  0  0  0  0
   -2.0961  -10.9257   29.6384 O   0  0  0  0  0  0  0  0  0  0  0  0
   -0.9751  -10.1752   30.1253 C   0  0  0  0  0  0  0  0  0  0  0  0
   -1.1675   -8.8674   31.2290 C   0  0  0  0  0  0  0  0  0  0  0  0
   -0.1807   -7.6343   31.5383 N   0  0  0  0  0  0  0  0  0  0  0  0
   -0.2402   -7.4937   30.0977 C   0  0  0  0  0  0  0  0  0  0  0  0
    0.3044   -6.0542   29.9367 C   0  0  0  0  0  0  0  0  0  0  0  0
   -0.3937   -4.9512   30.1214 N   0  0  0  0  0  0  0  0  0  0  0  0
    0.4746   -3.9085   29.9929 C   0  0  0  0  0  0  0  0  0  0  0  0
    1.7321   -4.3711   29.7059 C   0  0  0  0  0  0  0  0  0  0  0  0
    1.6030   -5.7280   29.6355 N   0  0  0  0  0  0  0  0  0  0  0  0
   -0.7260   -6.8174   32.5753 C   0  0  0  0  0  0  0  0  0  0  0  0
   -1.4458   -5.8618   32.5159 O   0  0  0  0  0  0  0  0  0  0  0  0
   -0.2341   -7.1659   33.8753 C   0  0  0  0  0  0  0  0  0  0  0  0
    1.0571   -7.0062   34.3406 C   0  0  0  0  0  0  0  0  0  0  0  0
    1.0669   -7.0827   35.7563 C   0  0  0  0  0  0  0  0  0  0  0  0
   -0.0999   -7.3103   36.3514 N   0  0  0  0  0  0  0  0  0  0  0  0
   -1.2758   -7.3580   35.1869 S   0  0  0  0  0  0  0  0  0  0  0  0
   -3.6501  -12.1311   29.0651 H   0  0  0  0  0  0  0  0  0  0  0  0
   -2.2219  -13.0183   29.1501 H   0  0  0  0  0  0  0  0  0  0  0  0
   -2.5192  -11.8779   27.8138 H   0  0  0  0  0  0  0  0  0  0  0  0
   -0.4736  -10.9359   30.6549 H   0  0  0  0  0  0  0  0  0  0  0  0
   -0.4407   -9.7693   29.2670 H   0  0  0  0  0  0  0  0  0  0  0  0
   -1.1940   -9.3472   32.2001 H   0  0  0  0  0  0  0  0  0  0  0  0
   -2.1839   -8.4470   31.2478 H   0  0  0  0  0  0  0  0  0  0  0  0
   -1.2223   -7.4448   29.6143 H   0  0  0  0  0  0  0  0  0  0  0  0
    0.5002   -8.1397   29.6194 H   0  0  0  0  0  0  0  0  0  0  0  0
    0.1460   -2.8833   30.1057 H   0  0  0  0  0  0  0  0  0  0  0  0
    2.6663   -3.8616   29.5187 H   0  0  0  0  0  0  0  0  0  0  0  0
    2.3360   -6.3607   29.3682 H   0  0  0  0  0  0  0  0  0  0  0  0
    1.9014   -6.7406   33.7211 H   0  0  0  0  0  0  0  0  0  0  0  0
    1.9301   -6.9635   36.3992 H   0  0  0  0  0  0  0  0  0  0  0  0
  1  2  1  0
  2  3  1  0
  3  4  1  0
  4  5  1  0
  5  6  1  0
  6  7  1  0
  7  8  2  0
  8  9  1  0
  9 10  2  0
 10 11  1  0
  5 12  1  0
 12 13  2  0
 12 14  1  0
 14 15  2  0
 15 16  1  0
 16 17  2  0
 17 18  1  0
 11  7  1  0
 18 14  1  0
  1 19  1  0
  1 20  1  0
  1 21  1  0
  3 22  1  0
  3 23  1  0
  4 24  1  0
  4 25  1  0
  6 26  1  0
  6 27  1  0
  9 28  1  0
 10 29  1  0
 11 30  1  0
 15 31  1  0
 16 32  1  0
M  END
>  <Energy>  (571) 
155.75663975736549

>  <compound_id>  (571) 
29409

>  <target_id>  (571) 
1

>  <reference_id>  (571) 
186

>  <inspiration_ids>  (571) 
[186, 35]

>  <energy_score>  (571) 
102.45001134048465

>  <distance_score>  (571) 
9.845150530421577

>  <path>  (571) 
/opt/xchem-fragalysis-2/maxwin/BulkDock/SCRATCH/511013/C29409-P186/C29409-P186.minimised.mol

>  <scratch_subdir>  (571) 
/opt/xchem-fragalysis-2/maxwin/BulkDock/SCRATCH/511013/C29409-P186

>  <fragmenstein_runtime>  (571) 
18.752944707870483

>  <fragmenstein_outcome>  (571) 
too moved

>  <fragmenstein_mode>  (571) 
expansion

>  <fragmenstein_error>  (571) 


$$$$
C29409-P35
     RDKit          3D

 32 33  0  0  0  0  0  0  0  0999 V2000
   -2.6719   -9.1895   32.2392 C   0  0  0  0  0  0  0  0  0  0  0  0
   -2.4264   -8.0751   31.3867 O   0  0  0  0  0  0  0  0  0  0  0  0
   -1.0487   -7.6624   31.2767 C   0  0  0  0  0  0  0  0  0  0  0  0
   -0.9414   -6.0587   31.3105 C   0  0  0  0  0  0  0  0  0  0  0  0
    0.1340   -4.9499   31.5582 N   0  0  0  0  0  0  0  0  0  0  0  0
    0.6679   -5.9635   32.4602 C   0  0  0  0  0  0  0  0  0  0  0  0
   -0.0880   -6.3268   33.7178 C   0  0  0  0  0  0  0  0  0  0  0  0
   -0.3374   -7.5475   34.1752 N   0  0  0  0  0  0  0  0  0  0  0  0
   -1.2398   -7.4061   35.1768 C   0  0  0  0  0  0  0  0  0  0  0  0
   -1.4896   -6.0871   35.3675 C   0  0  0  0  0  0  0  0  0  0  0  0
   -0.7114   -5.3960   34.4966 N   0  0  0  0  0  0  0  0  0  0  0  0
   -0.4986   -3.7049   31.8304 C   0  0  0  0  0  0  0  0  0  0  0  0
   -0.8354   -3.2129   32.8742 O   0  0  0  0  0  0  0  0  0  0  0  0
   -0.6641   -2.8773   30.6392 C   0  0  0  0  0  0  0  0  0  0  0  0
   -1.4270   -1.7263   30.5169 C   0  0  0  0  0  0  0  0  0  0  0  0
   -1.2487   -1.1419   29.2341 C   0  0  0  0  0  0  0  0  0  0  0  0
   -0.4031   -1.7561   28.4168 N   0  0  0  0  0  0  0  0  0  0  0  0
    0.1773   -3.1101   29.1735 S   0  0  0  0  0  0  0  0  0  0  0  0
   -2.2176   -9.0602   33.2193 H   0  0  0  0  0  0  0  0  0  0  0  0
   -2.2855  -10.0651   31.7377 H   0  0  0  0  0  0  0  0  0  0  0  0
   -3.7523   -9.2641   32.3668 H   0  0  0  0  0  0  0  0  0  0  0  0
   -0.6547   -8.0314   30.3258 H   0  0  0  0  0  0  0  0  0  0  0  0
   -0.4894   -8.1047   32.0751 H   0  0  0  0  0  0  0  0  0  0  0  0
   -1.8434   -5.6904   31.7903 H   0  0  0  0  0  0  0  0  0  0  0  0
   -1.0174   -5.8788   30.2388 H   0  0  0  0  0  0  0  0  0  0  0  0
    1.5768   -5.4758   32.8488 H   0  0  0  0  0  0  0  0  0  0  0  0
    1.0661   -6.7369   31.8089 H   0  0  0  0  0  0  0  0  0  0  0  0
   -1.6720   -8.2438   35.7073 H   0  0  0  0  0  0  0  0  0  0  0  0
   -2.1460   -5.5792   36.0433 H   0  0  0  0  0  0  0  0  0  0  0  0
   -0.7510   -4.3944   34.3283 H   0  0  0  0  0  0  0  0  0  0  0  0
   -2.0507   -1.3258   31.3050 H   0  0  0  0  0  0  0  0  0  0  0  0
   -1.7235   -0.2399   28.8695 H   0  0  0  0  0  0  0  0  0  0  0  0
  1  2  1  0
  2  3  1  0
  3  4  1  0
  4  5  1  0
  5  6  1  0
  6  7  1  0
  7  8  2  0
  8  9  1  0
  9 10  2  0
 10 11  1  0
  5 12  1  0
 12 13  2  0
 12 14  1  0
 14 15  2  0
 15 16  1  0
 16 17  2  0
 17 18  1  0
 11  7  1  0
 18 14  1  0
  1 19  1  0
  1 20  1  0
  1 21  1  0
  3 22  1  0
  3 23  1  0
  4 24  1  0
  4 25  1  0
  6 26  1  0
  6 27  1  0
  9 28  1  0
 10 29  1  0
 11 30  1  0
 15 31  1  0
 16 32  1  0
M  END
>  <Energy>  (572) 
111.69151567962145

>  <compound_id>  (572) 
29409

>  <target_id>  (572) 
1

>  <reference_id>  (572) 
35

>  <inspiration_ids>  (572) 
[186, 35]

>  <energy_score>  (572) 
58.38488726273914

>  <distance_score>  (572) 
9.356288483338174

>  <path>  (572) 
/opt/xchem-fragalysis-2/maxwin/BulkDock/SCRATCH/511013/C29409-P35/C29409-P35.minimised.mol

>  <scratch_subdir>  (572) 
/opt/xchem-fragalysis-2/maxwin/BulkDock/SCRATCH/511013/C29409-P35

>  <fragmenstein_runtime>  (572) 
14.033531427383423

>  <fragmenstein_outcome>  (572) 
too moved

>  <fragmenstein_mode>  (572) 
expansion

>  <fragmenstein_error>  (572) 


$$$$
C29416-P186
     RDKit          3D

 33 35  0  0  0  0  0  0  0  0999 V2000
   -2.4504   -8.0399   30.7068 O   0  0  0  0  0  0  0  0  0  0  0  0
   -2.8858   -8.3461   31.7804 C   0  0  0  0  0  0  0  0  0  0  0  0
   -4.6930   -8.9478   31.8228 C   0  0  0  0  0  0  0  0  0  0  0  0
   -5.4596  -10.6866   31.5451 O   0  0  0  0  0  0  0  0  0  0  0  0
   -6.2700  -11.9977   32.1170 C   0  0  0  0  0  0  0  0  0  0  0  0
   -6.3414  -13.4975   31.2620 C   0  0  0  0  0  0  0  0  0  0  0  0
   -7.3220  -14.2700   31.6359 C   0  0  0  0  0  0  0  0  0  0  0  0
   -8.1764  -13.0948   33.1111 S   0  0  0  0  0  0  0  0  0  0  0  0
   -7.1706  -11.9113   33.0134 N   0  0  0  0  0  0  0  0  0  0  0  0
   -2.2851   -8.2404   33.1137 N   0  0  0  0  0  0  0  0  0  0  0  0
   -1.0585   -7.6590   33.5416 C   0  0  0  0  0  0  0  0  0  0  0  0
   -0.7262   -7.8797   34.8879 C   0  0  0  0  0  0  0  0  0  0  0  0
    0.4720   -7.4379   35.4604 C   0  0  0  0  0  0  0  0  0  0  0  0
    1.3689   -6.7073   34.7070 C   0  0  0  0  0  0  0  0  0  0  0  0
    1.0036   -6.3419   33.4213 C   0  0  0  0  0  0  0  0  0  0  0  0
   -0.2316   -6.7509   32.8459 C   0  0  0  0  0  0  0  0  0  0  0  0
   -0.6142   -5.8771   31.7364 C   0  0  0  0  0  0  0  0  0  0  0  0
   -1.2540   -4.7245   31.8726 N   0  0  0  0  0  0  0  0  0  0  0  0
   -0.9042   -3.9628   30.7868 C   0  0  0  0  0  0  0  0  0  0  0  0
   -0.0999   -4.6813   29.9386 C   0  0  0  0  0  0  0  0  0  0  0  0
   -0.0026   -5.9230   30.5059 N   0  0  0  0  0  0  0  0  0  0  0  0
   -4.8982   -8.7974   32.9109 H   0  0  0  0  0  0  0  0  0  0  0  0
   -5.3390   -8.6317   31.0747 H   0  0  0  0  0  0  0  0  0  0  0  0
   -5.8174  -13.7378   30.3470 H   0  0  0  0  0  0  0  0  0  0  0  0
   -8.0293  -15.0295   31.5148 H   0  0  0  0  0  0  0  0  0  0  0  0
   -2.9003   -8.6727   33.7884 H   0  0  0  0  0  0  0  0  0  0  0  0
   -1.4087   -8.4337   35.5252 H   0  0  0  0  0  0  0  0  0  0  0  0
    0.6901   -7.6649   36.5012 H   0  0  0  0  0  0  0  0  0  0  0  0
    2.2912   -6.3392   35.1473 H   0  0  0  0  0  0  0  0  0  0  0  0
    1.6350   -5.6229   32.8981 H   0  0  0  0  0  0  0  0  0  0  0  0
   -1.2564   -2.9454   30.6696 H   0  0  0  0  0  0  0  0  0  0  0  0
    0.3598   -4.4319   28.9933 H   0  0  0  0  0  0  0  0  0  0  0  0
    0.5331   -6.7030   30.1587 H   0  0  0  0  0  0  0  0  0  0  0  0
  1  2  2  0
  2  3  1  0
  3  4  1  0
  4  5  1  0
  5  6  1  0
  6  7  2  0
  7  8  1  0
  8  9  1  0
  2 10  1  0
 10 11  1  0
 11 12  2  0
 12 13  1  0
 13 14  2  0
 14 15  1  0
 15 16  2  0
 16 17  1  0
 17 18  2  0
 18 19  1  0
 19 20  2  0
 20 21  1  0
  9  5  2  0
 16 11  1  0
 21 17  1  0
  3 22  1  0
  3 23  1  0
  6 24  1  0
  7 25  1  0
 10 26  1  0
 12 27  1  0
 13 28  1  0
 14 29  1  0
 15 30  1  0
 19 31  1  0
 20 32  1  0
 21 33  1  0
M  END
>  <Energy>  (573) 
298.16987754819593

>  <compound_id>  (573) 
29416

>  <target_id>  (573) 
1

>  <reference_id>  (573) 
186

>  <inspiration_ids>  (573) 
[186, 35]

>  <energy_score>  (573) 
216.31463660316433

>  <distance_score>  (573) 
5.745921932620267

>  <path>  (573) 
/opt/xchem-fragalysis-2/maxwin/BulkDock/SCRATCH/511013/C29416-P186/C29416-P186.minimised.mol

>  <scratch_subdir>  (573) 
/opt/xchem-fragalysis-2/maxwin/BulkDock/SCRATCH/511013/C29416-P186

>  <fragmenstein_runtime>  (573) 
8.202871799468994

>  <fragmenstein_outcome>  (573) 
too moved

>  <fragmenstein_mode>  (573) 
expansion

>  <fragmenstein_error>  (573) 


$$$$
C29416-P35
     RDKit          3D

 33 35  0  0  0  0  0  0  0  0999 V2000
   -5.5457   -9.7572   33.5143 O   0  0  0  0  0  0  0  0  0  0  0  0
   -4.9953  -10.1849   32.5525 C   0  0  0  0  0  0  0  0  0  0  0  0
   -6.0849  -11.7410   31.7567 C   0  0  0  0  0  0  0  0  0  0  0  0
   -6.9967  -13.4368   31.6312 O   0  0  0  0  0  0  0  0  0  0  0  0
   -7.9446  -14.6457   32.5452 C   0  0  0  0  0  0  0  0  0  0  0  0
   -9.3750  -15.1093   32.7631 C   0  0  0  0  0  0  0  0  0  0  0  0
   -9.5938  -16.1454   33.7108 C   0  0  0  0  0  0  0  0  0  0  0  0
   -8.1105  -16.7857   34.1520 S   0  0  0  0  0  0  0  0  0  0  0  0
   -7.2709  -15.7818   33.1811 N   0  0  0  0  0  0  0  0  0  0  0  0
   -3.5263   -9.7013   32.0178 N   0  0  0  0  0  0  0  0  0  0  0  0
   -2.5342   -8.7592   32.6055 C   0  0  0  0  0  0  0  0  0  0  0  0
   -2.6348   -8.7930   34.0297 C   0  0  0  0  0  0  0  0  0  0  0  0
   -1.8573   -8.0455   34.9216 C   0  0  0  0  0  0  0  0  0  0  0  0
   -0.9353   -7.1554   34.4573 C   0  0  0  0  0  0  0  0  0  0  0  0
   -0.7888   -7.0636   33.0920 C   0  0  0  0  0  0  0  0  0  0  0  0
   -1.5419   -7.8259   32.1251 C   0  0  0  0  0  0  0  0  0  0  0  0
   -1.1343   -7.3014   30.7974 C   0  0  0  0  0  0  0  0  0  0  0  0
   -0.8200   -6.0208   30.5929 N   0  0  0  0  0  0  0  0  0  0  0  0
   -0.3875   -5.8960   29.2979 C   0  0  0  0  0  0  0  0  0  0  0  0
   -0.4794   -7.1051   28.6681 C   0  0  0  0  0  0  0  0  0  0  0  0
   -0.7322   -7.9943   29.6856 N   0  0  0  0  0  0  0  0  0  0  0  0
   -5.4189  -11.9025   30.8909 H   0  0  0  0  0  0  0  0  0  0  0  0
   -7.0483  -11.2815   31.7533 H   0  0  0  0  0  0  0  0  0  0  0  0
  -10.2346  -14.5622   32.5386 H   0  0  0  0  0  0  0  0  0  0  0  0
  -10.5110  -16.4340   34.1983 H   0  0  0  0  0  0  0  0  0  0  0  0
   -3.2591  -10.2783   31.2410 H   0  0  0  0  0  0  0  0  0  0  0  0
   -3.3641   -9.4244   34.5360 H   0  0  0  0  0  0  0  0  0  0  0  0
   -1.9774   -8.1896   35.9878 H   0  0  0  0  0  0  0  0  0  0  0  0
   -0.3372   -6.5471   35.1271 H   0  0  0  0  0  0  0  0  0  0  0  0
   -0.0329   -6.3474   32.7528 H   0  0  0  0  0  0  0  0  0  0  0  0
   -0.0868   -4.9389   28.8908 H   0  0  0  0  0  0  0  0  0  0  0  0
   -0.2290   -7.4283   27.6688 H   0  0  0  0  0  0  0  0  0  0  0  0
   -0.5423   -8.9846   29.6364 H   0  0  0  0  0  0  0  0  0  0  0  0
  1  2  2  0
  2  3  1  0
  3  4  1  0
  4  5  1  0
  5  6  1  0
  6  7  2  0
  7  8  1  0
  8  9  1  0
  2 10  1  0
 10 11  1  0
 11 12  2  0
 12 13  1  0
 13 14  2  0
 14 15  1  0
 15 16  2  0
 16 17  1  0
 17 18  2  0
 18 19  1  0
 19 20  2  0
 20 21  1  0
  9  5  2  0
 16 11  1  0
 21 17  1  0
  3 22  1  0
  3 23  1  0
  6 24  1  0
  7 25  1  0
 10 26  1  0
 12 27  1  0
 13 28  1  0
 14 29  1  0
 15 30  1  0
 19 31  1  0
 20 32  1  0
 21 33  1  0
M  END
>  <Energy>  (574) 
427.2090850812267

>  <compound_id>  (574) 
29416

>  <target_id>  (574) 
1

>  <reference_id>  (574) 
35

>  <inspiration_ids>  (574) 
[186, 35]

>  <energy_score>  (574) 
345.3538441361884

>  <distance_score>  (574) 
5.399150127091696

>  <path>  (574) 
/opt/xchem-fragalysis-2/maxwin/BulkDock/SCRATCH/511013/C29416-P35/C29416-P35.minimised.mol

>  <scratch_subdir>  (574) 
/opt/xchem-fragalysis-2/maxwin/BulkDock/SCRATCH/511013/C29416-P35

>  <fragmenstein_runtime>  (574) 
8.931408643722534

>  <fragmenstein_outcome>  (574) 
too moved

>  <fragmenstein_mode>  (574) 
expansion

>  <fragmenstein_error>  (574) 


$$$$
C29418-P186
     RDKit          3D

 40 42  0  0  0  0  0  0  0  0999 V2000
   -0.9191  -12.2661   34.9661 C   0  0  0  0  0  0  0  0  0  0  0  0
   -0.7821  -11.5305   35.9502 N   0  0  0  0  0  0  0  0  0  0  0  0
   -0.2770   -9.5717   35.4280 C   0  0  0  0  0  0  0  0  0  0  0  0
    0.8259   -9.0165   35.2641 O   0  0  0  0  0  0  0  0  0  0  0  0
   -1.7160   -8.8813   35.4049 N   0  0  0  0  0  0  0  0  0  0  0  0
   -2.1049   -7.5540   35.1125 C   0  0  0  0  0  0  0  0  0  0  0  0
   -1.3888   -7.0267   33.8903 C   0  0  0  0  0  0  0  0  0  0  0  0
   -1.3027   -7.4893   32.5878 C   0  0  0  0  0  0  0  0  0  0  0  0
   -0.5571   -6.5849   31.7756 C   0  0  0  0  0  0  0  0  0  0  0  0
   -0.0841   -5.4926   32.3642 N   0  0  0  0  0  0  0  0  0  0  0  0
   -0.4658   -5.5735   33.9801 S   0  0  0  0  0  0  0  0  0  0  0  0
    0.2678  -13.1864   36.5176 C   0  0  0  0  0  0  0  0  0  0  0  0
    0.1149  -14.7602   35.6101 C   0  0  0  0  0  0  0  0  0  0  0  0
    0.7756  -15.0138   34.3922 C   0  0  0  0  0  0  0  0  0  0  0  0
    0.6243  -16.2384   33.7074 C   0  0  0  0  0  0  0  0  0  0  0  0
   -0.1103  -17.2881   34.2481 C   0  0  0  0  0  0  0  0  0  0  0  0
   -0.6972  -17.1147   35.4853 C   0  0  0  0  0  0  0  0  0  0  0  0
   -0.5870  -15.8782   36.1390 C   0  0  0  0  0  0  0  0  0  0  0  0
    0.3215  -13.9193   38.0673 C   0  0  0  0  0  0  0  0  0  0  0  0
    1.4920  -13.9572   38.7077 N   0  0  0  0  0  0  0  0  0  0  0  0
    1.2424  -14.4263   39.9590 C   0  0  0  0  0  0  0  0  0  0  0  0
   -0.0831  -14.7336   40.0929 C   0  0  0  0  0  0  0  0  0  0  0  0
   -0.6389  -14.4486   38.8794 N   0  0  0  0  0  0  0  0  0  0  0  0
   -1.8503  -11.8703   35.3087 H   0  0  0  0  0  0  0  0  0  0  0  0
   -0.6548  -13.1481   34.3097 H   0  0  0  0  0  0  0  0  0  0  0  0
   -0.1648  -11.4981   34.6758 H   0  0  0  0  0  0  0  0  0  0  0  0
   -2.4203   -9.6021   35.4847 H   0  0  0  0  0  0  0  0  0  0  0  0
   -3.1745   -7.6085   35.0093 H   0  0  0  0  0  0  0  0  0  0  0  0
   -1.8122   -6.9413   35.9665 H   0  0  0  0  0  0  0  0  0  0  0  0
   -1.7587   -8.4091   32.2486 H   0  0  0  0  0  0  0  0  0  0  0  0
   -0.3472   -6.7062   30.7211 H   0  0  0  0  0  0  0  0  0  0  0  0
    1.3187  -13.3698   36.6148 H   0  0  0  0  0  0  0  0  0  0  0  0
    1.4111  -14.2785   33.9289 H   0  0  0  0  0  0  0  0  0  0  0  0
    1.1307  -16.3790   32.7550 H   0  0  0  0  0  0  0  0  0  0  0  0
   -0.1887  -18.2349   33.7231 H   0  0  0  0  0  0  0  0  0  0  0  0
   -1.2381  -17.9284   35.9594 H   0  0  0  0  0  0  0  0  0  0  0  0
   -1.0561  -15.8513   37.1008 H   0  0  0  0  0  0  0  0  0  0  0  0
    2.0297  -14.5270   40.6945 H   0  0  0  0  0  0  0  0  0  0  0  0
   -0.6591  -15.1392   40.9116 H   0  0  0  0  0  0  0  0  0  0  0  0
   -1.5884  -14.6501   38.6494 H   0  0  0  0  0  0  0  0  0  0  0  0
  1  2  1  0
  2  3  1  0
  3  4  2  0
  3  5  1  0
  5  6  1  0
  6  7  1  0
  7  8  2  0
  8  9  1  0
  9 10  2  0
 10 11  1  0
  2 12  1  0
 12 13  1  0
 13 14  2  0
 14 15  1  0
 15 16  2  0
 16 17  1  0
 17 18  2  0
 12 19  1  0
 19 20  2  0
 20 21  1  0
 21 22  2  0
 22 23  1  0
 11  7  1  0
 18 13  1  0
 23 19  1  0
  1 24  1  0
  1 25  1  0
  1 26  1  0
  5 27  1  0
  6 28  1  0
  6 29  1  0
  8 30  1  0
  9 31  1  0
 12 32  1  0
 14 33  1  0
 15 34  1  0
 16 35  1  0
 17 36  1  0
 18 37  1  0
 21 38  1  0
 22 39  1  0
 23 40  1  0
M  END
>  <Energy>  (575) 
502.03558797705114

>  <compound_id>  (575) 
29418

>  <target_id>  (575) 
1

>  <reference_id>  (575) 
186

>  <inspiration_ids>  (575) 
[186, 35]

>  <energy_score>  (575) 
512.4366267820556

>  <distance_score>  (575) 
9.721366850249579

>  <path>  (575) 
/opt/xchem-fragalysis-2/maxwin/BulkDock/SCRATCH/511013/C29418-P186/C29418-P186.minimised.mol

>  <scratch_subdir>  (575) 
/opt/xchem-fragalysis-2/maxwin/BulkDock/SCRATCH/511013/C29418-P186

>  <fragmenstein_runtime>  (575) 
30.64755916595459

>  <fragmenstein_outcome>  (575) 
too moved

>  <fragmenstein_mode>  (575) 
expansion

>  <fragmenstein_error>  (575) 


$$$$
C29418-P35
     RDKit          3D

 40 42  0  0  0  0  0  0  0  0999 V2000
   -2.9503   -8.8672   32.2886 C   0  0  0  0  0  0  0  0  0  0  0  0
   -2.0407   -8.0187   33.0407 N   0  0  0  0  0  0  0  0  0  0  0  0
   -0.9254   -7.5317   32.1547 C   0  0  0  0  0  0  0  0  0  0  0  0
    0.0869   -8.0323   31.9803 O   0  0  0  0  0  0  0  0  0  0  0  0
   -1.4029   -6.2654   31.6859 N   0  0  0  0  0  0  0  0  0  0  0  0
   -0.7252   -5.2088   30.9456 C   0  0  0  0  0  0  0  0  0  0  0  0
   -1.1506   -3.7913   31.0868 C   0  0  0  0  0  0  0  0  0  0  0  0
   -1.3727   -2.8523   30.0897 C   0  0  0  0  0  0  0  0  0  0  0  0
   -1.6204   -1.5686   30.6478 C   0  0  0  0  0  0  0  0  0  0  0  0
   -1.5997   -1.4827   31.9734 N   0  0  0  0  0  0  0  0  0  0  0  0
   -1.1800   -2.9719   32.5869 S   0  0  0  0  0  0  0  0  0  0  0  0
   -2.1078   -9.2823   34.0844 C   0  0  0  0  0  0  0  0  0  0  0  0
   -1.9554  -11.0694   34.1875 C   0  0  0  0  0  0  0  0  0  0  0  0
   -3.1442  -11.5821   34.9143 C   0  0  0  0  0  0  0  0  0  0  0  0
   -3.7486  -13.3716   34.6602 C   0  0  0  0  0  0  0  0  0  0  0  0
   -3.0140  -14.4172   33.6581 C   0  0  0  0  0  0  0  0  0  0  0  0
   -1.6315  -13.8425   33.1391 C   0  0  0  0  0  0  0  0  0  0  0  0
   -1.1254  -12.4122   33.3530 C   0  0  0  0  0  0  0  0  0  0  0  0
   -1.3756   -8.3317   35.1212 C   0  0  0  0  0  0  0  0  0  0  0  0
   -0.0989   -7.9973   35.0031 N   0  0  0  0  0  0  0  0  0  0  0  0
    0.0186   -6.6442   35.0618 C   0  0  0  0  0  0  0  0  0  0  0  0
   -1.2009   -6.1242   35.3554 C   0  0  0  0  0  0  0  0  0  0  0  0
   -1.9972   -7.2084   35.6245 N   0  0  0  0  0  0  0  0  0  0  0  0
   -3.2636   -8.2203   31.4816 H   0  0  0  0  0  0  0  0  0  0  0  0
   -2.4487   -9.7206   31.8241 H   0  0  0  0  0  0  0  0  0  0  0  0
   -3.9123   -9.1031   32.7586 H   0  0  0  0  0  0  0  0  0  0  0  0
   -2.3073   -6.0881   32.0895 H   0  0  0  0  0  0  0  0  0  0  0  0
   -0.6542   -5.5212   29.8974 H   0  0  0  0  0  0  0  0  0  0  0  0
    0.3204   -5.2614   31.2831 H   0  0  0  0  0  0  0  0  0  0  0  0
   -1.3373   -3.0623   29.0273 H   0  0  0  0  0  0  0  0  0  0  0  0
   -1.8227   -0.6629   30.0897 H   0  0  0  0  0  0  0  0  0  0  0  0
   -3.1255   -9.1824   34.5116 H   0  0  0  0  0  0  0  0  0  0  0  0
   -3.6272  -10.8700   35.5616 H   0  0  0  0  0  0  0  0  0  0  0  0
   -4.4002  -13.8525   35.3837 H   0  0  0  0  0  0  0  0  0  0  0  0
   -3.1809  -15.4418   33.4605 H   0  0  0  0  0  0  0  0  0  0  0  0
   -1.2052  -14.2861   32.2174 H   0  0  0  0  0  0  0  0  0  0  0  0
   -0.0190  -12.4787   33.3467 H   0  0  0  0  0  0  0  0  0  0  0  0
    0.9540   -6.1433   34.8533 H   0  0  0  0  0  0  0  0  0  0  0  0
   -1.5532   -5.1125   35.4675 H   0  0  0  0  0  0  0  0  0  0  0  0
   -2.9580   -7.1393   35.9177 H   0  0  0  0  0  0  0  0  0  0  0  0
  1  2  1  0
  2  3  1  0
  3  4  2  0
  3  5  1  0
  5  6  1  0
  6  7  1  0
  7  8  2  0
  8  9  1  0
  9 10  2  0
 10 11  1  0
  2 12  1  0
 12 13  1  0
 13 14  2  0
 14 15  1  0
 15 16  2  0
 16 17  1  0
 17 18  2  0
 12 19  1  0
 19 20  2  0
 20 21  1  0
 21 22  2  0
 22 23  1  0
 11  7  1  0
 18 13  1  0
 23 19  1  0
  1 24  1  0
  1 25  1  0
  1 26  1  0
  5 27  1  0
  6 28  1  0
  6 29  1  0
  8 30  1  0
  9 31  1  0
 12 32  1  0
 14 33  1  0
 15 34  1  0
 16 35  1  0
 17 36  1  0
 18 37  1  0
 21 38  1  0
 22 39  1  0
 23 40  1  0
M  END
>  <Energy>  (576) 
317.62317411302172

>  <compound_id>  (576) 
29418

>  <target_id>  (576) 
1

>  <reference_id>  (576) 
35

>  <inspiration_ids>  (576) 
[186, 35]

>  <energy_score>  (576) 
328.02421291802267

>  <distance_score>  (576) 
6.596834907219296

>  <path>  (576) 
/opt/xchem-fragalysis-2/maxwin/BulkDock/SCRATCH/511013/C29418-P35/C29418-P35.minimised.mol

>  <scratch_subdir>  (576) 
/opt/xchem-fragalysis-2/maxwin/BulkDock/SCRATCH/511013/C29418-P35

>  <fragmenstein_runtime>  (576) 
28.142792224884033

>  <fragmenstein_outcome>  (576) 
too moved

>  <fragmenstein_mode>  (576) 
expansion

>  <fragmenstein_error>  (576) 


$$$$
C29425-P186
     RDKit          3D

 38 40  0  0  0  0  0  0  0  0999 V2000
   -1.8545   -6.3173   33.0421 O   0  0  0  0  0  0  0  0  0  0  0  0
   -1.6298   -7.3121   32.4341 C   0  0  0  0  0  0  0  0  0  0  0  0
   -2.5755   -8.5873   32.7121 C   0  0  0  0  0  0  0  0  0  0  0  0
   -3.5363   -8.9902   34.2565 C   0  0  0  0  0  0  0  0  0  0  0  0
   -5.0578  -10.1812   34.4050 C   0  0  0  0  0  0  0  0  0  0  0  0
   -5.5921  -10.6108   33.0279 C   0  0  0  0  0  0  0  0  0  0  0  0
   -6.3373  -11.9400   32.0550 C   0  0  0  0  0  0  0  0  0  0  0  0
   -6.8319  -13.0533   32.3699 C   0  0  0  0  0  0  0  0  0  0  0  0
   -7.2761  -12.2306   33.2308 C   0  0  0  0  0  0  0  0  0  0  0  0
   -6.0565  -11.0598   34.0291 C   0  0  0  0  0  0  0  0  0  0  0  0
   -2.3547   -8.3085   35.2830 C   0  0  0  0  0  0  0  0  0  0  0  0
   -1.4249   -8.8127   36.0629 N   0  0  0  0  0  0  0  0  0  0  0  0
   -0.4530   -7.8656   36.3635 C   0  0  0  0  0  0  0  0  0  0  0  0
   -0.8167   -6.6717   35.8585 C   0  0  0  0  0  0  0  0  0  0  0  0
   -1.9869   -6.9507   35.2172 N   0  0  0  0  0  0  0  0  0  0  0  0
   -0.6901   -7.5701   31.3986 N   0  0  0  0  0  0  0  0  0  0  0  0
    0.3503   -6.7345   30.8275 C   0  0  0  0  0  0  0  0  0  0  0  0
    0.0757   -5.2547   30.8249 C   0  0  0  0  0  0  0  0  0  0  0  0
   -0.3420   -4.3884   29.8269 C   0  0  0  0  0  0  0  0  0  0  0  0
   -0.3892   -3.0417   30.2910 C   0  0  0  0  0  0  0  0  0  0  0  0
   -0.0071   -2.8328   31.5446 N   0  0  0  0  0  0  0  0  0  0  0  0
    0.4342   -4.2875   32.2093 S   0  0  0  0  0  0  0  0  0  0  0  0
   -1.9206   -9.4194   32.5013 H   0  0  0  0  0  0  0  0  0  0  0  0
   -3.2843   -8.5022   31.8800 H   0  0  0  0  0  0  0  0  0  0  0  0
   -4.2240   -8.2346   34.6229 H   0  0  0  0  0  0  0  0  0  0  0  0
   -5.4002  -10.1451   31.9977 H   0  0  0  0  0  0  0  0  0  0  0  0
   -6.3585  -11.6578   31.0391 H   0  0  0  0  0  0  0  0  0  0  0  0
   -6.9807  -13.8663   31.7017 H   0  0  0  0  0  0  0  0  0  0  0  0
   -8.2766  -12.2966   33.5240 H   0  0  0  0  0  0  0  0  0  0  0  0
   -5.3474  -12.1779   33.5211 H   0  0  0  0  0  0  0  0  0  0  0  0
    0.4187   -8.1100   36.9574 H   0  0  0  0  0  0  0  0  0  0  0  0
   -0.3723   -5.6871   35.8512 H   0  0  0  0  0  0  0  0  0  0  0  0
   -2.3347   -6.2774   34.5551 H   0  0  0  0  0  0  0  0  0  0  0  0
   -0.7164   -8.5568   31.1683 H   0  0  0  0  0  0  0  0  0  0  0  0
    1.2379   -6.9117   31.4377 H   0  0  0  0  0  0  0  0  0  0  0  0
    0.5501   -7.0994   29.8195 H   0  0  0  0  0  0  0  0  0  0  0  0
   -0.6152   -4.6729   28.8226 H   0  0  0  0  0  0  0  0  0  0  0  0
   -0.7003   -2.1818   29.7101 H   0  0  0  0  0  0  0  0  0  0  0  0
  1  2  2  0
  2  3  1  0
  3  4  1  0
  4  5  1  0
  5  6  2  0
  6  7  1  0
  7  8  2  0
  8  9  1  0
  9 10  2  0
  4 11  1  0
 11 12  2  0
 12 13  1  0
 13 14  2  0
 14 15  1  0
  2 16  1  0
 16 17  1  0
 17 18  1  0
 18 19  2  0
 19 20  1  0
 20 21  2  0
 21 22  1  0
 10  5  1  0
 15 11  1  0
 22 18  1  0
  3 23  1  0
  3 24  1  0
  4 25  1  0
  6 26  1  0
  7 27  1  0
  8 28  1  0
  9 29  1  0
 10 30  1  0
 13 31  1  0
 14 32  1  0
 15 33  1  0
 16 34  1  0
 17 35  1  0
 17 36  1  0
 19 37  1  0
 20 38  1  0
M  END
>  <Energy>  (577) 
654.7101585017989

>  <compound_id>  (577) 
29425

>  <target_id>  (577) 
1

>  <reference_id>  (577) 
186

>  <inspiration_ids>  (577) 
[186, 35]

>  <energy_score>  (577) 
621.5519368366984

>  <distance_score>  (577) 
6.379106022840962

>  <path>  (577) 
/opt/xchem-fragalysis-2/maxwin/BulkDock/SCRATCH/511013/C29425-P186/C29425-P186.minimised.mol

>  <scratch_subdir>  (577) 
/opt/xchem-fragalysis-2/maxwin/BulkDock/SCRATCH/511013/C29425-P186

>  <fragmenstein_runtime>  (577) 
28.648057460784912

>  <fragmenstein_outcome>  (577) 
too moved

>  <fragmenstein_mode>  (577) 
expansion

>  <fragmenstein_error>  (577) 


$$$$
C29425-P35
     RDKit          3D

 38 40  0  0  0  0  0  0  0  0999 V2000
   -1.0696  -10.3377   29.3502 O   0  0  0  0  0  0  0  0  0  0  0  0
   -1.8542  -10.4648   30.2466 C   0  0  0  0  0  0  0  0  0  0  0  0
   -3.1889  -11.8316   30.0324 C   0  0  0  0  0  0  0  0  0  0  0  0
   -4.9606  -12.1150   30.6912 C   0  0  0  0  0  0  0  0  0  0  0  0
   -6.1032  -13.7591   30.4724 C   0  0  0  0  0  0  0  0  0  0  0  0
   -6.0087  -15.2779   30.5799 C   0  0  0  0  0  0  0  0  0  0  0  0
   -6.1193  -16.3184   32.1103 C   0  0  0  0  0  0  0  0  0  0  0  0
   -7.2199  -16.0934   33.0804 C   0  0  0  0  0  0  0  0  0  0  0  0
   -7.9599  -14.9401   32.5407 C   0  0  0  0  0  0  0  0  0  0  0  0
   -7.1682  -13.8799   31.4202 C   0  0  0  0  0  0  0  0  0  0  0  0
   -5.1384  -10.5982   31.9398 C   0  0  0  0  0  0  0  0  0  0  0  0
   -5.5982  -10.3881   33.1543 N   0  0  0  0  0  0  0  0  0  0  0  0
   -4.8414   -9.5260   34.0488 C   0  0  0  0  0  0  0  0  0  0  0  0
   -3.8701   -8.9861   33.3394 C   0  0  0  0  0  0  0  0  0  0  0  0
   -4.3504   -9.2101   32.0696 N   0  0  0  0  0  0  0  0  0  0  0  0
   -2.0376   -9.6895   31.4266 N   0  0  0  0  0  0  0  0  0  0  0  0
   -1.3705   -8.3731   31.8979 C   0  0  0  0  0  0  0  0  0  0  0  0
   -0.8137   -7.2969   31.0086 C   0  0  0  0  0  0  0  0  0  0  0  0
   -0.6548   -7.0755   29.6557 C   0  0  0  0  0  0  0  0  0  0  0  0
   -0.1892   -5.7438   29.3983 C   0  0  0  0  0  0  0  0  0  0  0  0
   -0.0026   -4.9529   30.4478 N   0  0  0  0  0  0  0  0  0  0  0  0
   -0.2720   -5.8451   31.8150 S   0  0  0  0  0  0  0  0  0  0  0  0
   -2.7935  -12.8052   29.8799 H   0  0  0  0  0  0  0  0  0  0  0  0
   -3.3886  -11.7460   28.9665 H   0  0  0  0  0  0  0  0  0  0  0  0
   -5.3651  -11.7438   29.7671 H   0  0  0  0  0  0  0  0  0  0  0  0
   -5.6017  -15.9344   29.7973 H   0  0  0  0  0  0  0  0  0  0  0  0
   -5.7399  -17.3186   32.1500 H   0  0  0  0  0  0  0  0  0  0  0  0
   -7.5964  -16.8172   33.7814 H   0  0  0  0  0  0  0  0  0  0  0  0
   -9.0310  -14.7934   32.6467 H   0  0  0  0  0  0  0  0  0  0  0  0
   -7.0594  -12.8930   31.9767 H   0  0  0  0  0  0  0  0  0  0  0  0
   -4.9537   -9.5463   35.1268 H   0  0  0  0  0  0  0  0  0  0  0  0
   -3.0451   -8.3956   33.7011 H   0  0  0  0  0  0  0  0  0  0  0  0
   -4.2030   -8.5634   31.3067 H   0  0  0  0  0  0  0  0  0  0  0  0
   -2.7234  -10.1285   31.9945 H   0  0  0  0  0  0  0  0  0  0  0  0
   -2.2461   -7.7916   32.1755 H   0  0  0  0  0  0  0  0  0  0  0  0
   -0.8527   -8.5025   32.8529 H   0  0  0  0  0  0  0  0  0  0  0  0
   -0.8146   -7.8097   28.8820 H   0  0  0  0  0  0  0  0  0  0  0  0
   -0.0093   -5.3191   28.4192 H   0  0  0  0  0  0  0  0  0  0  0  0
  1  2  2  0
  2  3  1  0
  3  4  1  0
  4  5  1  0
  5  6  2  0
  6  7  1  0
  7  8  2  0
  8  9  1  0
  9 10  2  0
  4 11  1  0
 11 12  2  0
 12 13  1  0
 13 14  2  0
 14 15  1  0
  2 16  1  0
 16 17  1  0
 17 18  1  0
 18 19  2  0
 19 20  1  0
 20 21  2  0
 21 22  1  0
 10  5  1  0
 15 11  1  0
 22 18  1  0
  3 23  1  0
  3 24  1  0
  4 25  1  0
  6 26  1  0
  7 27  1  0
  8 28  1  0
  9 29  1  0
 10 30  1  0
 13 31  1  0
 14 32  1  0
 15 33  1  0
 16 34  1  0
 17 35  1  0
 17 36  1  0
 19 37  1  0
 20 38  1  0
M  END
>  <Energy>  (578) 
541.6959036143511

>  <compound_id>  (578) 
29425

>  <target_id>  (578) 
1

>  <reference_id>  (578) 
35

>  <inspiration_ids>  (578) 
[186, 35]

>  <energy_score>  (578) 
508.53768194924146

>  <distance_score>  (578) 
6.6421128915104095

>  <path>  (578) 
/opt/xchem-fragalysis-2/maxwin/BulkDock/SCRATCH/511013/C29425-P35/C29425-P35.minimised.mol

>  <scratch_subdir>  (578) 
/opt/xchem-fragalysis-2/maxwin/BulkDock/SCRATCH/511013/C29425-P35

>  <fragmenstein_runtime>  (578) 
32.08433818817139

>  <fragmenstein_outcome>  (578) 
too moved

>  <fragmenstein_mode>  (578) 
expansion

>  <fragmenstein_error>  (578) 


$$$$
C29429-P186
     RDKit          3D

 40 42  0  0  0  0  0  0  0  0999 V2000
   -1.8544   -6.1221   32.5514 O   0  0  0  0  0  0  0  0  0  0  0  0
   -1.7447   -6.5760   31.4674 C   0  0  0  0  0  0  0  0  0  0  0  0
   -0.7343   -6.3041   30.4114 N   0  0  0  0  0  0  0  0  0  0  0  0
    0.3419   -5.3466   30.3636 C   0  0  0  0  0  0  0  0  0  0  0  0
   -0.2082   -3.9631   30.2451 C   0  0  0  0  0  0  0  0  0  0  0  0
   -0.5516   -3.2140   29.1347 C   0  0  0  0  0  0  0  0  0  0  0  0
   -1.0262   -1.9285   29.5248 C   0  0  0  0  0  0  0  0  0  0  0  0
   -1.0616   -1.6701   30.8284 N   0  0  0  0  0  0  0  0  0  0  0  0
   -0.5058   -3.0066   31.6410 S   0  0  0  0  0  0  0  0  0  0  0  0
   -2.5811   -7.7406   30.7551 N   0  0  0  0  0  0  0  0  0  0  0  0
   -3.9765   -8.9030   31.4560 C   0  0  0  0  0  0  0  0  0  0  0  0
   -2.7423   -8.8236   32.9700 C   0  0  0  0  0  0  0  0  0  0  0  0
   -1.4318   -8.1482   33.4726 C   0  0  0  0  0  0  0  0  0  0  0  0
   -0.2285   -8.0727   32.9051 N   0  0  0  0  0  0  0  0  0  0  0  0
    0.5405   -7.3028   33.7545 C   0  0  0  0  0  0  0  0  0  0  0  0
   -0.1171   -7.0617   34.9292 C   0  0  0  0  0  0  0  0  0  0  0  0
   -1.3481   -7.6187   34.7492 N   0  0  0  0  0  0  0  0  0  0  0  0
   -5.2754  -10.6560   31.2949 C   0  0  0  0  0  0  0  0  0  0  0  0
   -5.8670  -11.4931   32.5931 C   0  0  0  0  0  0  0  0  0  0  0  0
   -6.6200  -12.7573   32.3328 C   0  0  0  0  0  0  0  0  0  0  0  0
   -6.4444  -13.7664   31.1617 C   0  0  0  0  0  0  0  0  0  0  0  0
   -5.8474  -13.3758   29.8813 C   0  0  0  0  0  0  0  0  0  0  0  0
   -5.3405  -11.6520   29.6036 C   0  0  0  0  0  0  0  0  0  0  0  0
   -0.8873   -6.9231   29.6419 H   0  0  0  0  0  0  0  0  0  0  0  0
    0.9850   -5.5895   29.5137 H   0  0  0  0  0  0  0  0  0  0  0  0
    0.9318   -5.4586   31.2788 H   0  0  0  0  0  0  0  0  0  0  0  0
   -0.4869   -3.5592   28.1113 H   0  0  0  0  0  0  0  0  0  0  0  0
   -1.3657   -1.1505   28.8519 H   0  0  0  0  0  0  0  0  0  0  0  0
   -2.2891   -7.8196   29.8080 H   0  0  0  0  0  0  0  0  0  0  0  0
   -3.2597   -9.5780   30.9802 H   0  0  0  0  0  0  0  0  0  0  0  0
   -2.1159   -9.6087   32.5631 H   0  0  0  0  0  0  0  0  0  0  0  0
   -3.2839   -8.9984   33.9135 H   0  0  0  0  0  0  0  0  0  0  0  0
    1.5311   -6.9723   33.4808 H   0  0  0  0  0  0  0  0  0  0  0  0
    0.1519   -6.5261   35.8273 H   0  0  0  0  0  0  0  0  0  0  0  0
   -2.0958   -7.6064   35.4158 H   0  0  0  0  0  0  0  0  0  0  0  0
   -5.8446  -10.9979   33.5523 H   0  0  0  0  0  0  0  0  0  0  0  0
   -7.3801  -12.9948   33.0677 H   0  0  0  0  0  0  0  0  0  0  0  0
   -6.9806  -14.6961   31.1886 H   0  0  0  0  0  0  0  0  0  0  0  0
   -6.3394  -13.8631   29.0203 H   0  0  0  0  0  0  0  0  0  0  0  0
   -4.3612  -11.8683   29.0620 H   0  0  0  0  0  0  0  0  0  0  0  0
  1  2  2  0
  2  3  1  0
  3  4  1  0
  4  5  1  0
  5  6  2  0
  6  7  1  0
  7  8  2  0
  8  9  1  0
  2 10  1  0
 10 11  1  0
 11 12  1  0
 12 13  1  0
 13 14  2  0
 14 15  1  0
 15 16  2  0
 16 17  1  0
 11 18  1  0
 18 19  2  0
 19 20  1  0
 20 21  2  0
 21 22  1  0
 22 23  2  0
  9  5  1  0
 17 13  1  0
 23 18  1  0
  3 24  1  0
  4 25  1  0
  4 26  1  0
  6 27  1  0
  7 28  1  0
 10 29  1  0
 11 30  1  0
 12 31  1  0
 12 32  1  0
 15 33  1  0
 16 34  1  0
 17 35  1  0
 19 36  1  0
 20 37  1  0
 21 38  1  0
 22 39  1  0
 23 40  1  0
M  END
>  <Energy>  (579) 
556.40192854621239

>  <compound_id>  (579) 
29429

>  <target_id>  (579) 
1

>  <reference_id>  (579) 
186

>  <inspiration_ids>  (579) 
[186, 35]

>  <energy_score>  (579) 
571.9337080315014

>  <distance_score>  (579) 
6.10961577684821

>  <path>  (579) 
/opt/xchem-fragalysis-2/maxwin/BulkDock/SCRATCH/511013/C29429-P186/C29429-P186.minimised.mol

>  <scratch_subdir>  (579) 
/opt/xchem-fragalysis-2/maxwin/BulkDock/SCRATCH/511013/C29429-P186

>  <fragmenstein_runtime>  (579) 
42.700342893600464

>  <fragmenstein_outcome>  (579) 
too moved

>  <fragmenstein_mode>  (579) 
expansion

>  <fragmenstein_error>  (579) 


$$$$
C29429-P35
     RDKit          3D

 40 42  0  0  0  0  0  0  0  0999 V2000
   -3.3039   -8.2136   32.2315 O   0  0  0  0  0  0  0  0  0  0  0  0
   -2.8860   -9.1171   31.6556 C   0  0  0  0  0  0  0  0  0  0  0  0
   -1.6540   -9.2372   30.8987 N   0  0  0  0  0  0  0  0  0  0  0  0
   -0.6005   -8.2034   30.5449 C   0  0  0  0  0  0  0  0  0  0  0  0
   -0.7335   -6.7192   30.7369 C   0  0  0  0  0  0  0  0  0  0  0  0
   -0.3310   -5.7219   29.8488 C   0  0  0  0  0  0  0  0  0  0  0  0
   -0.3358   -4.4394   30.4686 C   0  0  0  0  0  0  0  0  0  0  0  0
   -0.6950   -4.4091   31.7451 N   0  0  0  0  0  0  0  0  0  0  0  0
   -0.9086   -5.9722   32.2696 S   0  0  0  0  0  0  0  0  0  0  0  0
   -3.6606  -10.5924   31.4032 N   0  0  0  0  0  0  0  0  0  0  0  0
   -5.4370  -11.1577   31.8451 C   0  0  0  0  0  0  0  0  0  0  0  0
   -5.1612   -9.8233   33.1885 C   0  0  0  0  0  0  0  0  0  0  0  0
   -3.9276   -9.3407   34.3574 C   0  0  0  0  0  0  0  0  0  0  0  0
   -4.0461   -8.3181   35.1915 N   0  0  0  0  0  0  0  0  0  0  0  0
   -2.7892   -7.7517   35.2686 C   0  0  0  0  0  0  0  0  0  0  0  0
   -1.8786   -8.4844   34.5964 C   0  0  0  0  0  0  0  0  0  0  0  0
   -2.5538   -9.6266   34.3168 N   0  0  0  0  0  0  0  0  0  0  0  0
   -6.6228  -12.7959   31.6852 C   0  0  0  0  0  0  0  0  0  0  0  0
   -7.6824  -13.6253   32.7859 C   0  0  0  0  0  0  0  0  0  0  0  0
   -7.8886  -15.3626   33.1394 C   0  0  0  0  0  0  0  0  0  0  0  0
   -6.9143  -16.3578   33.0411 C   0  0  0  0  0  0  0  0  0  0  0  0
   -6.1409  -15.9173   31.9257 C   0  0  0  0  0  0  0  0  0  0  0  0
   -6.4024  -14.3004   30.9618 C   0  0  0  0  0  0  0  0  0  0  0  0
   -1.5488  -10.1966   30.5864 H   0  0  0  0  0  0  0  0  0  0  0  0
   -0.4441   -8.3975   29.4781 H   0  0  0  0  0  0  0  0  0  0  0  0
    0.3179   -8.3582   31.0821 H   0  0  0  0  0  0  0  0  0  0  0  0
   -0.0502   -5.9087   28.8223 H   0  0  0  0  0  0  0  0  0  0  0  0
   -0.0889   -3.4985   29.9933 H   0  0  0  0  0  0  0  0  0  0  0  0
   -3.0986  -11.1683   30.7934 H   0  0  0  0  0  0  0  0  0  0  0  0
   -6.0095  -10.7336   31.0380 H   0  0  0  0  0  0  0  0  0  0  0  0
   -5.0198   -8.9574   32.5791 H   0  0  0  0  0  0  0  0  0  0  0  0
   -6.0048   -9.7837   33.7994 H   0  0  0  0  0  0  0  0  0  0  0  0
   -2.5851   -6.7839   35.7012 H   0  0  0  0  0  0  0  0  0  0  0  0
   -0.8922   -8.2104   34.2843 H   0  0  0  0  0  0  0  0  0  0  0  0
   -2.1519  -10.3988   33.8264 H   0  0  0  0  0  0  0  0  0  0  0  0
   -8.4258  -12.9010   33.2170 H   0  0  0  0  0  0  0  0  0  0  0  0
   -8.8619  -15.7453   33.4870 H   0  0  0  0  0  0  0  0  0  0  0  0
   -7.0383  -17.3917   33.3207 H   0  0  0  0  0  0  0  0  0  0  0  0
   -5.7834  -16.7562   31.3092 H   0  0  0  0  0  0  0  0  0  0  0  0
   -7.4791  -14.2332   30.8151 H   0  0  0  0  0  0  0  0  0  0  0  0
  1  2  2  0
  2  3  1  0
  3  4  1  0
  4  5  1  0
  5  6  2  0
  6  7  1  0
  7  8  2  0
  8  9  1  0
  2 10  1  0
 10 11  1  0
 11 12  1  0
 12 13  1  0
 13 14  2  0
 14 15  1  0
 15 16  2  0
 16 17  1  0
 11 18  1  0
 18 19  2  0
 19 20  1  0
 20 21  2  0
 21 22  1  0
 22 23  2  0
  9  5  1  0
 17 13  1  0
 23 18  1  0
  3 24  1  0
  4 25  1  0
  4 26  1  0
  6 27  1  0
  7 28  1  0
 10 29  1  0
 11 30  1  0
 12 31  1  0
 12 32  1  0
 15 33  1  0
 16 34  1  0
 17 35  1  0
 19 36  1  0
 20 37  1  0
 21 38  1  0
 22 39  1  0
 23 40  1  0
M  END
>  <Energy>  (580) 
575.84234620371922

>  <compound_id>  (580) 
29429

>  <target_id>  (580) 
1

>  <reference_id>  (580) 
35

>  <inspiration_ids>  (580) 
[186, 35]

>  <energy_score>  (580) 
591.3741256889952

>  <distance_score>  (580) 
6.537523998719176

>  <path>  (580) 
/opt/xchem-fragalysis-2/maxwin/BulkDock/SCRATCH/511013/C29429-P35/C29429-P35.minimised.mol

>  <scratch_subdir>  (580) 
/opt/xchem-fragalysis-2/maxwin/BulkDock/SCRATCH/511013/C29429-P35

>  <fragmenstein_runtime>  (580) 
40.457263231277466

>  <fragmenstein_outcome>  (580) 
too moved

>  <fragmenstein_mode>  (580) 
expansion

>  <fragmenstein_error>  (580) 


$$$$
C12511-P80
     RDKit          3D

 40 42  0  0  0  0  0  0  0  0999 V2000
    5.6008  -14.4603   19.6366 C   0  0  0  0  0  0  0  0  0  0  0  0
    5.8895  -16.5691   20.0358 C   0  0  0  0  0  0  0  0  0  0  0  0
    6.9866  -17.6978   19.6796 C   0  0  0  0  0  0  0  0  0  0  0  0
    5.1890  -17.8305   21.6132 C   0  0  0  0  0  0  0  0  0  0  0  0
    4.0607  -16.9753   23.3418 C   0  0  0  0  0  0  0  0  0  0  0  0
    3.2397  -18.2519   24.7422 C   0  0  0  0  0  0  0  0  0  0  0  0
    3.2267  -17.8760   25.8966 O   0  0  0  0  0  0  0  0  0  0  0  0
    2.7259  -19.5474   24.1255 N   0  0  0  0  0  0  0  0  0  0  0  0
    1.9685  -20.6871   24.7229 C   0  0  0  0  0  0  0  0  0  0  0  0
    1.0194  -21.2563   23.8075 C   0  0  0  0  0  0  0  0  0  0  0  0
    0.2648  -22.4427   23.9862 C   0  0  0  0  0  0  0  0  0  0  0  0
    0.4516  -23.1833   25.1510 C   0  0  0  0  0  0  0  0  0  0  0  0
   -0.1579  -24.4044   25.4382 N   0  0  0  0  0  0  0  0  0  0  0  0
    0.2662  -24.8288   26.6018 C   0  0  0  0  0  0  0  0  0  0  0  0
    1.3785  -23.8035   27.4139 S   0  0  0  0  0  0  0  0  0  0  0  0
    1.3392  -22.6549   26.1035 C   0  0  0  0  0  0  0  0  0  0  0  0
    2.0715  -21.3895   25.9262 C   0  0  0  0  0  0  0  0  0  0  0  0
    4.6605  -15.5853   24.4360 N   0  0  0  0  0  0  0  0  0  0  0  0
    4.0587  -14.3530   24.7209 C   0  0  0  0  0  0  0  0  0  0  0  0
    4.5434  -13.8308   25.9103 C   0  0  0  0  0  0  0  0  0  0  0  0
    5.4398  -14.6815   26.4334 N   0  0  0  0  0  0  0  0  0  0  0  0
    5.2593  -15.7858   25.7356 C   0  0  0  0  0  0  0  0  0  0  0  0
    4.8248  -14.4446   18.7672 H   0  0  0  0  0  0  0  0  0  0  0  0
    6.1426  -13.7120   19.1702 H   0  0  0  0  0  0  0  0  0  0  0  0
    5.3523  -13.7019   20.4627 H   0  0  0  0  0  0  0  0  0  0  0  0
    5.2389  -16.7516   19.2354 H   0  0  0  0  0  0  0  0  0  0  0  0
    8.0263  -17.6282   19.9928 H   0  0  0  0  0  0  0  0  0  0  0  0
    6.9741  -17.9884   18.6465 H   0  0  0  0  0  0  0  0  0  0  0  0
    6.7517  -18.6418   20.1711 H   0  0  0  0  0  0  0  0  0  0  0  0
    4.7400  -18.6998   21.1945 H   0  0  0  0  0  0  0  0  0  0  0  0
    6.1096  -18.1536   22.0636 H   0  0  0  0  0  0  0  0  0  0  0  0
    5.1141  -16.7735   23.9297 H   0  0  0  0  0  0  0  0  0  0  0  0
    2.8205  -19.4957   23.1208 H   0  0  0  0  0  0  0  0  0  0  0  0
    0.8493  -20.7433   22.8601 H   0  0  0  0  0  0  0  0  0  0  0  0
   -0.4131  -22.7891   23.2128 H   0  0  0  0  0  0  0  0  0  0  0  0
   -0.0639  -25.7636   27.0351 H   0  0  0  0  0  0  0  0  0  0  0  0
    2.7664  -21.0647   26.6951 H   0  0  0  0  0  0  0  0  0  0  0  0
    3.3977  -13.8976   23.9852 H   0  0  0  0  0  0  0  0  0  0  0  0
    4.3213  -12.8710   26.3561 H   0  0  0  0  0  0  0  0  0  0  0  0
    5.4963  -16.7686   26.0935 H   0  0  0  0  0  0  0  0  0  0  0  0
  1  2  1  0
  2  3  1  0
  2  4  1  0
  4  5  1  0
  5  6  1  0
  6  7  2  0
  6  8  1  0
  8  9  1  0
  9 10  2  0
 10 11  1  0
 11 12  2  0
 12 13  1  0
 13 14  2  0
 14 15  1  0
 15 16  1  0
 16 17  2  0
  5 18  1  0
 18 19  1  0
 19 20  2  0
 20 21  1  0
 21 22  2  0
 17  9  1  0
 22 18  1  0
 16 12  1  0
  1 23  1  0
  1 24  1  0
  1 25  1  0
  2 26  1  0
  3 27  1  0
  3 28  1  0
  3 29  1  0
  4 30  1  0
  4 31  1  0
  5 32  1  0
  8 33  1  0
 10 34  1  0
 11 35  1  0
 14 36  1  0
 17 37  1  0
 19 38  1  0
 20 39  1  0
 22 40  1  0
M  END
>  <Energy>  (581) 
648.69963049863179

>  <compound_id>  (581) 
12511

>  <target_id>  (581) 
1

>  <reference_id>  (581) 
80

>  <inspiration_ids>  (581) 
[80, 68]

>  <energy_score>  (581) 
531.6020168199932

>  <distance_score>  (581) 
17.76365526033792

>  <path>  (581) 
/opt/xchem-fragalysis-2/maxwin/BulkDock/SCRATCH/511013/C12511-P80/C12511-P80.minimised.mol

>  <scratch_subdir>  (581) 
/opt/xchem-fragalysis-2/maxwin/BulkDock/SCRATCH/511013/C12511-P80

>  <fragmenstein_runtime>  (581) 
9.122939109802246

>  <fragmenstein_outcome>  (581) 
too moved

>  <fragmenstein_mode>  (581) 
expansion

>  <fragmenstein_error>  (581) 


$$$$
C12511-P68
     RDKit          3D

 40 42  0  0  0  0  0  0  0  0999 V2000
    4.9946  -25.0088   16.9079 C   0  0  0  0  0  0  0  0  0  0  0  0
    3.9042  -24.2094   16.1869 C   0  0  0  0  0  0  0  0  0  0  0  0
    4.4486  -23.6940   14.8545 C   0  0  0  0  0  0  0  0  0  0  0  0
    3.4075  -23.0703   17.1067 C   0  0  0  0  0  0  0  0  0  0  0  0
    2.1617  -22.2981   16.5982 C   0  0  0  0  0  0  0  0  0  0  0  0
    0.8491  -22.6917   17.4970 C   0  0  0  0  0  0  0  0  0  0  0  0
    0.2746  -21.8359   18.1209 O   0  0  0  0  0  0  0  0  0  0  0  0
    0.5906  -24.1719   17.4009 N   0  0  0  0  0  0  0  0  0  0  0  0
   -0.3557  -25.0148   18.0969 C   0  0  0  0  0  0  0  0  0  0  0  0
   -1.3048  -24.5846   19.0243 C   0  0  0  0  0  0  0  0  0  0  0  0
   -2.1720  -25.4988   19.7038 C   0  0  0  0  0  0  0  0  0  0  0  0
   -2.1113  -26.8924   19.4643 C   0  0  0  0  0  0  0  0  0  0  0  0
   -2.8684  -27.8955   20.0715 N   0  0  0  0  0  0  0  0  0  0  0  0
   -2.5115  -29.0649   19.5871 C   0  0  0  0  0  0  0  0  0  0  0  0
   -1.2964  -29.0502   18.3816 S   0  0  0  0  0  0  0  0  0  0  0  0
   -1.1811  -27.3271   18.5187 C   0  0  0  0  0  0  0  0  0  0  0  0
   -0.3163  -26.4122   17.8406 C   0  0  0  0  0  0  0  0  0  0  0  0
    2.5558  -20.8379   16.4361 N   0  0  0  0  0  0  0  0  0  0  0  0
    3.2803  -20.2910   15.3853 C   0  0  0  0  0  0  0  0  0  0  0  0
    3.4886  -18.9639   15.6974 C   0  0  0  0  0  0  0  0  0  0  0  0
    2.9329  -18.6756   16.9099 N   0  0  0  0  0  0  0  0  0  0  0  0
    2.3880  -19.8082   17.3174 C   0  0  0  0  0  0  0  0  0  0  0  0
    5.8578  -24.3782   17.1470 H   0  0  0  0  0  0  0  0  0  0  0  0
    4.6128  -25.4313   17.8434 H   0  0  0  0  0  0  0  0  0  0  0  0
    5.3438  -25.8403   16.2865 H   0  0  0  0  0  0  0  0  0  0  0  0
    3.0831  -24.8990   15.9680 H   0  0  0  0  0  0  0  0  0  0  0  0
    4.8695  -24.5151   14.2638 H   0  0  0  0  0  0  0  0  0  0  0  0
    5.2388  -22.9513   15.0071 H   0  0  0  0  0  0  0  0  0  0  0  0
    3.6582  -23.2387   14.2517 H   0  0  0  0  0  0  0  0  0  0  0  0
    4.2487  -22.3841   17.2574 H   0  0  0  0  0  0  0  0  0  0  0  0
    3.1912  -23.4884   18.0985 H   0  0  0  0  0  0  0  0  0  0  0  0
    1.8960  -22.5926   15.5745 H   0  0  0  0  0  0  0  0  0  0  0  0
    1.3178  -24.6010   16.8501 H   0  0  0  0  0  0  0  0  0  0  0  0
   -1.3865  -23.5246   19.2623 H   0  0  0  0  0  0  0  0  0  0  0  0
   -2.8848  -25.1182   20.4304 H   0  0  0  0  0  0  0  0  0  0  0  0
   -2.9515  -29.9938   19.9196 H   0  0  0  0  0  0  0  0  0  0  0  0
    0.3951  -26.8113   17.1219 H   0  0  0  0  0  0  0  0  0  0  0  0
    3.5507  -20.8705   14.5170 H   0  0  0  0  0  0  0  0  0  0  0  0
    3.9864  -18.2075   15.1063 H   0  0  0  0  0  0  0  0  0  0  0  0
    1.8573  -19.9534   18.2467 H   0  0  0  0  0  0  0  0  0  0  0  0
  1  2  1  0
  2  3  1  0
  2  4  1  0
  4  5  1  0
  5  6  1  0
  6  7  2  0
  6  8  1  0
  8  9  1  0
  9 10  2  0
 10 11  1  0
 11 12  2  0
 12 13  1  0
 13 14  2  0
 14 15  1  0
 15 16  1  0
 16 17  2  0
  5 18  1  0
 18 19  1  0
 19 20  2  0
 20 21  1  0
 21 22  2  0
 17  9  1  0
 22 18  1  0
 16 12  1  0
  1 23  1  0
  1 24  1  0
  1 25  1  0
  2 26  1  0
  3 27  1  0
  3 28  1  0
  3 29  1  0
  4 30  1  0
  4 31  1  0
  5 32  1  0
  8 33  1  0
 10 34  1  0
 11 35  1  0
 14 36  1  0
 17 37  1  0
 19 38  1  0
 20 39  1  0
 22 40  1  0
M  END
>  <Energy>  (582) 
45.574675298226552

>  <compound_id>  (582) 
12511

>  <target_id>  (582) 
1

>  <reference_id>  (582) 
68

>  <inspiration_ids>  (582) 
[80, 68]

>  <energy_score>  (582) 
-71.52293838041277

>  <distance_score>  (582) 
16.06918912798567

>  <path>  (582) 
/opt/xchem-fragalysis-2/maxwin/BulkDock/SCRATCH/511013/C12511-P68/C12511-P68.minimised.mol

>  <scratch_subdir>  (582) 
/opt/xchem-fragalysis-2/maxwin/BulkDock/SCRATCH/511013/C12511-P68

>  <fragmenstein_runtime>  (582) 
26.711095333099365

>  <fragmenstein_outcome>  (582) 
too moved

>  <fragmenstein_mode>  (582) 
expansion

>  <fragmenstein_error>  (582) 


$$$$
C12512-P80
     RDKit          3D

 40 42  0  0  0  0  0  0  0  0999 V2000
    3.8379  -11.8629   22.3651 C   0  0  0  0  0  0  0  0  0  0  0  0
    4.1232  -13.0445   20.8970 C   0  0  0  0  0  0  0  0  0  0  0  0
    5.0146  -12.7862   19.4947 C   0  0  0  0  0  0  0  0  0  0  0  0
    6.2102  -11.7949   19.4374 C   0  0  0  0  0  0  0  0  0  0  0  0
    6.8879  -10.9551   20.3041 C   0  0  0  0  0  0  0  0  0  0  0  0
    7.8239  -10.1788   19.6458 N   0  0  0  0  0  0  0  0  0  0  0  0
    7.7476  -10.5546   18.3930 C   0  0  0  0  0  0  0  0  0  0  0  0
    6.7953  -11.5130   18.2162 N   0  0  0  0  0  0  0  0  0  0  0  0
    2.8920  -14.3997   21.4780 C   0  0  0  0  0  0  0  0  0  0  0  0
    2.9135  -14.5234   22.7463 O   0  0  0  0  0  0  0  0  0  0  0  0
    1.7558  -15.2301   20.3202 N   0  0  0  0  0  0  0  0  0  0  0  0
    0.1021  -16.4472   20.6286 C   0  0  0  0  0  0  0  0  0  0  0  0
   -1.2970  -15.5602   19.6807 C   0  0  0  0  0  0  0  0  0  0  0  0
   -1.6157  -17.4175   20.1823 C   0  0  0  0  0  0  0  0  0  0  0  0
   -2.9915  -16.9610   19.9410 C   0  0  0  0  0  0  0  0  0  0  0  0
   -4.0731  -17.3197   18.8396 C   0  0  0  0  0  0  0  0  0  0  0  0
   -4.4842  -18.5969   18.6789 C   0  0  0  0  0  0  0  0  0  0  0  0
   -5.5920  -19.1580   18.0820 N   0  0  0  0  0  0  0  0  0  0  0  0
   -5.7479  -20.3612   18.5688 C   0  0  0  0  0  0  0  0  0  0  0  0
   -4.5926  -20.7753   19.7246 S   0  0  0  0  0  0  0  0  0  0  0  0
   -3.6047  -19.3439   19.3886 C   0  0  0  0  0  0  0  0  0  0  0  0
   -2.1207  -18.6617   19.7035 C   0  0  0  0  0  0  0  0  0  0  0  0
    4.1383  -11.9472   23.4198 H   0  0  0  0  0  0  0  0  0  0  0  0
    2.8509  -12.0374   22.7833 H   0  0  0  0  0  0  0  0  0  0  0  0
    4.2660  -10.8678   22.2159 H   0  0  0  0  0  0  0  0  0  0  0  0
    5.1023  -13.4480   21.0726 H   0  0  0  0  0  0  0  0  0  0  0  0
    4.3487  -12.6718   18.6408 H   0  0  0  0  0  0  0  0  0  0  0  0
    5.5100  -13.7256   19.1929 H   0  0  0  0  0  0  0  0  0  0  0  0
    6.7374  -10.8376   21.3680 H   0  0  0  0  0  0  0  0  0  0  0  0
    8.3401  -10.1938   17.5677 H   0  0  0  0  0  0  0  0  0  0  0  0
    6.5360  -11.9328   17.3353 H   0  0  0  0  0  0  0  0  0  0  0  0
    2.0383  -15.0031   19.3412 H   0  0  0  0  0  0  0  0  0  0  0  0
    0.4797  -17.1336   19.9017 H   0  0  0  0  0  0  0  0  0  0  0  0
   -1.9368  -14.9810   20.3690 H   0  0  0  0  0  0  0  0  0  0  0  0
   -1.0667  -14.8347   18.9408 H   0  0  0  0  0  0  0  0  0  0  0  0
   -1.8401  -15.9546   18.8157 H   0  0  0  0  0  0  0  0  0  0  0  0
   -3.2665  -16.0702   20.4667 H   0  0  0  0  0  0  0  0  0  0  0  0
   -4.7363  -16.6070   18.3705 H   0  0  0  0  0  0  0  0  0  0  0  0
   -6.5748  -21.0024   18.2920 H   0  0  0  0  0  0  0  0  0  0  0  0
   -1.6637  -18.6137   18.6878 H   0  0  0  0  0  0  0  0  0  0  0  0
  1  2  1  0
  2  3  1  0
  3  4  1  0
  4  5  2  0
  5  6  1  0
  6  7  2  0
  7  8  1  0
  2  9  1  0
  9 10  2  0
  9 11  1  0
 11 12  1  0
 12 13  1  0
 12 14  1  0
 14 15  2  0
 15 16  1  0
 16 17  2  0
 17 18  1  0
 18 19  2  0
 19 20  1  0
 20 21  1  0
 21 22  2  0
  8  4  1  0
 22 14  1  0
 21 17  1  0
  1 23  1  0
  1 24  1  0
  1 25  1  0
  2 26  1  0
  3 27  1  0
  3 28  1  0
  5 29  1  0
  7 30  1  0
  8 31  1  0
 11 32  1  0
 12 33  1  0
 13 34  1  0
 13 35  1  0
 13 36  1  0
 15 37  1  0
 16 38  1  0
 19 39  1  0
 22 40  1  0
M  END
>  <Energy>  (583) 
780.84271040562965

>  <compound_id>  (583) 
12512

>  <target_id>  (583) 
1

>  <reference_id>  (583) 
80

>  <inspiration_ids>  (583) 
[80, 68]

>  <energy_score>  (583) 
693.1764227402226

>  <distance_score>  (583) 
17.149393176114838

>  <path>  (583) 
/opt/xchem-fragalysis-2/maxwin/BulkDock/SCRATCH/511013/C12512-P80/C12512-P80.minimised.mol

>  <scratch_subdir>  (583) 
/opt/xchem-fragalysis-2/maxwin/BulkDock/SCRATCH/511013/C12512-P80

>  <fragmenstein_runtime>  (583) 
13.245326042175293

>  <fragmenstein_outcome>  (583) 
too moved

>  <fragmenstein_mode>  (583) 
expansion

>  <fragmenstein_error>  (583) 


$$$$
C12512-P68
     RDKit          3D

 40 42  0  0  0  0  0  0  0  0999 V2000
   -5.9502  -25.0911   21.1442 C   0  0  0  0  0  0  0  0  0  0  0  0
   -6.8164  -24.7540   22.4052 C   0  0  0  0  0  0  0  0  0  0  0  0
   -6.5867  -23.1786   22.6565 C   0  0  0  0  0  0  0  0  0  0  0  0
   -6.3534  -22.1189   21.4479 C   0  0  0  0  0  0  0  0  0  0  0  0
   -5.8701  -22.1416   20.1334 C   0  0  0  0  0  0  0  0  0  0  0  0
   -5.7851  -20.8948   19.5409 N   0  0  0  0  0  0  0  0  0  0  0  0
   -6.2418  -20.0729   20.4473 C   0  0  0  0  0  0  0  0  0  0  0  0
   -6.6431  -20.7566   21.5739 N   0  0  0  0  0  0  0  0  0  0  0  0
   -6.5876  -26.3261   23.2573 C   0  0  0  0  0  0  0  0  0  0  0  0
   -5.4913  -26.5586   23.7107 O   0  0  0  0  0  0  0  0  0  0  0  0
   -7.8535  -27.2210   23.1811 N   0  0  0  0  0  0  0  0  0  0  0  0
   -8.0896  -28.8590   23.5989 C   0  0  0  0  0  0  0  0  0  0  0  0
   -8.3496  -27.8939   25.1852 C   0  0  0  0  0  0  0  0  0  0  0  0
   -9.3002  -30.4743   23.1781 C   0  0  0  0  0  0  0  0  0  0  0  0
   -9.3662  -31.9311   23.6997 C   0  0  0  0  0  0  0  0  0  0  0  0
  -10.1477  -33.1060   23.3781 C   0  0  0  0  0  0  0  0  0  0  0  0
  -10.9789  -33.0866   22.2802 C   0  0  0  0  0  0  0  0  0  0  0  0
  -11.6917  -34.1608   21.7882 N   0  0  0  0  0  0  0  0  0  0  0  0
  -12.3348  -33.7799   20.7113 C   0  0  0  0  0  0  0  0  0  0  0  0
  -12.1829  -32.1292   20.2818 S   0  0  0  0  0  0  0  0  0  0  0  0
  -11.0758  -31.8943   21.5842 C   0  0  0  0  0  0  0  0  0  0  0  0
  -10.3395  -30.7044   21.9545 C   0  0  0  0  0  0  0  0  0  0  0  0
   -5.7307  -26.1594   21.0265 H   0  0  0  0  0  0  0  0  0  0  0  0
   -6.4721  -24.7880   20.2326 H   0  0  0  0  0  0  0  0  0  0  0  0
   -4.9696  -24.6205   21.1968 H   0  0  0  0  0  0  0  0  0  0  0  0
   -7.8861  -24.7406   22.1605 H   0  0  0  0  0  0  0  0  0  0  0  0
   -5.9300  -23.0771   23.5069 H   0  0  0  0  0  0  0  0  0  0  0  0
   -7.5436  -22.8337   23.0843 H   0  0  0  0  0  0  0  0  0  0  0  0
   -5.5356  -22.9974   19.5641 H   0  0  0  0  0  0  0  0  0  0  0  0
   -6.3015  -18.9948   20.3789 H   0  0  0  0  0  0  0  0  0  0  0  0
   -6.9216  -20.2961   22.4263 H   0  0  0  0  0  0  0  0  0  0  0  0
   -8.6463  -26.6644   22.8053 H   0  0  0  0  0  0  0  0  0  0  0  0
   -7.0697  -29.1851   23.5908 H   0  0  0  0  0  0  0  0  0  0  0  0
   -9.2861  -27.3264   25.0859 H   0  0  0  0  0  0  0  0  0  0  0  0
   -8.3876  -28.4302   26.1422 H   0  0  0  0  0  0  0  0  0  0  0  0
   -7.5158  -27.2006   25.3536 H   0  0  0  0  0  0  0  0  0  0  0  0
   -8.6216  -32.2832   24.4017 H   0  0  0  0  0  0  0  0  0  0  0  0
   -9.9904  -34.0269   23.9338 H   0  0  0  0  0  0  0  0  0  0  0  0
  -12.9486  -34.4579   20.1330 H   0  0  0  0  0  0  0  0  0  0  0  0
  -10.5990  -29.8776   21.3376 H   0  0  0  0  0  0  0  0  0  0  0  0
  1  2  1  0
  2  3  1  0
  3  4  1  0
  4  5  2  0
  5  6  1  0
  6  7  2  0
  7  8  1  0
  2  9  1  0
  9 10  2  0
  9 11  1  0
 11 12  1  0
 12 13  1  0
 12 14  1  0
 14 15  2  0
 15 16  1  0
 16 17  2  0
 17 18  1  0
 18 19  2  0
 19 20  1  0
 20 21  1  0
 21 22  2  0
  8  4  1  0
 22 14  1  0
 21 17  1  0
  1 23  1  0
  1 24  1  0
  1 25  1  0
  2 26  1  0
  3 27  1  0
  3 28  1  0
  5 29  1  0
  7 30  1  0
  8 31  1  0
 11 32  1  0
 12 33  1  0
 13 34  1  0
 13 35  1  0
 13 36  1  0
 15 37  1  0
 16 38  1  0
 19 39  1  0
 22 40  1  0
M  END
>  <Energy>  (584) 
337.13149282613108

>  <compound_id>  (584) 
12512

>  <target_id>  (584) 
1

>  <reference_id>  (584) 
68

>  <inspiration_ids>  (584) 
[80, 68]

>  <energy_score>  (584) 
249.46520516071917

>  <distance_score>  (584) 
16.45930040938199

>  <path>  (584) 
/opt/xchem-fragalysis-2/maxwin/BulkDock/SCRATCH/511013/C12512-P68/C12512-P68.minimised.mol

>  <scratch_subdir>  (584) 
/opt/xchem-fragalysis-2/maxwin/BulkDock/SCRATCH/511013/C12512-P68

>  <fragmenstein_runtime>  (584) 
28.65549874305725

>  <fragmenstein_outcome>  (584) 
too moved

>  <fragmenstein_mode>  (584) 
expansion

>  <fragmenstein_error>  (584) 


$$$$
C12513-P80
     RDKit          3D

 32 34  0  0  0  0  0  0  0  0999 V2000
   -5.1976  -24.6191   21.4685 C   0  0  0  0  0  0  0  0  0  0  0  0
   -3.8224  -25.2225   21.1234 C   0  0  0  0  0  0  0  0  0  0  0  0
   -3.1212  -24.3654   20.0505 N   0  0  0  0  0  0  0  0  0  0  0  0
   -2.2770  -23.2081   20.6552 C   0  0  0  0  0  0  0  0  0  0  0  0
   -1.5678  -22.0221   19.7863 C   0  0  0  0  0  0  0  0  0  0  0  0
   -0.4047  -22.0159   19.1233 N   0  0  0  0  0  0  0  0  0  0  0  0
   -0.1078  -20.6927   18.7922 C   0  0  0  0  0  0  0  0  0  0  0  0
    1.3930  -20.1177   17.7872 Br  0  0  0  0  0  0  0  0  0  0  0  0
   -1.0789  -19.8578   19.2779 C   0  0  0  0  0  0  0  0  0  0  0  0
   -1.9888  -20.6927   19.8858 N   0  0  0  0  0  0  0  0  0  0  0  0
   -4.0954  -26.7413   20.8672 C   0  0  0  0  0  0  0  0  0  0  0  0
   -4.4349  -27.2707   19.6216 C   0  0  0  0  0  0  0  0  0  0  0  0
   -4.8056  -28.6310   19.4665 C   0  0  0  0  0  0  0  0  0  0  0  0
   -4.8764  -29.5059   20.5721 C   0  0  0  0  0  0  0  0  0  0  0  0
   -5.2249  -30.8514   20.5503 N   0  0  0  0  0  0  0  0  0  0  0  0
   -5.2215  -31.3224   21.7775 C   0  0  0  0  0  0  0  0  0  0  0  0
   -4.7513  -30.2244   23.0056 S   0  0  0  0  0  0  0  0  0  0  0  0
   -4.5604  -28.9809   21.8235 C   0  0  0  0  0  0  0  0  0  0  0  0
   -4.1666  -27.6252   21.9826 C   0  0  0  0  0  0  0  0  0  0  0  0
   -5.8920  -24.6916   20.6233 H   0  0  0  0  0  0  0  0  0  0  0  0
   -5.6515  -25.1284   22.3251 H   0  0  0  0  0  0  0  0  0  0  0  0
   -5.1063  -23.5613   21.7364 H   0  0  0  0  0  0  0  0  0  0  0  0
   -3.1776  -25.1827   22.0112 H   0  0  0  0  0  0  0  0  0  0  0  0
   -2.4372  -24.9659   19.5839 H   0  0  0  0  0  0  0  0  0  0  0  0
   -1.4589  -23.6710   21.2218 H   0  0  0  0  0  0  0  0  0  0  0  0
   -2.9212  -22.6861   21.3735 H   0  0  0  0  0  0  0  0  0  0  0  0
   -1.2135  -18.7880   19.2422 H   0  0  0  0  0  0  0  0  0  0  0  0
   -2.8229  -20.4004   20.3732 H   0  0  0  0  0  0  0  0  0  0  0  0
   -4.4332  -26.6276   18.7427 H   0  0  0  0  0  0  0  0  0  0  0  0
   -5.0586  -29.0143   18.4822 H   0  0  0  0  0  0  0  0  0  0  0  0
   -5.4897  -32.3447   22.0075 H   0  0  0  0  0  0  0  0  0  0  0  0
   -3.9478  -27.2573   22.9828 H   0  0  0  0  0  0  0  0  0  0  0  0
  1  2  1  0
  2  3  1  0
  3  4  1  0
  4  5  1  0
  5  6  2  0
  6  7  1  0
  7  8  1  0
  7  9  2  0
  9 10  1  0
  2 11  1  0
 11 12  2  0
 12 13  1  0
 13 14  2  0
 14 15  1  0
 15 16  2  0
 16 17  1  0
 17 18  1  0
 18 19  2  0
 10  5  1  0
 19 11  1  0
 18 14  1  0
  1 20  1  0
  1 21  1  0
  1 22  1  0
  2 23  1  0
  3 24  1  0
  4 25  1  0
  4 26  1  0
  9 27  1  0
 10 28  1  0
 12 29  1  0
 13 30  1  0
 16 31  1  0
 19 32  1  0
M  END
>  <Energy>  (585) 
44.648456977632961

>  <compound_id>  (585) 
12513

>  <target_id>  (585) 
1

>  <reference_id>  (585) 
80

>  <inspiration_ids>  (585) 
[80, 68]

>  <energy_score>  (585) 
-37.53684192719231

>  <distance_score>  (585) 
15.55215227464284

>  <path>  (585) 
/opt/xchem-fragalysis-2/maxwin/BulkDock/SCRATCH/511013/C12513-P80/C12513-P80.minimised.mol

>  <scratch_subdir>  (585) 
/opt/xchem-fragalysis-2/maxwin/BulkDock/SCRATCH/511013/C12513-P80

>  <fragmenstein_runtime>  (585) 
8.386227369308472

>  <fragmenstein_outcome>  (585) 
too moved

>  <fragmenstein_mode>  (585) 
expansion

>  <fragmenstein_error>  (585) 


$$$$
C12513-P68
     RDKit          3D

 32 34  0  0  0  0  0  0  0  0999 V2000
   -2.6396  -23.8574   21.1303 C   0  0  0  0  0  0  0  0  0  0  0  0
   -2.0666  -24.6430   19.9297 C   0  0  0  0  0  0  0  0  0  0  0  0
   -1.6800  -23.6966   18.7786 N   0  0  0  0  0  0  0  0  0  0  0  0
   -0.5645  -22.6875   19.1765 C   0  0  0  0  0  0  0  0  0  0  0  0
    0.1050  -21.6971   18.1224 C   0  0  0  0  0  0  0  0  0  0  0  0
    1.3241  -21.1344   18.1690 N   0  0  0  0  0  0  0  0  0  0  0  0
    1.4811  -20.3854   17.0116 C   0  0  0  0  0  0  0  0  0  0  0  0
    3.0379  -19.4365   16.4463 Br  0  0  0  0  0  0  0  0  0  0  0  0
    0.3201  -20.4358   16.2840 C   0  0  0  0  0  0  0  0  0  0  0  0
   -0.5525  -21.1991   17.0180 N   0  0  0  0  0  0  0  0  0  0  0  0
   -2.9856  -25.8675   19.5918 C   0  0  0  0  0  0  0  0  0  0  0  0
   -4.1344  -26.1463   20.3566 C   0  0  0  0  0  0  0  0  0  0  0  0
   -4.8629  -27.3296   20.2175 C   0  0  0  0  0  0  0  0  0  0  0  0
   -4.5089  -28.2808   19.2505 C   0  0  0  0  0  0  0  0  0  0  0  0
   -5.1724  -29.4682   18.9902 N   0  0  0  0  0  0  0  0  0  0  0  0
   -4.5863  -30.0827   17.9932 C   0  0  0  0  0  0  0  0  0  0  0  0
   -3.1614  -29.3526   17.3898 S   0  0  0  0  0  0  0  0  0  0  0  0
   -3.3802  -28.0249   18.4746 C   0  0  0  0  0  0  0  0  0  0  0  0
   -2.6069  -26.8412   18.6396 C   0  0  0  0  0  0  0  0  0  0  0  0
   -1.9462  -23.0843   21.4741 H   0  0  0  0  0  0  0  0  0  0  0  0
   -2.7914  -24.5029   22.0030 H   0  0  0  0  0  0  0  0  0  0  0  0
   -3.5833  -23.3620   20.8761 H   0  0  0  0  0  0  0  0  0  0  0  0
   -1.1269  -25.0989   20.2727 H   0  0  0  0  0  0  0  0  0  0  0  0
   -1.2651  -24.2847   18.0552 H   0  0  0  0  0  0  0  0  0  0  0  0
   -0.9755  -22.0209   19.9413 H   0  0  0  0  0  0  0  0  0  0  0  0
    0.2601  -23.2614   19.6162 H   0  0  0  0  0  0  0  0  0  0  0  0
    0.0395  -19.9997   15.3355 H   0  0  0  0  0  0  0  0  0  0  0  0
   -1.4994  -21.4436   16.7620 H   0  0  0  0  0  0  0  0  0  0  0  0
   -4.4971  -25.4603   21.1175 H   0  0  0  0  0  0  0  0  0  0  0  0
   -5.7017  -27.5002   20.8758 H   0  0  0  0  0  0  0  0  0  0  0  0
   -4.9684  -31.0061   17.5808 H   0  0  0  0  0  0  0  0  0  0  0  0
   -1.7108  -26.7039   18.0403 H   0  0  0  0  0  0  0  0  0  0  0  0
  1  2  1  0
  2  3  1  0
  3  4  1  0
  4  5  1  0
  5  6  2  0
  6  7  1  0
  7  8  1  0
  7  9  2  0
  9 10  1  0
  2 11  1  0
 11 12  2  0
 12 13  1  0
 13 14  2  0
 14 15  1  0
 15 16  2  0
 16 17  1  0
 17 18  1  0
 18 19  2  0
 10  5  1  0
 19 11  1  0
 18 14  1  0
  1 20  1  0
  1 21  1  0
  1 22  1  0
  2 23  1  0
  3 24  1  0
  4 25  1  0
  4 26  1  0
  9 27  1  0
 10 28  1  0
 12 29  1  0
 13 30  1  0
 16 31  1  0
 19 32  1  0
M  END
>  <Energy>  (586) 
39.322106400077523

>  <compound_id>  (586) 
12513

>  <target_id>  (586) 
1

>  <reference_id>  (586) 
68

>  <inspiration_ids>  (586) 
[80, 68]

>  <energy_score>  (586) 
-42.86319250474611

>  <distance_score>  (586) 
15.75342132764681

>  <path>  (586) 
/opt/xchem-fragalysis-2/maxwin/BulkDock/SCRATCH/511013/C12513-P68/C12513-P68.minimised.mol

>  <scratch_subdir>  (586) 
/opt/xchem-fragalysis-2/maxwin/BulkDock/SCRATCH/511013/C12513-P68

>  <fragmenstein_runtime>  (586) 
11.22614336013794

>  <fragmenstein_outcome>  (586) 
too moved

>  <fragmenstein_mode>  (586) 
expansion

>  <fragmenstein_error>  (586) 


$$$$
C12514-P80
     RDKit          3D

 39 42  0  0  0  0  0  0  0  0999 V2000
    1.6984  -14.4352   17.1265 C   0  0  0  0  0  0  0  0  0  0  0  0
    2.8254  -15.2511   17.2543 C   0  0  0  0  0  0  0  0  0  0  0  0
    3.3287  -14.8906   18.4546 N   0  0  0  0  0  0  0  0  0  0  0  0
    4.0451  -13.3199   18.8786 C   0  0  0  0  0  0  0  0  0  0  0  0
    4.2659  -12.8641   20.4397 C   0  0  0  0  0  0  0  0  0  0  0  0
    5.3490  -13.0327   19.5461 C   0  0  0  0  0  0  0  0  0  0  0  0
    2.0268  -14.9766   18.9024 C   0  0  0  0  0  0  0  0  0  0  0  0
    0.6825  -16.2134   19.8341 C   0  0  0  0  0  0  0  0  0  0  0  0
   -1.0900  -16.4413   20.2148 N   0  0  0  0  0  0  0  0  0  0  0  0
   -2.0618  -17.7846   20.0526 C   0  0  0  0  0  0  0  0  0  0  0  0
   -2.5430  -18.8837   21.2799 C   0  0  0  0  0  0  0  0  0  0  0  0
   -3.2065  -20.3508   21.2678 C   0  0  0  0  0  0  0  0  0  0  0  0
   -3.7382  -20.8135   22.5024 C   0  0  0  0  0  0  0  0  0  0  0  0
   -4.2342  -22.1298   22.7240 C   0  0  0  0  0  0  0  0  0  0  0  0
   -4.2037  -23.0854   21.6937 C   0  0  0  0  0  0  0  0  0  0  0  0
   -4.6117  -24.4166   21.7891 N   0  0  0  0  0  0  0  0  0  0  0  0
   -4.4275  -25.0113   20.6336 C   0  0  0  0  0  0  0  0  0  0  0  0
   -3.7753  -24.0338   19.3808 S   0  0  0  0  0  0  0  0  0  0  0  0
   -3.7040  -22.6646   20.4551 C   0  0  0  0  0  0  0  0  0  0  0  0
   -3.2210  -21.3117   20.2267 C   0  0  0  0  0  0  0  0  0  0  0  0
    1.5447  -13.8999   18.2316 N   0  0  0  0  0  0  0  0  0  0  0  0
    1.0289  -14.2339   16.3522 H   0  0  0  0  0  0  0  0  0  0  0  0
    3.2127  -15.8002   16.4309 H   0  0  0  0  0  0  0  0  0  0  0  0
    3.6694  -12.5768   18.1871 H   0  0  0  0  0  0  0  0  0  0  0  0
    3.6114  -13.4080   21.0851 H   0  0  0  0  0  0  0  0  0  0  0  0
    4.5993  -12.0066   20.9857 H   0  0  0  0  0  0  0  0  0  0  0  0
    5.9293  -13.8737   19.6394 H   0  0  0  0  0  0  0  0  0  0  0  0
    5.8521  -12.0944   19.3601 H   0  0  0  0  0  0  0  0  0  0  0  0
    0.7572  -17.1695   19.3687 H   0  0  0  0  0  0  0  0  0  0  0  0
    0.8459  -16.0643   20.8508 H   0  0  0  0  0  0  0  0  0  0  0  0
   -1.0815  -16.3221   21.2352 H   0  0  0  0  0  0  0  0  0  0  0  0
   -3.0157  -17.2625   19.8784 H   0  0  0  0  0  0  0  0  0  0  0  0
   -1.9107  -18.2524   19.0792 H   0  0  0  0  0  0  0  0  0  0  0  0
   -3.2505  -18.2790   21.8677 H   0  0  0  0  0  0  0  0  0  0  0  0
   -1.6580  -18.9871   21.9207 H   0  0  0  0  0  0  0  0  0  0  0  0
   -3.7511  -20.1332   23.3558 H   0  0  0  0  0  0  0  0  0  0  0  0
   -4.6141  -22.4119   23.7014 H   0  0  0  0  0  0  0  0  0  0  0  0
   -4.6738  -26.0527   20.4709 H   0  0  0  0  0  0  0  0  0  0  0  0
   -2.8296  -21.0638   19.2433 H   0  0  0  0  0  0  0  0  0  0  0  0
  1  2  2  0
  2  3  1  0
  3  4  1  0
  4  5  1  0
  5  6  1  0
  3  7  1  0
  7  8  1  0
  8  9  1  0
  9 10  1  0
 10 11  1  0
 11 12  1  0
 12 13  2  0
 13 14  1  0
 14 15  2  0
 15 16  1  0
 16 17  2  0
 17 18  1  0
 18 19  1  0
 19 20  2  0
  7 21  2  0
 21  1  1  0
  6  4  1  0
 20 12  1  0
 19 15  1  0
  1 22  1  0
  2 23  1  0
  4 24  1  0
  5 25  1  0
  5 26  1  0
  6 27  1  0
  6 28  1  0
  8 29  1  0
  8 30  1  0
  9 31  1  0
 10 32  1  0
 10 33  1  0
 11 34  1  0
 11 35  1  0
 13 36  1  0
 14 37  1  0
 17 38  1  0
 20 39  1  0
M  END
>  <Energy>  (587) 
417.20268377876062

>  <compound_id>  (587) 
12514

>  <target_id>  (587) 
1

>  <reference_id>  (587) 
80

>  <inspiration_ids>  (587) 
[80, 68]

>  <energy_score>  (587) 
258.8900748208732

>  <distance_score>  (587) 
15.881606277623998

>  <path>  (587) 
/opt/xchem-fragalysis-2/maxwin/BulkDock/SCRATCH/511013/C12514-P80/C12514-P80.minimised.mol

>  <scratch_subdir>  (587) 
/opt/xchem-fragalysis-2/maxwin/BulkDock/SCRATCH/511013/C12514-P80

>  <fragmenstein_runtime>  (587) 
8.567028760910034

>  <fragmenstein_outcome>  (587) 
too moved

>  <fragmenstein_mode>  (587) 
expansion

>  <fragmenstein_error>  (587) 


$$$$
C12514-P68
     RDKit          3D

 39 42  0  0  0  0  0  0  0  0999 V2000
   -2.2130  -16.5052   22.4106 C   0  0  0  0  0  0  0  0  0  0  0  0
   -1.0547  -16.6677   23.1273 C   0  0  0  0  0  0  0  0  0  0  0  0
   -1.0825  -17.9832   23.5057 N   0  0  0  0  0  0  0  0  0  0  0  0
   -0.0026  -18.6505   24.2642 C   0  0  0  0  0  0  0  0  0  0  0  0
   -0.2061  -19.1608   25.6711 C   0  0  0  0  0  0  0  0  0  0  0  0
    0.7030  -17.9948   25.4294 C   0  0  0  0  0  0  0  0  0  0  0  0
   -2.2438  -18.6046   23.0444 C   0  0  0  0  0  0  0  0  0  0  0  0
   -2.5894  -20.1103   23.3961 C   0  0  0  0  0  0  0  0  0  0  0  0
   -3.8175  -20.8040   22.8323 N   0  0  0  0  0  0  0  0  0  0  0  0
   -3.9983  -22.2312   23.3553 C   0  0  0  0  0  0  0  0  0  0  0  0
   -5.1586  -23.1483   22.7620 C   0  0  0  0  0  0  0  0  0  0  0  0
   -5.5005  -24.4473   23.5252 C   0  0  0  0  0  0  0  0  0  0  0  0
   -4.5139  -25.2978   24.0382 C   0  0  0  0  0  0  0  0  0  0  0  0
   -4.8330  -26.3874   24.8739 C   0  0  0  0  0  0  0  0  0  0  0  0
   -6.1721  -26.6282   25.2284 C   0  0  0  0  0  0  0  0  0  0  0  0
   -6.6154  -27.4995   26.2132 N   0  0  0  0  0  0  0  0  0  0  0  0
   -7.9277  -27.4432   26.2744 C   0  0  0  0  0  0  0  0  0  0  0  0
   -8.7035  -26.4360   25.1336 S   0  0  0  0  0  0  0  0  0  0  0  0
   -7.1639  -25.8753   24.5998 C   0  0  0  0  0  0  0  0  0  0  0  0
   -6.8506  -24.8086   23.7270 C   0  0  0  0  0  0  0  0  0  0  0  0
   -2.9230  -17.6985   22.3439 N   0  0  0  0  0  0  0  0  0  0  0  0
   -2.5843  -15.6146   21.9214 H   0  0  0  0  0  0  0  0  0  0  0  0
   -0.2450  -16.0006   23.3754 H   0  0  0  0  0  0  0  0  0  0  0  0
    0.6204  -19.2548   23.6087 H   0  0  0  0  0  0  0  0  0  0  0  0
    0.2429  -20.1118   25.9350 H   0  0  0  0  0  0  0  0  0  0  0  0
   -1.1496  -18.9635   26.1688 H   0  0  0  0  0  0  0  0  0  0  0  0
    0.3665  -17.0215   25.7683 H   0  0  0  0  0  0  0  0  0  0  0  0
    1.7698  -18.1561   25.5325 H   0  0  0  0  0  0  0  0  0  0  0  0
   -2.6803  -20.1471   24.4882 H   0  0  0  0  0  0  0  0  0  0  0  0
   -1.7148  -20.7051   23.1049 H   0  0  0  0  0  0  0  0  0  0  0  0
   -3.7276  -20.8157   21.8166 H   0  0  0  0  0  0  0  0  0  0  0  0
   -4.1611  -22.1486   24.4368 H   0  0  0  0  0  0  0  0  0  0  0  0
   -3.0493  -22.7603   23.2070 H   0  0  0  0  0  0  0  0  0  0  0  0
   -6.0631  -22.5283   22.7203 H   0  0  0  0  0  0  0  0  0  0  0  0
   -4.9044  -23.4152   21.7291 H   0  0  0  0  0  0  0  0  0  0  0  0
   -3.4625  -25.0935   23.8439 H   0  0  0  0  0  0  0  0  0  0  0  0
   -4.0439  -26.9840   25.3203 H   0  0  0  0  0  0  0  0  0  0  0  0
   -8.4946  -28.0267   26.9878 H   0  0  0  0  0  0  0  0  0  0  0  0
   -7.6537  -24.2130   23.2980 H   0  0  0  0  0  0  0  0  0  0  0  0
  1  2  2  0
  2  3  1  0
  3  4  1  0
  4  5  1  0
  5  6  1  0
  3  7  1  0
  7  8  1  0
  8  9  1  0
  9 10  1  0
 10 11  1  0
 11 12  1  0
 12 13  2  0
 13 14  1  0
 14 15  2  0
 15 16  1  0
 16 17  2  0
 17 18  1  0
 18 19  1  0
 19 20  2  0
  7 21  2  0
 21  1  1  0
  6  4  1  0
 20 12  1  0
 19 15  1  0
  1 22  1  0
  2 23  1  0
  4 24  1  0
  5 25  1  0
  5 26  1  0
  6 27  1  0
  6 28  1  0
  8 29  1  0
  8 30  1  0
  9 31  1  0
 10 32  1  0
 10 33  1  0
 11 34  1  0
 11 35  1  0
 13 36  1  0
 14 37  1  0
 17 38  1  0
 20 39  1  0
M  END
>  <Energy>  (588) 
79.256683490305818

>  <compound_id>  (588) 
12514

>  <target_id>  (588) 
1

>  <reference_id>  (588) 
68

>  <inspiration_ids>  (588) 
[80, 68]

>  <energy_score>  (588) 
-79.05592546758089

>  <distance_score>  (588) 
15.585747657136945

>  <path>  (588) 
/opt/xchem-fragalysis-2/maxwin/BulkDock/SCRATCH/511013/C12514-P68/C12514-P68.minimised.mol

>  <scratch_subdir>  (588) 
/opt/xchem-fragalysis-2/maxwin/BulkDock/SCRATCH/511013/C12514-P68

>  <fragmenstein_runtime>  (588) 
22.56092381477356

>  <fragmenstein_outcome>  (588) 
too moved

>  <fragmenstein_mode>  (588) 
expansion

>  <fragmenstein_error>  (588) 


$$$$
C12515-P80
     RDKit          3D

 44 46  0  0  0  0  0  0  0  0999 V2000
   -2.0114  -16.4779   20.1248 C   0  0  0  0  0  0  0  0  0  0  0  0
   -0.7110  -16.7484   20.9435 C   0  0  0  0  0  0  0  0  0  0  0  0
    0.8353  -16.0245   20.4752 N   0  0  0  0  0  0  0  0  0  0  0  0
    2.2249  -14.5867   20.5136 C   0  0  0  0  0  0  0  0  0  0  0  0
    3.4946  -13.1808   21.1964 C   0  0  0  0  0  0  0  0  0  0  0  0
    4.6223  -12.7570   20.4534 N   0  0  0  0  0  0  0  0  0  0  0  0
    5.3192  -11.5738   20.9487 C   0  0  0  0  0  0  0  0  0  0  0  0
    4.6236  -11.0185   22.1079 C   0  0  0  0  0  0  0  0  0  0  0  0
    3.5771  -12.0954   22.5084 N   0  0  0  0  0  0  0  0  0  0  0  0
    2.9374  -11.9920   23.8930 C   0  0  0  0  0  0  0  0  0  0  0  0
    2.6619  -13.3656   24.5720 C   0  0  0  0  0  0  0  0  0  0  0  0
    1.6747  -11.0642   23.9160 C   0  0  0  0  0  0  0  0  0  0  0  0
    3.8586  -11.2107   24.9177 C   0  0  0  0  0  0  0  0  0  0  0  0
   -0.8819  -18.4474   21.0697 C   0  0  0  0  0  0  0  0  0  0  0  0
   -0.5163  -19.3288   20.0365 C   0  0  0  0  0  0  0  0  0  0  0  0
   -0.8449  -20.7259   20.0369 C   0  0  0  0  0  0  0  0  0  0  0  0
   -1.6024  -21.3180   21.0702 C   0  0  0  0  0  0  0  0  0  0  0  0
   -1.9963  -22.6566   21.1663 N   0  0  0  0  0  0  0  0  0  0  0  0
   -2.7049  -22.8281   22.2575 C   0  0  0  0  0  0  0  0  0  0  0  0
   -2.9524  -21.4236   23.2143 S   0  0  0  0  0  0  0  0  0  0  0  0
   -2.0158  -20.4679   22.0997 C   0  0  0  0  0  0  0  0  0  0  0  0
   -1.6722  -19.0556   22.1092 C   0  0  0  0  0  0  0  0  0  0  0  0
   -2.8896  -16.5979   20.7726 H   0  0  0  0  0  0  0  0  0  0  0  0
   -2.0566  -15.4600   19.7331 H   0  0  0  0  0  0  0  0  0  0  0  0
   -2.1454  -17.1738   19.2961 H   0  0  0  0  0  0  0  0  0  0  0  0
   -0.9584  -16.2866   21.9078 H   0  0  0  0  0  0  0  0  0  0  0  0
    0.7847  -16.1879   19.4887 H   0  0  0  0  0  0  0  0  0  0  0  0
    2.5778  -14.6952   19.4691 H   0  0  0  0  0  0  0  0  0  0  0  0
    2.6547  -14.8473   21.4483 H   0  0  0  0  0  0  0  0  0  0  0  0
    6.2046  -11.2049   20.4451 H   0  0  0  0  0  0  0  0  0  0  0  0
    4.8218  -10.1884   22.7706 H   0  0  0  0  0  0  0  0  0  0  0  0
    1.6516  -13.4051   24.9947 H   0  0  0  0  0  0  0  0  0  0  0  0
    3.3504  -13.5572   25.4039 H   0  0  0  0  0  0  0  0  0  0  0  0
    2.7769  -14.2186   23.9007 H   0  0  0  0  0  0  0  0  0  0  0  0
    1.2670  -10.9952   24.9326 H   0  0  0  0  0  0  0  0  0  0  0  0
    1.9336  -10.0437   23.6052 H   0  0  0  0  0  0  0  0  0  0  0  0
    0.8454  -11.3635   23.2792 H   0  0  0  0  0  0  0  0  0  0  0  0
    4.8825  -11.5803   24.9850 H   0  0  0  0  0  0  0  0  0  0  0  0
    3.4363  -11.2671   25.9300 H   0  0  0  0  0  0  0  0  0  0  0  0
    3.9248  -10.1421   24.6818 H   0  0  0  0  0  0  0  0  0  0  0  0
    0.0225  -18.9501   19.1690 H   0  0  0  0  0  0  0  0  0  0  0  0
   -0.5158  -21.3477   19.2073 H   0  0  0  0  0  0  0  0  0  0  0  0
   -3.1141  -23.7893   22.5398 H   0  0  0  0  0  0  0  0  0  0  0  0
   -2.0535  -18.4377   22.9198 H   0  0  0  0  0  0  0  0  0  0  0  0
  1  2  1  0
  2  3  1  0
  3  4  1  0
  4  5  1  0
  5  6  2  0
  6  7  1  0
  7  8  2  0
  8  9  1  0
  9 10  1  0
 10 11  1  0
 10 12  1  0
 10 13  1  0
  2 14  1  0
 14 15  2  0
 15 16  1  0
 16 17  2  0
 17 18  1  0
 18 19  2  0
 19 20  1  0
 20 21  1  0
 21 22  2  0
  9  5  1  0
 22 14  1  0
 21 17  1  0
  1 23  1  0
  1 24  1  0
  1 25  1  0
  2 26  1  0
  3 27  1  0
  4 28  1  0
  4 29  1  0
  7 30  1  0
  8 31  1  0
 11 32  1  0
 11 33  1  0
 11 34  1  0
 12 35  1  0
 12 36  1  0
 12 37  1  0
 13 38  1  0
 13 39  1  0
 13 40  1  0
 15 41  1  0
 16 42  1  0
 19 43  1  0
 22 44  1  0
M  END
>  <Energy>  (589) 
453.28918528666389

>  <compound_id>  (589) 
12515

>  <target_id>  (589) 
1

>  <reference_id>  (589) 
80

>  <inspiration_ids>  (589) 
[80, 68]

>  <energy_score>  (589) 
306.9085217232483

>  <distance_score>  (589) 
17.073679954259223

>  <path>  (589) 
/opt/xchem-fragalysis-2/maxwin/BulkDock/SCRATCH/511013/C12515-P80/C12515-P80.minimised.mol

>  <scratch_subdir>  (589) 
/opt/xchem-fragalysis-2/maxwin/BulkDock/SCRATCH/511013/C12515-P80

>  <fragmenstein_runtime>  (589) 
10.358437299728394

>  <fragmenstein_outcome>  (589) 
too moved

>  <fragmenstein_mode>  (589) 
expansion

>  <fragmenstein_error>  (589) 


$$$$
C12515-P68
     RDKit          3D

 44 46  0  0  0  0  0  0  0  0999 V2000
   -5.0575  -25.5539   22.6375 C   0  0  0  0  0  0  0  0  0  0  0  0
   -3.8093  -26.1354   21.9480 C   0  0  0  0  0  0  0  0  0  0  0  0
   -2.8756  -25.0860   21.4108 N   0  0  0  0  0  0  0  0  0  0  0  0
   -2.2964  -24.0434   22.3021 C   0  0  0  0  0  0  0  0  0  0  0  0
   -1.4098  -22.8640   21.6602 C   0  0  0  0  0  0  0  0  0  0  0  0
   -0.7269  -22.9119   20.5180 N   0  0  0  0  0  0  0  0  0  0  0  0
    0.0048  -21.7524   20.4108 C   0  0  0  0  0  0  0  0  0  0  0  0
   -0.2214  -20.9562   21.4984 C   0  0  0  0  0  0  0  0  0  0  0  0
   -1.1374  -21.6262   22.2876 N   0  0  0  0  0  0  0  0  0  0  0  0
   -1.7303  -21.1070   23.5430 C   0  0  0  0  0  0  0  0  0  0  0  0
   -1.0545  -19.7949   24.0145 C   0  0  0  0  0  0  0  0  0  0  0  0
   -1.5612  -22.0962   24.7164 C   0  0  0  0  0  0  0  0  0  0  0  0
   -3.2175  -20.7648   23.3196 C   0  0  0  0  0  0  0  0  0  0  0  0
   -3.1908  -27.3439   22.6918 C   0  0  0  0  0  0  0  0  0  0  0  0
   -2.2760  -28.1656   22.0151 C   0  0  0  0  0  0  0  0  0  0  0  0
   -1.8028  -29.3763   22.5612 C   0  0  0  0  0  0  0  0  0  0  0  0
   -2.2450  -29.8084   23.8249 C   0  0  0  0  0  0  0  0  0  0  0  0
   -1.9234  -31.0148   24.4424 N   0  0  0  0  0  0  0  0  0  0  0  0
   -2.5461  -31.0968   25.5931 C   0  0  0  0  0  0  0  0  0  0  0  0
   -3.5058  -29.7505   26.0249 S   0  0  0  0  0  0  0  0  0  0  0  0
   -3.1422  -28.9937   24.5153 C   0  0  0  0  0  0  0  0  0  0  0  0
   -3.6191  -27.7716   23.9725 C   0  0  0  0  0  0  0  0  0  0  0  0
   -5.8044  -26.3316   22.8292 H   0  0  0  0  0  0  0  0  0  0  0  0
   -4.8070  -25.0789   23.5921 H   0  0  0  0  0  0  0  0  0  0  0  0
   -5.5296  -24.7964   22.0016 H   0  0  0  0  0  0  0  0  0  0  0  0
   -4.2177  -26.5926   21.0338 H   0  0  0  0  0  0  0  0  0  0  0  0
   -2.1143  -25.5096   20.8825 H   0  0  0  0  0  0  0  0  0  0  0  0
   -3.1334  -23.5714   22.8135 H   0  0  0  0  0  0  0  0  0  0  0  0
   -1.6559  -24.5383   23.0408 H   0  0  0  0  0  0  0  0  0  0  0  0
    0.6586  -21.5740   19.5665 H   0  0  0  0  0  0  0  0  0  0  0  0
    0.1872  -19.9979   21.7534 H   0  0  0  0  0  0  0  0  0  0  0  0
   -1.1838  -18.9927   23.2809 H   0  0  0  0  0  0  0  0  0  0  0  0
    0.0162  -19.9416   24.1940 H   0  0  0  0  0  0  0  0  0  0  0  0
   -1.4939  -19.4334   24.9523 H   0  0  0  0  0  0  0  0  0  0  0  0
   -1.7891  -21.6160   25.6758 H   0  0  0  0  0  0  0  0  0  0  0  0
   -0.5334  -22.4731   24.7706 H   0  0  0  0  0  0  0  0  0  0  0  0
   -2.2323  -22.9541   24.6535 H   0  0  0  0  0  0  0  0  0  0  0  0
   -3.3325  -20.0237   22.5193 H   0  0  0  0  0  0  0  0  0  0  0  0
   -3.8175  -21.6321   23.0368 H   0  0  0  0  0  0  0  0  0  0  0  0
   -3.6665  -20.3465   24.2281 H   0  0  0  0  0  0  0  0  0  0  0  0
   -1.9436  -27.8970   21.0121 H   0  0  0  0  0  0  0  0  0  0  0  0
   -1.1255  -30.0052   21.9888 H   0  0  0  0  0  0  0  0  0  0  0  0
   -2.4439  -31.9543   26.2448 H   0  0  0  0  0  0  0  0  0  0  0  0
   -4.3392  -27.1957   24.5456 H   0  0  0  0  0  0  0  0  0  0  0  0
  1  2  1  0
  2  3  1  0
  3  4  1  0
  4  5  1  0
  5  6  2  0
  6  7  1  0
  7  8  2  0
  8  9  1  0
  9 10  1  0
 10 11  1  0
 10 12  1  0
 10 13  1  0
  2 14  1  0
 14 15  2  0
 15 16  1  0
 16 17  2  0
 17 18  1  0
 18 19  2  0
 19 20  1  0
 20 21  1  0
 21 22  2  0
  9  5  1  0
 22 14  1  0
 21 17  1  0
  1 23  1  0
  1 24  1  0
  1 25  1  0
  2 26  1  0
  3 27  1  0
  4 28  1  0
  4 29  1  0
  7 30  1  0
  8 31  1  0
 11 32  1  0
 11 33  1  0
 11 34  1  0
 12 35  1  0
 12 36  1  0
 12 37  1  0
 13 38  1  0
 13 39  1  0
 13 40  1  0
 15 41  1  0
 16 42  1  0
 19 43  1  0
 22 44  1  0
M  END
>  <Energy>  (590) 
59.631353405405065

>  <compound_id>  (590) 
12515

>  <target_id>  (590) 
1

>  <reference_id>  (590) 
68

>  <inspiration_ids>  (590) 
[80, 68]

>  <energy_score>  (590) 
-86.74931015800746

>  <distance_score>  (590) 
15.935599243354236

>  <path>  (590) 
/opt/xchem-fragalysis-2/maxwin/BulkDock/SCRATCH/511013/C12515-P68/C12515-P68.minimised.mol

>  <scratch_subdir>  (590) 
/opt/xchem-fragalysis-2/maxwin/BulkDock/SCRATCH/511013/C12515-P68

>  <fragmenstein_runtime>  (590) 
19.446916341781616

>  <fragmenstein_outcome>  (590) 
too moved

>  <fragmenstein_mode>  (590) 
expansion

>  <fragmenstein_error>  (590) 


$$$$
C12516-P80
     RDKit          3D

 40 42  0  0  0  0  0  0  0  0999 V2000
   -1.7662  -15.3171   19.6849 O   0  0  0  0  0  0  0  0  0  0  0  0
   -1.0642  -16.2753   19.8705 C   0  0  0  0  0  0  0  0  0  0  0  0
    0.8755  -15.9137   19.4617 C   0  0  0  0  0  0  0  0  0  0  0  0
    2.0918  -14.3908   18.4387 C   0  0  0  0  0  0  0  0  0  0  0  0
    3.2073  -12.5473   18.1616 C   0  0  0  0  0  0  0  0  0  0  0  0
    2.9583  -10.6612   17.5848 N   0  0  0  0  0  0  0  0  0  0  0  0
    1.9930   -9.5352   17.9926 C   0  0  0  0  0  0  0  0  0  0  0  0
    2.2325   -8.3565   17.4786 C   0  0  0  0  0  0  0  0  0  0  0  0
    3.2810   -8.0975   18.0800 N   0  0  0  0  0  0  0  0  0  0  0  0
    3.7685   -9.3143   18.0040 C   0  0  0  0  0  0  0  0  0  0  0  0
   -1.4233  -17.6740   20.2423 N   0  0  0  0  0  0  0  0  0  0  0  0
   -2.8609  -18.3857   20.4076 C   0  0  0  0  0  0  0  0  0  0  0  0
   -3.5020  -19.3977   21.6162 C   0  0  0  0  0  0  0  0  0  0  0  0
   -3.8618  -20.9697   21.6681 C   0  0  0  0  0  0  0  0  0  0  0  0
   -3.8032  -21.6072   22.9336 C   0  0  0  0  0  0  0  0  0  0  0  0
   -4.0616  -22.9896   23.1424 C   0  0  0  0  0  0  0  0  0  0  0  0
   -4.3783  -23.8239   22.0570 C   0  0  0  0  0  0  0  0  0  0  0  0
   -4.5598  -25.2048   22.1019 N   0  0  0  0  0  0  0  0  0  0  0  0
   -4.7719  -25.6523   20.8867 C   0  0  0  0  0  0  0  0  0  0  0  0
   -4.8932  -24.4622   19.6557 S   0  0  0  0  0  0  0  0  0  0  0  0
   -4.5050  -23.2149   20.8030 C   0  0  0  0  0  0  0  0  0  0  0  0
   -4.3040  -21.7953   20.6076 C   0  0  0  0  0  0  0  0  0  0  0  0
    1.1541  -15.8396   20.5053 H   0  0  0  0  0  0  0  0  0  0  0  0
    0.9755  -16.9627   19.0213 H   0  0  0  0  0  0  0  0  0  0  0  0
    2.9136  -15.0498   18.1318 H   0  0  0  0  0  0  0  0  0  0  0  0
    1.4203  -14.1959   17.5969 H   0  0  0  0  0  0  0  0  0  0  0  0
    4.0021  -12.5657   18.9441 H   0  0  0  0  0  0  0  0  0  0  0  0
    3.9052  -12.3928   17.3727 H   0  0  0  0  0  0  0  0  0  0  0  0
    0.9578   -9.4736   18.0337 H   0  0  0  0  0  0  0  0  0  0  0  0
    1.4820   -7.8101   16.9392 H   0  0  0  0  0  0  0  0  0  0  0  0
    4.8187   -9.3835   18.3008 H   0  0  0  0  0  0  0  0  0  0  0  0
   -0.5866  -18.2438   20.2351 H   0  0  0  0  0  0  0  0  0  0  0  0
   -3.5374  -17.5258   20.3943 H   0  0  0  0  0  0  0  0  0  0  0  0
   -3.0241  -18.8879   19.4511 H   0  0  0  0  0  0  0  0  0  0  0  0
   -2.8948  -19.1768   22.5049 H   0  0  0  0  0  0  0  0  0  0  0  0
   -4.4855  -18.9448   21.8145 H   0  0  0  0  0  0  0  0  0  0  0  0
   -3.5241  -21.0179   23.8088 H   0  0  0  0  0  0  0  0  0  0  0  0
   -3.9702  -23.4169   24.1367 H   0  0  0  0  0  0  0  0  0  0  0  0
   -4.8879  -26.7063   20.6686 H   0  0  0  0  0  0  0  0  0  0  0  0
   -4.4685  -21.3768   19.6191 H   0  0  0  0  0  0  0  0  0  0  0  0
  1  2  2  0
  2  3  1  0
  3  4  1  0
  4  5  1  0
  5  6  1  0
  6  7  1  0
  7  8  2  0
  8  9  1  0
  9 10  2  0
  2 11  1  0
 11 12  1  0
 12 13  1  0
 13 14  1  0
 14 15  2  0
 15 16  1  0
 16 17  2  0
 17 18  1  0
 18 19  2  0
 19 20  1  0
 20 21  1  0
 21 22  2  0
 10  6  1  0
 22 14  1  0
 21 17  1  0
  3 23  1  0
  3 24  1  0
  4 25  1  0
  4 26  1  0
  5 27  1  0
  5 28  1  0
  7 29  1  0
  8 30  1  0
 10 31  1  0
 11 32  1  0
 12 33  1  0
 12 34  1  0
 13 35  1  0
 13 36  1  0
 15 37  1  0
 16 38  1  0
 19 39  1  0
 22 40  1  0
M  END
>  <Energy>  (591) 
696.52956757388574

>  <compound_id>  (591) 
12516

>  <target_id>  (591) 
1

>  <reference_id>  (591) 
80

>  <inspiration_ids>  (591) 
[80, 68]

>  <energy_score>  (591) 
625.3331085769505

>  <distance_score>  (591) 
13.99532241575636

>  <path>  (591) 
/opt/xchem-fragalysis-2/maxwin/BulkDock/SCRATCH/511013/C12516-P80/C12516-P80.minimised.mol

>  <scratch_subdir>  (591) 
/opt/xchem-fragalysis-2/maxwin/BulkDock/SCRATCH/511013/C12516-P80

>  <fragmenstein_runtime>  (591) 
9.001243352890015

>  <fragmenstein_outcome>  (591) 
too moved

>  <fragmenstein_mode>  (591) 
expansion

>  <fragmenstein_error>  (591) 


$$$$
C12516-P68
     RDKit          3D

 40 42  0  0  0  0  0  0  0  0999 V2000
    0.9304  -14.4483   12.7782 O   0  0  0  0  0  0  0  0  0  0  0  0
    0.6897  -13.7244   13.7694 C   0  0  0  0  0  0  0  0  0  0  0  0
    0.1236  -12.3840   13.2857 C   0  0  0  0  0  0  0  0  0  0  0  0
   -0.0160  -12.0688   11.6817 C   0  0  0  0  0  0  0  0  0  0  0  0
    1.0354  -11.6642   10.5936 C   0  0  0  0  0  0  0  0  0  0  0  0
    1.5664  -10.3185   10.4006 N   0  0  0  0  0  0  0  0  0  0  0  0
    0.8690   -9.1525   10.2123 C   0  0  0  0  0  0  0  0  0  0  0  0
    1.8109   -8.2057    9.8578 C   0  0  0  0  0  0  0  0  0  0  0  0
    3.0491   -8.7704    9.7324 N   0  0  0  0  0  0  0  0  0  0  0  0
    2.8607  -10.0409   10.0191 C   0  0  0  0  0  0  0  0  0  0  0  0
    1.1500  -14.1517   15.7012 N   0  0  0  0  0  0  0  0  0  0  0  0
    2.1963  -15.6608   16.4908 C   0  0  0  0  0  0  0  0  0  0  0  0
    2.8095  -17.4654   16.1820 C   0  0  0  0  0  0  0  0  0  0  0  0
    2.4474  -19.1544   16.5518 C   0  0  0  0  0  0  0  0  0  0  0  0
    1.8763  -19.5743   17.7613 C   0  0  0  0  0  0  0  0  0  0  0  0
    1.6286  -20.9212   18.1863 C   0  0  0  0  0  0  0  0  0  0  0  0
    1.7673  -21.9771   17.2878 C   0  0  0  0  0  0  0  0  0  0  0  0
    1.3892  -23.3058   17.5106 N   0  0  0  0  0  0  0  0  0  0  0  0
    1.6297  -23.9964   16.4229 C   0  0  0  0  0  0  0  0  0  0  0  0
    2.3022  -23.1191   15.1048 S   0  0  0  0  0  0  0  0  0  0  0  0
    2.2883  -21.6422   16.0311 C   0  0  0  0  0  0  0  0  0  0  0  0
    2.6771  -20.2607   15.6745 C   0  0  0  0  0  0  0  0  0  0  0  0
   -0.7742  -12.0350   13.6661 H   0  0  0  0  0  0  0  0  0  0  0  0
    0.9917  -11.8144   13.5532 H   0  0  0  0  0  0  0  0  0  0  0  0
   -0.7360  -11.2431   11.6232 H   0  0  0  0  0  0  0  0  0  0  0  0
   -0.4756  -12.9710   11.2586 H   0  0  0  0  0  0  0  0  0  0  0  0
    1.8754  -12.3406   10.5622 H   0  0  0  0  0  0  0  0  0  0  0  0
    0.5264  -11.8470    9.6333 H   0  0  0  0  0  0  0  0  0  0  0  0
   -0.1979   -9.0852   10.3692 H   0  0  0  0  0  0  0  0  0  0  0  0
    1.6490   -7.1536    9.6667 H   0  0  0  0  0  0  0  0  0  0  0  0
    3.6123  -10.8118    9.9623 H   0  0  0  0  0  0  0  0  0  0  0  0
    0.7768  -13.4453   16.3121 H   0  0  0  0  0  0  0  0  0  0  0  0
    3.1700  -15.2290   16.6793 H   0  0  0  0  0  0  0  0  0  0  0  0
    1.9190  -15.6528   17.5744 H   0  0  0  0  0  0  0  0  0  0  0  0
    3.6897  -17.3979   16.8416 H   0  0  0  0  0  0  0  0  0  0  0  0
    3.2666  -17.4929   15.1907 H   0  0  0  0  0  0  0  0  0  0  0  0
    1.5643  -18.8019   18.4326 H   0  0  0  0  0  0  0  0  0  0  0  0
    1.2636  -21.1187   19.1887 H   0  0  0  0  0  0  0  0  0  0  0  0
    1.4250  -25.0559   16.3481 H   0  0  0  0  0  0  0  0  0  0  0  0
    3.0603  -20.0738   14.6736 H   0  0  0  0  0  0  0  0  0  0  0  0
  1  2  2  0
  2  3  1  0
  3  4  1  0
  4  5  1  0
  5  6  1  0
  6  7  1  0
  7  8  2  0
  8  9  1  0
  9 10  2  0
  2 11  1  0
 11 12  1  0
 12 13  1  0
 13 14  1  0
 14 15  2  0
 15 16  1  0
 16 17  2  0
 17 18  1  0
 18 19  2  0
 19 20  1  0
 20 21  1  0
 21 22  2  0
 10  6  1  0
 22 14  1  0
 21 17  1  0
  3 23  1  0
  3 24  1  0
  4 25  1  0
  4 26  1  0
  5 27  1  0
  5 28  1  0
  7 29  1  0
  8 30  1  0
 10 31  1  0
 11 32  1  0
 12 33  1  0
 12 34  1  0
 13 35  1  0
 13 36  1  0
 15 37  1  0
 16 38  1  0
 19 39  1  0
 22 40  1  0
M  END
>  <Energy>  (592) 
384.99954766360082

>  <compound_id>  (592) 
12516

>  <target_id>  (592) 
1

>  <reference_id>  (592) 
68

>  <inspiration_ids>  (592) 
[80, 68]

>  <energy_score>  (592) 
313.8030886666726

>  <distance_score>  (592) 
18.71235145923295

>  <path>  (592) 
/opt/xchem-fragalysis-2/maxwin/BulkDock/SCRATCH/511013/C12516-P68/C12516-P68.minimised.mol

>  <scratch_subdir>  (592) 
/opt/xchem-fragalysis-2/maxwin/BulkDock/SCRATCH/511013/C12516-P68

>  <fragmenstein_runtime>  (592) 
18.76521396636963

>  <fragmenstein_outcome>  (592) 
too moved

>  <fragmenstein_mode>  (592) 
expansion

>  <fragmenstein_error>  (592) 


$$$$
C12517-P80
     RDKit          3D

 38 40  0  0  0  0  0  0  0  0999 V2000
   -0.7420  -26.5039   21.6180 C   0  0  0  0  0  0  0  0  0  0  0  0
    0.3875  -27.5042   21.9429 C   0  0  0  0  0  0  0  0  0  0  0  0
    1.6614  -27.1331   21.2262 N   0  0  0  0  0  0  0  0  0  0  0  0
    2.7029  -26.1091   21.5513 C   0  0  0  0  0  0  0  0  0  0  0  0
    2.8173  -25.3873   22.5077 O   0  0  0  0  0  0  0  0  0  0  0  0
    3.8173  -25.9459   20.3524 C   0  0  0  0  0  0  0  0  0  0  0  0
    4.5930  -27.1262   20.2089 O   0  0  0  0  0  0  0  0  0  0  0  0
    4.8623  -24.7582   20.4243 C   0  0  0  0  0  0  0  0  0  0  0  0
    5.4013  -23.9841   21.4471 C   0  0  0  0  0  0  0  0  0  0  0  0
    6.1882  -22.9420   20.9780 N   0  0  0  0  0  0  0  0  0  0  0  0
    6.2370  -23.1163   19.6806 C   0  0  0  0  0  0  0  0  0  0  0  0
    5.4955  -24.2075   19.3026 N   0  0  0  0  0  0  0  0  0  0  0  0
    5.4060  -24.7131   17.9528 C   0  0  0  0  0  0  0  0  0  0  0  0
   -0.1818  -28.9643   21.8949 C   0  0  0  0  0  0  0  0  0  0  0  0
    0.2654  -29.8955   22.8472 C   0  0  0  0  0  0  0  0  0  0  0  0
   -0.3663  -31.1443   23.0477 C   0  0  0  0  0  0  0  0  0  0  0  0
   -1.4968  -31.5058   22.2923 C   0  0  0  0  0  0  0  0  0  0  0  0
   -2.2153  -32.6854   22.4104 N   0  0  0  0  0  0  0  0  0  0  0  0
   -3.2410  -32.6528   21.5905 C   0  0  0  0  0  0  0  0  0  0  0  0
   -3.3592  -31.2731   20.5795 S   0  0  0  0  0  0  0  0  0  0  0  0
   -1.9496  -30.6030   21.3288 C   0  0  0  0  0  0  0  0  0  0  0  0
   -1.2976  -29.3542   21.1024 C   0  0  0  0  0  0  0  0  0  0  0  0
   -1.6470  -26.7037   22.2017 H   0  0  0  0  0  0  0  0  0  0  0  0
   -0.4165  -25.4825   21.8474 H   0  0  0  0  0  0  0  0  0  0  0  0
   -0.9951  -26.5203   20.5523 H   0  0  0  0  0  0  0  0  0  0  0  0
    0.6268  -27.3157   22.9992 H   0  0  0  0  0  0  0  0  0  0  0  0
    1.8315  -27.4973   20.2947 H   0  0  0  0  0  0  0  0  0  0  0  0
    3.2324  -25.8182   19.4343 H   0  0  0  0  0  0  0  0  0  0  0  0
    5.1488  -27.1698   21.0078 H   0  0  0  0  0  0  0  0  0  0  0  0
    5.2051  -24.0860   22.5084 H   0  0  0  0  0  0  0  0  0  0  0  0
    6.7983  -22.5171   18.9782 H   0  0  0  0  0  0  0  0  0  0  0  0
    4.3586  -24.7526   17.6486 H   0  0  0  0  0  0  0  0  0  0  0  0
    5.8488  -25.7120   17.9320 H   0  0  0  0  0  0  0  0  0  0  0  0
    5.9570  -24.0523   17.2785 H   0  0  0  0  0  0  0  0  0  0  0  0
    1.1050  -29.6400   23.4941 H   0  0  0  0  0  0  0  0  0  0  0  0
    0.0020  -31.8279   23.8070 H   0  0  0  0  0  0  0  0  0  0  0  0
   -3.9705  -33.4508   21.5473 H   0  0  0  0  0  0  0  0  0  0  0  0
   -1.7173  -28.6811   20.3598 H   0  0  0  0  0  0  0  0  0  0  0  0
  1  2  1  0
  2  3  1  0
  3  4  1  0
  4  5  2  0
  4  6  1  0
  6  7  1  0
  6  8  1  0
  8  9  2  0
  9 10  1  0
 10 11  2  0
 11 12  1  0
 12 13  1  0
  2 14  1  0
 14 15  2  0
 15 16  1  0
 16 17  2  0
 17 18  1  0
 18 19  2  0
 19 20  1  0
 20 21  1  0
 21 22  2  0
 12  8  1  0
 22 14  1  0
 21 17  1  0
  1 23  1  0
  1 24  1  0
  1 25  1  0
  2 26  1  0
  3 27  1  0
  6 28  1  0
  7 29  1  0
  9 30  1  0
 11 31  1  0
 13 32  1  0
 13 33  1  0
 13 34  1  0
 15 35  1  0
 16 36  1  0
 19 37  1  0
 22 38  1  0
M  END
>  <Energy>  (593) 
71.291935377200559

>  <compound_id>  (593) 
12517

>  <target_id>  (593) 
1

>  <reference_id>  (593) 
80

>  <inspiration_ids>  (593) 
[80, 68]

>  <energy_score>  (593) 
-56.3795706752918

>  <distance_score>  (593) 
16.20585078918946

>  <path>  (593) 
/opt/xchem-fragalysis-2/maxwin/BulkDock/SCRATCH/511013/C12517-P80/C12517-P80.minimised.mol

>  <scratch_subdir>  (593) 
/opt/xchem-fragalysis-2/maxwin/BulkDock/SCRATCH/511013/C12517-P80

>  <fragmenstein_runtime>  (593) 
13.697874546051025

>  <fragmenstein_outcome>  (593) 
too moved

>  <fragmenstein_mode>  (593) 
expansion

>  <fragmenstein_error>  (593) 


$$$$
C12517-P68
     RDKit          3D

 38 40  0  0  0  0  0  0  0  0999 V2000
    4.0914  -24.8854   19.5459 C   0  0  0  0  0  0  0  0  0  0  0  0
    4.3810  -24.6506   21.0430 C   0  0  0  0  0  0  0  0  0  0  0  0
    4.7747  -23.1501   21.1938 N   0  0  0  0  0  0  0  0  0  0  0  0
    6.1682  -22.4776   21.4618 C   0  0  0  0  0  0  0  0  0  0  0  0
    7.2505  -22.9796   21.6941 O   0  0  0  0  0  0  0  0  0  0  0  0
    6.2208  -20.6139   21.5521 C   0  0  0  0  0  0  0  0  0  0  0  0
    7.5855  -20.1866   21.6011 O   0  0  0  0  0  0  0  0  0  0  0  0
    5.5622  -19.5641   20.2563 C   0  0  0  0  0  0  0  0  0  0  0  0
    4.2943  -20.1333   18.3982 C   0  0  0  0  0  0  0  0  0  0  0  0
    3.7573  -18.3218   17.8300 N   0  0  0  0  0  0  0  0  0  0  0  0
    4.3803  -17.0017   18.7880 C   0  0  0  0  0  0  0  0  0  0  0  0
    5.6768  -17.6653   20.0585 N   0  0  0  0  0  0  0  0  0  0  0  0
    7.0648  -17.1239   19.9325 C   0  0  0  0  0  0  0  0  0  0  0  0
    3.0772  -25.3513   21.7105 C   0  0  0  0  0  0  0  0  0  0  0  0
    1.9178  -24.6940   22.1356 C   0  0  0  0  0  0  0  0  0  0  0  0
    0.7243  -25.4025   22.5012 C   0  0  0  0  0  0  0  0  0  0  0  0
    0.6298  -26.8137   22.4143 C   0  0  0  0  0  0  0  0  0  0  0  0
   -0.4820  -27.6143   22.6903 N   0  0  0  0  0  0  0  0  0  0  0  0
   -0.1932  -28.8727   22.4413 C   0  0  0  0  0  0  0  0  0  0  0  0
    1.4077  -29.1870   21.9142 S   0  0  0  0  0  0  0  0  0  0  0  0
    1.7719  -27.4915   21.9885 C   0  0  0  0  0  0  0  0  0  0  0  0
    2.9793  -26.7882   21.6679 C   0  0  0  0  0  0  0  0  0  0  0  0
    3.1967  -24.3400   19.2221 H   0  0  0  0  0  0  0  0  0  0  0  0
    3.9601  -25.9428   19.2944 H   0  0  0  0  0  0  0  0  0  0  0  0
    4.9279  -24.5169   18.9405 H   0  0  0  0  0  0  0  0  0  0  0  0
    5.2631  -25.2176   21.3606 H   0  0  0  0  0  0  0  0  0  0  0  0
    4.0815  -22.4199   20.9467 H   0  0  0  0  0  0  0  0  0  0  0  0
    5.7503  -20.2850   22.4813 H   0  0  0  0  0  0  0  0  0  0  0  0
    8.0775  -20.9911   21.8643 H   0  0  0  0  0  0  0  0  0  0  0  0
    3.7158  -21.0072   18.0014 H   0  0  0  0  0  0  0  0  0  0  0  0
    4.6667  -16.0343   18.3689 H   0  0  0  0  0  0  0  0  0  0  0  0
    7.5971  -17.3945   20.8456 H   0  0  0  0  0  0  0  0  0  0  0  0
    7.5373  -17.5776   19.0596 H   0  0  0  0  0  0  0  0  0  0  0  0
    6.9801  -16.0425   19.8147 H   0  0  0  0  0  0  0  0  0  0  0  0
    1.8949  -23.6048   22.1635 H   0  0  0  0  0  0  0  0  0  0  0  0
   -0.1493  -24.8382   22.8187 H   0  0  0  0  0  0  0  0  0  0  0  0
   -0.9163  -29.6690   22.5612 H   0  0  0  0  0  0  0  0  0  0  0  0
    3.8328  -27.3667   21.3164 H   0  0  0  0  0  0  0  0  0  0  0  0
  1  2  1  0
  2  3  1  0
  3  4  1  0
  4  5  2  0
  4  6  1  0
  6  7  1  0
  6  8  1  0
  8  9  2  0
  9 10  1  0
 10 11  2  0
 11 12  1  0
 12 13  1  0
  2 14  1  0
 14 15  2  0
 15 16  1  0
 16 17  2  0
 17 18  1  0
 18 19  2  0
 19 20  1  0
 20 21  1  0
 21 22  2  0
 12  8  1  0
 22 14  1  0
 21 17  1  0
  1 23  1  0
  1 24  1  0
  1 25  1  0
  2 26  1  0
  3 27  1  0
  6 28  1  0
  7 29  1  0
  9 30  1  0
 11 31  1  0
 13 32  1  0
 13 33  1  0
 13 34  1  0
 15 35  1  0
 16 36  1  0
 19 37  1  0
 22 38  1  0
M  END
>  <Energy>  (594) 
995.09882991039763

>  <compound_id>  (594) 
12517

>  <target_id>  (594) 
1

>  <reference_id>  (594) 
68

>  <inspiration_ids>  (594) 
[80, 68]

>  <energy_score>  (594) 
867.4273238579228

>  <distance_score>  (594) 
16.487370399829338

>  <path>  (594) 
/opt/xchem-fragalysis-2/maxwin/BulkDock/SCRATCH/511013/C12517-P68/C12517-P68.minimised.mol

>  <scratch_subdir>  (594) 
/opt/xchem-fragalysis-2/maxwin/BulkDock/SCRATCH/511013/C12517-P68

>  <fragmenstein_runtime>  (594) 
15.876167297363281

>  <fragmenstein_outcome>  (594) 
too moved

>  <fragmenstein_mode>  (594) 
expansion

>  <fragmenstein_error>  (594) 


$$$$
C12518-P80
     RDKit          3D

 31 33  0  0  0  0  0  0  0  0999 V2000
    3.9001  -21.7149   25.8753 O   0  0  0  0  0  0  0  0  0  0  0  0
    3.1393  -21.0874   25.1866 C   0  0  0  0  0  0  0  0  0  0  0  0
    3.2862  -19.7536   24.5597 N   0  0  0  0  0  0  0  0  0  0  0  0
    4.4923  -18.7920   24.5015 C   0  0  0  0  0  0  0  0  0  0  0  0
    4.3645  -17.2325   24.7978 C   0  0  0  0  0  0  0  0  0  0  0  0
    5.3837  -16.2072   24.2481 C   0  0  0  0  0  0  0  0  0  0  0  0
    6.7287  -16.2867   23.9309 C   0  0  0  0  0  0  0  0  0  0  0  0
    7.1162  -15.0272   23.5180 N   0  0  0  0  0  0  0  0  0  0  0  0
    6.0251  -14.2137   23.6007 C   0  0  0  0  0  0  0  0  0  0  0  0
    4.9746  -14.8873   24.0238 N   0  0  0  0  0  0  0  0  0  0  0  0
    1.8396  -21.9658   24.8661 C   0  0  0  0  0  0  0  0  0  0  0  0
    0.5303  -21.4973   24.7419 C   0  0  0  0  0  0  0  0  0  0  0  0
   -0.5860  -22.3854   24.5582 C   0  0  0  0  0  0  0  0  0  0  0  0
   -0.4283  -23.7935   24.4772 C   0  0  0  0  0  0  0  0  0  0  0  0
   -1.4279  -24.7532   24.3058 N   0  0  0  0  0  0  0  0  0  0  0  0
   -0.8892  -25.9527   24.2685 C   0  0  0  0  0  0  0  0  0  0  0  0
    0.8167  -26.0136   24.4387 S   0  0  0  0  0  0  0  0  0  0  0  0
    0.8736  -24.2829   24.5832 C   0  0  0  0  0  0  0  0  0  0  0  0
    1.9845  -23.3944   24.7836 C   0  0  0  0  0  0  0  0  0  0  0  0
    2.4689  -19.5677   23.9698 H   0  0  0  0  0  0  0  0  0  0  0  0
    5.2492  -19.2158   25.1712 H   0  0  0  0  0  0  0  0  0  0  0  0
    4.8769  -18.9091   23.4829 H   0  0  0  0  0  0  0  0  0  0  0  0
    3.3763  -16.9041   24.4775 H   0  0  0  0  0  0  0  0  0  0  0  0
    4.3603  -17.1166   25.8898 H   0  0  0  0  0  0  0  0  0  0  0  0
    7.4352  -17.1042   23.9710 H   0  0  0  0  0  0  0  0  0  0  0  0
    8.0434  -14.7522   23.2231 H   0  0  0  0  0  0  0  0  0  0  0  0
    6.0467  -13.1645   23.3371 H   0  0  0  0  0  0  0  0  0  0  0  0
    0.3413  -20.4296   24.8125 H   0  0  0  0  0  0  0  0  0  0  0  0
   -1.5893  -21.9749   24.4799 H   0  0  0  0  0  0  0  0  0  0  0  0
   -1.4798  -26.8505   24.1379 H   0  0  0  0  0  0  0  0  0  0  0  0
    2.9812  -23.8239   24.8858 H   0  0  0  0  0  0  0  0  0  0  0  0
  1  2  2  0
  2  3  1  0
  3  4  1  0
  4  5  1  0
  5  6  1  0
  6  7  2  0
  7  8  1  0
  8  9  1  0
  9 10  2  0
  2 11  1  0
 11 12  2  0
 12 13  1  0
 13 14  2  0
 14 15  1  0
 15 16  2  0
 16 17  1  0
 17 18  1  0
 18 19  2  0
 10  6  1  0
 19 11  1  0
 18 14  1  0
  3 20  1  0
  4 21  1  0
  4 22  1  0
  5 23  1  0
  5 24  1  0
  7 25  1  0
  8 26  1  0
  9 27  1  0
 12 28  1  0
 13 29  1  0
 16 30  1  0
 19 31  1  0
M  END
>  <Energy>  (595) 
50.393789497253863

>  <compound_id>  (595) 
12518

>  <target_id>  (595) 
1

>  <reference_id>  (595) 
80

>  <inspiration_ids>  (595) 
[80, 68]

>  <energy_score>  (595) 
-52.073822698944696

>  <distance_score>  (595) 
16.853476031144172

>  <path>  (595) 
/opt/xchem-fragalysis-2/maxwin/BulkDock/SCRATCH/511013/C12518-P80/C12518-P80.minimised.mol

>  <scratch_subdir>  (595) 
/opt/xchem-fragalysis-2/maxwin/BulkDock/SCRATCH/511013/C12518-P80

>  <fragmenstein_runtime>  (595) 
11.758602619171143

>  <fragmenstein_outcome>  (595) 
too moved

>  <fragmenstein_mode>  (595) 
expansion

>  <fragmenstein_error>  (595) 


$$$$
C12518-P68
     RDKit          3D

 31 33  0  0  0  0  0  0  0  0999 V2000
   -7.5384  -30.1087   23.7351 O   0  0  0  0  0  0  0  0  0  0  0  0
   -8.4104  -29.5226   23.3006 C   0  0  0  0  0  0  0  0  0  0  0  0
   -8.2893  -27.7618   23.3568 N   0  0  0  0  0  0  0  0  0  0  0  0
   -7.0094  -26.7047   23.8613 C   0  0  0  0  0  0  0  0  0  0  0  0
   -6.2385  -25.4744   22.8337 C   0  0  0  0  0  0  0  0  0  0  0  0
   -5.0228  -24.4579   23.1014 C   0  0  0  0  0  0  0  0  0  0  0  0
   -3.7932  -24.4076   22.4336 C   0  0  0  0  0  0  0  0  0  0  0  0
   -3.1966  -23.2026   22.7353 N   0  0  0  0  0  0  0  0  0  0  0  0
   -4.0508  -22.5401   23.5626 C   0  0  0  0  0  0  0  0  0  0  0  0
   -5.1617  -23.2301   23.7583 N   0  0  0  0  0  0  0  0  0  0  0  0
   -9.8826  -30.8066   22.7652 C   0  0  0  0  0  0  0  0  0  0  0  0
  -10.7041  -30.8988   21.5944 C   0  0  0  0  0  0  0  0  0  0  0  0
  -11.4310  -32.0463   21.1315 C   0  0  0  0  0  0  0  0  0  0  0  0
  -11.2975  -33.2891   21.7595 C   0  0  0  0  0  0  0  0  0  0  0  0
  -11.8357  -34.5043   21.3762 N   0  0  0  0  0  0  0  0  0  0  0  0
  -11.4095  -35.4486   22.1864 C   0  0  0  0  0  0  0  0  0  0  0  0
  -10.3891  -34.9449   23.4632 S   0  0  0  0  0  0  0  0  0  0  0  0
  -10.4929  -33.3284   22.8781 C   0  0  0  0  0  0  0  0  0  0  0  0
   -9.8462  -32.1579   23.3438 C   0  0  0  0  0  0  0  0  0  0  0  0
   -9.1847  -27.3658   23.0140 H   0  0  0  0  0  0  0  0  0  0  0  0
   -7.4332  -26.1827   24.7243 H   0  0  0  0  0  0  0  0  0  0  0  0
   -6.2191  -27.3873   24.1855 H   0  0  0  0  0  0  0  0  0  0  0  0
   -5.8912  -26.0512   21.9659 H   0  0  0  0  0  0  0  0  0  0  0  0
   -7.0649  -24.8192   22.5282 H   0  0  0  0  0  0  0  0  0  0  0  0
   -3.3290  -25.1037   21.7489 H   0  0  0  0  0  0  0  0  0  0  0  0
   -2.2867  -22.8867   22.4281 H   0  0  0  0  0  0  0  0  0  0  0  0
   -3.8236  -21.5785   23.9989 H   0  0  0  0  0  0  0  0  0  0  0  0
  -10.8263  -30.0739   20.9320 H   0  0  0  0  0  0  0  0  0  0  0  0
  -12.0224  -31.9740   20.2208 H   0  0  0  0  0  0  0  0  0  0  0  0
  -11.6929  -36.4858   22.0630 H   0  0  0  0  0  0  0  0  0  0  0  0
   -9.1816  -32.3485   24.1667 H   0  0  0  0  0  0  0  0  0  0  0  0
  1  2  2  0
  2  3  1  0
  3  4  1  0
  4  5  1  0
  5  6  1  0
  6  7  2  0
  7  8  1  0
  8  9  1  0
  9 10  2  0
  2 11  1  0
 11 12  2  0
 12 13  1  0
 13 14  2  0
 14 15  1  0
 15 16  2  0
 16 17  1  0
 17 18  1  0
 18 19  2  0
 10  6  1  0
 19 11  1  0
 18 14  1  0
  3 20  1  0
  4 21  1  0
  4 22  1  0
  5 23  1  0
  5 24  1  0
  7 25  1  0
  8 26  1  0
  9 27  1  0
 12 28  1  0
 13 29  1  0
 16 30  1  0
 19 31  1  0
M  END
>  <Energy>  (596) 
239.01701357516626

>  <compound_id>  (596) 
12518

>  <target_id>  (596) 
1

>  <reference_id>  (596) 
68

>  <inspiration_ids>  (596) 
[80, 68]

>  <energy_score>  (596) 
136.54940137897086

>  <distance_score>  (596) 
17.013496052651753

>  <path>  (596) 
/opt/xchem-fragalysis-2/maxwin/BulkDock/SCRATCH/511013/C12518-P68/C12518-P68.minimised.mol

>  <scratch_subdir>  (596) 
/opt/xchem-fragalysis-2/maxwin/BulkDock/SCRATCH/511013/C12518-P68

>  <fragmenstein_runtime>  (596) 
13.939932823181152

>  <fragmenstein_outcome>  (596) 
too moved

>  <fragmenstein_mode>  (596) 
expansion

>  <fragmenstein_error>  (596) 


$$$$
C12519-P80
     RDKit          3D

 41 43  0  0  0  0  0  0  0  0999 V2000
    6.4007  -16.4763   12.8215 C   0  0  0  0  0  0  0  0  0  0  0  0
    5.9438  -17.5218   13.6983 N   0  0  0  0  0  0  0  0  0  0  0  0
    6.6880  -18.1608   14.6381 C   0  0  0  0  0  0  0  0  0  0  0  0
    6.0195  -19.1749   15.1690 N   0  0  0  0  0  0  0  0  0  0  0  0
    4.7617  -19.2024   14.5627 C   0  0  0  0  0  0  0  0  0  0  0  0
    3.6565  -20.3055   14.7000 C   0  0  0  0  0  0  0  0  0  0  0  0
    3.3477  -21.3240   15.9279 C   0  0  0  0  0  0  0  0  0  0  0  0
    4.5650  -21.9596   16.3459 O   0  0  0  0  0  0  0  0  0  0  0  0
    2.2229  -22.5617   15.5445 C   0  0  0  0  0  0  0  0  0  0  0  0
    1.9405  -22.6523   14.3750 O   0  0  0  0  0  0  0  0  0  0  0  0
    1.8284  -23.4166   16.7073 N   0  0  0  0  0  0  0  0  0  0  0  0
    1.0236  -24.7390   16.7663 C   0  0  0  0  0  0  0  0  0  0  0  0
   -0.1049  -24.9670   17.9007 C   0  0  0  0  0  0  0  0  0  0  0  0
   -0.7298  -26.3406   18.3583 C   0  0  0  0  0  0  0  0  0  0  0  0
   -0.5150  -26.7752   19.6843 C   0  0  0  0  0  0  0  0  0  0  0  0
   -1.1643  -27.8971   20.2562 C   0  0  0  0  0  0  0  0  0  0  0  0
   -2.0841  -28.6451   19.5025 C   0  0  0  0  0  0  0  0  0  0  0  0
   -2.7939  -29.7570   19.9446 N   0  0  0  0  0  0  0  0  0  0  0  0
   -3.5779  -30.1836   18.9832 C   0  0  0  0  0  0  0  0  0  0  0  0
   -3.4982  -29.3151   17.5046 S   0  0  0  0  0  0  0  0  0  0  0  0
   -2.3184  -28.2375   18.1843 C   0  0  0  0  0  0  0  0  0  0  0  0
   -1.6544  -27.1003   17.6016 C   0  0  0  0  0  0  0  0  0  0  0  0
    4.7365  -18.1564   13.6418 C   0  0  0  0  0  0  0  0  0  0  0  0
    7.0009  -16.9308   12.0293 H   0  0  0  0  0  0  0  0  0  0  0  0
    5.5395  -15.9594   12.3911 H   0  0  0  0  0  0  0  0  0  0  0  0
    7.0043  -15.7706   13.3975 H   0  0  0  0  0  0  0  0  0  0  0  0
    7.7051  -17.8838   14.8840 H   0  0  0  0  0  0  0  0  0  0  0  0
    2.6978  -19.8189   14.4778 H   0  0  0  0  0  0  0  0  0  0  0  0
    3.8556  -20.9586   13.8370 H   0  0  0  0  0  0  0  0  0  0  0  0
    2.9342  -20.7662   16.7739 H   0  0  0  0  0  0  0  0  0  0  0  0
    4.9949  -22.2629   15.5269 H   0  0  0  0  0  0  0  0  0  0  0  0
    2.3238  -23.0919   17.5483 H   0  0  0  0  0  0  0  0  0  0  0  0
    0.5716  -24.8766   15.7784 H   0  0  0  0  0  0  0  0  0  0  0  0
    1.7853  -25.5162   16.8922 H   0  0  0  0  0  0  0  0  0  0  0  0
    0.3310  -24.5166   18.8013 H   0  0  0  0  0  0  0  0  0  0  0  0
   -0.9518  -24.3252   17.6310 H   0  0  0  0  0  0  0  0  0  0  0  0
    0.1586  -26.2077   20.3278 H   0  0  0  0  0  0  0  0  0  0  0  0
   -0.9671  -28.1744   21.2874 H   0  0  0  0  0  0  0  0  0  0  0  0
   -4.2380  -31.0319   19.1099 H   0  0  0  0  0  0  0  0  0  0  0  0
   -1.8986  -26.8097   16.5830 H   0  0  0  0  0  0  0  0  0  0  0  0
    3.9637  -17.8748   12.9369 H   0  0  0  0  0  0  0  0  0  0  0  0
  1  2  1  0
  2  3  1  0
  3  4  2  0
  4  5  1  0
  5  6  1  0
  6  7  1  0
  7  8  1  0
  7  9  1  0
  9 10  2  0
  9 11  1  0
 11 12  1  0
 12 13  1  0
 13 14  1  0
 14 15  2  0
 15 16  1  0
 16 17  2  0
 17 18  1  0
 18 19  2  0
 19 20  1  0
 20 21  1  0
 21 22  2  0
  5 23  2  0
 23  2  1  0
 22 14  1  0
 21 17  1  0
  1 24  1  0
  1 25  1  0
  1 26  1  0
  3 27  1  0
  6 28  1  0
  6 29  1  0
  7 30  1  0
  8 31  1  0
 11 32  1  0
 12 33  1  0
 12 34  1  0
 13 35  1  0
 13 36  1  0
 15 37  1  0
 16 38  1  0
 19 39  1  0
 22 40  1  0
 23 41  1  0
M  END
>  <Energy>  (597) 
104.10664758661747

>  <compound_id>  (597) 
12519

>  <target_id>  (597) 
1

>  <reference_id>  (597) 
80

>  <inspiration_ids>  (597) 
[80, 68]

>  <energy_score>  (597) 
-19.67439292624806

>  <distance_score>  (597) 
14.80186413711731

>  <path>  (597) 
/opt/xchem-fragalysis-2/maxwin/BulkDock/SCRATCH/511013/C12519-P80/C12519-P80.minimised.mol

>  <scratch_subdir>  (597) 
/opt/xchem-fragalysis-2/maxwin/BulkDock/SCRATCH/511013/C12519-P80

>  <fragmenstein_runtime>  (597) 
17.171961307525635

>  <fragmenstein_outcome>  (597) 
too moved

>  <fragmenstein_mode>  (597) 
expansion

>  <fragmenstein_error>  (597) 


$$$$
C12519-P68
     RDKit          3D

 41 43  0  0  0  0  0  0  0  0999 V2000
    4.0902  -13.7409   18.4561 C   0  0  0  0  0  0  0  0  0  0  0  0
    3.1942  -14.8529   18.2697 N   0  0  0  0  0  0  0  0  0  0  0  0
    3.1360  -15.8716   17.3861 C   0  0  0  0  0  0  0  0  0  0  0  0
    2.2024  -16.7505   17.7212 N   0  0  0  0  0  0  0  0  0  0  0  0
    1.6815  -16.4019   18.9670 C   0  0  0  0  0  0  0  0  0  0  0  0
    1.0949  -17.6539   20.2406 C   0  0  0  0  0  0  0  0  0  0  0  0
    0.7248  -19.6114   20.8036 C   0  0  0  0  0  0  0  0  0  0  0  0
    1.2458  -20.3350   19.4545 O   0  0  0  0  0  0  0  0  0  0  0  0
   -0.1426  -21.1771   21.2035 C   0  0  0  0  0  0  0  0  0  0  0  0
    0.2885  -22.0753   20.5195 O   0  0  0  0  0  0  0  0  0  0  0  0
   -1.1042  -21.1982   22.2893 N   0  0  0  0  0  0  0  0  0  0  0  0
   -1.8670  -22.4652   23.0583 C   0  0  0  0  0  0  0  0  0  0  0  0
   -3.2134  -24.4327   22.8802 C   0  0  0  0  0  0  0  0  0  0  0  0
   -3.3375  -25.9410   23.8025 C   0  0  0  0  0  0  0  0  0  0  0  0
   -4.3498  -26.0851   24.7607 C   0  0  0  0  0  0  0  0  0  0  0  0
   -4.5352  -27.3131   25.4172 C   0  0  0  0  0  0  0  0  0  0  0  0
   -3.7194  -28.4266   25.1109 C   0  0  0  0  0  0  0  0  0  0  0  0
   -3.7800  -29.6817   25.7127 N   0  0  0  0  0  0  0  0  0  0  0  0
   -2.8497  -30.4546   25.2016 C   0  0  0  0  0  0  0  0  0  0  0  0
   -1.8702  -29.7613   23.9785 S   0  0  0  0  0  0  0  0  0  0  0  0
   -2.7401  -28.2767   24.1252 C   0  0  0  0  0  0  0  0  0  0  0  0
   -2.5486  -27.0561   23.4367 C   0  0  0  0  0  0  0  0  0  0  0  0
    2.4036  -15.2778   19.2824 C   0  0  0  0  0  0  0  0  0  0  0  0
    4.4047  -13.6249   19.4954 H   0  0  0  0  0  0  0  0  0  0  0  0
    4.9351  -13.8625   17.8447 H   0  0  0  0  0  0  0  0  0  0  0  0
    3.6909  -12.7813   18.1315 H   0  0  0  0  0  0  0  0  0  0  0  0
    3.7810  -16.0119   16.5372 H   0  0  0  0  0  0  0  0  0  0  0  0
    0.5269  -16.8878   20.8122 H   0  0  0  0  0  0  0  0  0  0  0  0
    1.1052  -18.0309   19.1640 H   0  0  0  0  0  0  0  0  0  0  0  0
    1.5208  -19.8586   21.5313 H   0  0  0  0  0  0  0  0  0  0  0  0
    1.4629  -21.2622   19.7012 H   0  0  0  0  0  0  0  0  0  0  0  0
   -1.1662  -20.2730   22.6911 H   0  0  0  0  0  0  0  0  0  0  0  0
   -1.4852  -21.9947   24.0547 H   0  0  0  0  0  0  0  0  0  0  0  0
   -2.7045  -24.0162   23.0389 H   0  0  0  0  0  0  0  0  0  0  0  0
   -4.4190  -24.3329   22.8470 H   0  0  0  0  0  0  0  0  0  0  0  0
   -3.2079  -25.0738   21.8436 H   0  0  0  0  0  0  0  0  0  0  0  0
   -5.0024  -25.2504   25.0006 H   0  0  0  0  0  0  0  0  0  0  0  0
   -5.3001  -27.3975   26.1814 H   0  0  0  0  0  0  0  0  0  0  0  0
   -2.7038  -31.4755   25.5279 H   0  0  0  0  0  0  0  0  0  0  0  0
   -1.7968  -26.9762   22.6570 H   0  0  0  0  0  0  0  0  0  0  0  0
    2.4977  -14.7815   20.2150 H   0  0  0  0  0  0  0  0  0  0  0  0
  1  2  1  0
  2  3  1  0
  3  4  2  0
  4  5  1  0
  5  6  1  0
  6  7  1  0
  7  8  1  0
  7  9  1  0
  9 10  2  0
  9 11  1  0
 11 12  1  0
 12 13  1  0
 13 14  1  0
 14 15  2  0
 15 16  1  0
 16 17  2  0
 17 18  1  0
 18 19  2  0
 19 20  1  0
 20 21  1  0
 21 22  2  0
  5 23  2  0
 23  2  1  0
 22 14  1  0
 21 17  1  0
  1 24  1  0
  1 25  1  0
  1 26  1  0
  3 27  1  0
  6 28  1  0
  6 29  1  0
  7 30  1  0
  8 31  1  0
 11 32  1  0
 12 33  1  0
 12 34  1  0
 13 35  1  0
 13 36  1  0
 15 37  1  0
 16 38  1  0
 19 39  1  0
 22 40  1  0
 23 41  1  0
M  END
>  <Energy>  (598) 
1083.582555775429

>  <compound_id>  (598) 
12519

>  <target_id>  (598) 
1

>  <reference_id>  (598) 
68

>  <inspiration_ids>  (598) 
[80, 68]

>  <energy_score>  (598) 
959.8015152625483

>  <distance_score>  (598) 
13.361354309171773

>  <path>  (598) 
/opt/xchem-fragalysis-2/maxwin/BulkDock/SCRATCH/511013/C12519-P68/C12519-P68.minimised.mol

>  <scratch_subdir>  (598) 
/opt/xchem-fragalysis-2/maxwin/BulkDock/SCRATCH/511013/C12519-P68

>  <fragmenstein_runtime>  (598) 
25.682368516921997

>  <fragmenstein_outcome>  (598) 
too moved

>  <fragmenstein_mode>  (598) 
expansion

>  <fragmenstein_error>  (598) 


$$$$
C12520-P80
     RDKit          3D

 37 39  0  0  0  0  0  0  0  0999 V2000
    2.2252  -22.1270   16.0123 C   0  0  0  0  0  0  0  0  0  0  0  0
    2.1020  -23.3671   16.7876 N   0  0  0  0  0  0  0  0  0  0  0  0
    3.6456  -23.5397   16.2906 C   0  0  0  0  0  0  0  0  0  0  0  0
    4.7770  -22.3288   16.0943 C   0  0  0  0  0  0  0  0  0  0  0  0
    6.0546  -22.1941   16.6236 C   0  0  0  0  0  0  0  0  0  0  0  0
    6.6544  -21.1263   15.9829 N   0  0  0  0  0  0  0  0  0  0  0  0
    5.7672  -20.6393   15.0741 C   0  0  0  0  0  0  0  0  0  0  0  0
    4.6499  -21.3279   15.1136 N   0  0  0  0  0  0  0  0  0  0  0  0
    1.3332  -24.5915   16.5214 C   0  0  0  0  0  0  0  0  0  0  0  0
    0.6826  -24.9145   15.5509 O   0  0  0  0  0  0  0  0  0  0  0  0
    1.2217  -25.6504   17.7415 C   0  0  0  0  0  0  0  0  0  0  0  0
   -0.2332  -26.4368   17.7281 C   0  0  0  0  0  0  0  0  0  0  0  0
   -0.7756  -27.4976   18.7344 C   0  0  0  0  0  0  0  0  0  0  0  0
   -0.3678  -27.6014   20.0639 C   0  0  0  0  0  0  0  0  0  0  0  0
   -0.9505  -28.5432   20.9559 C   0  0  0  0  0  0  0  0  0  0  0  0
   -1.9782  -29.4189   20.5390 C   0  0  0  0  0  0  0  0  0  0  0  0
   -2.6101  -30.3865   21.3131 N   0  0  0  0  0  0  0  0  0  0  0  0
   -3.5305  -30.9913   20.5955 C   0  0  0  0  0  0  0  0  0  0  0  0
   -3.6753  -30.4735   18.9652 S   0  0  0  0  0  0  0  0  0  0  0  0
   -2.4129  -29.3137   19.2174 C   0  0  0  0  0  0  0  0  0  0  0  0
   -1.8344  -28.3657   18.3221 C   0  0  0  0  0  0  0  0  0  0  0  0
    1.2213  -21.7127   16.0189 H   0  0  0  0  0  0  0  0  0  0  0  0
    2.7441  -21.3392   16.5717 H   0  0  0  0  0  0  0  0  0  0  0  0
    2.4249  -22.2431   14.9380 H   0  0  0  0  0  0  0  0  0  0  0  0
    4.0812  -24.2423   17.0138 H   0  0  0  0  0  0  0  0  0  0  0  0
    3.6162  -24.0840   15.3322 H   0  0  0  0  0  0  0  0  0  0  0  0
    6.6049  -22.7828   17.3408 H   0  0  0  0  0  0  0  0  0  0  0  0
    7.6061  -20.8130   16.1137 H   0  0  0  0  0  0  0  0  0  0  0  0
    5.9793  -19.8165   14.4034 H   0  0  0  0  0  0  0  0  0  0  0  0
    1.3142  -25.1155   18.6902 H   0  0  0  0  0  0  0  0  0  0  0  0
    2.0307  -26.3802   17.6463 H   0  0  0  0  0  0  0  0  0  0  0  0
   -0.9929  -25.6425   17.7073 H   0  0  0  0  0  0  0  0  0  0  0  0
   -0.2745  -26.9232   16.7434 H   0  0  0  0  0  0  0  0  0  0  0  0
    0.4160  -26.9497   20.4432 H   0  0  0  0  0  0  0  0  0  0  0  0
   -0.6045  -28.6000   21.9840 H   0  0  0  0  0  0  0  0  0  0  0  0
   -4.1625  -31.7696   21.0053 H   0  0  0  0  0  0  0  0  0  0  0  0
   -2.2136  -28.3044   17.3034 H   0  0  0  0  0  0  0  0  0  0  0  0
  1  2  1  0
  2  3  1  0
  3  4  1  0
  4  5  2  0
  5  6  1  0
  6  7  1  0
  7  8  2  0
  2  9  1  0
  9 10  2  0
  9 11  1  0
 11 12  1  0
 12 13  1  0
 13 14  2  0
 14 15  1  0
 15 16  2  0
 16 17  1  0
 17 18  2  0
 18 19  1  0
 19 20  1  0
 20 21  2  0
  8  4  1  0
 21 13  1  0
 20 16  1  0
  1 22  1  0
  1 23  1  0
  1 24  1  0
  3 25  1  0
  3 26  1  0
  5 27  1  0
  6 28  1  0
  7 29  1  0
 11 30  1  0
 11 31  1  0
 12 32  1  0
 12 33  1  0
 14 34  1  0
 15 35  1  0
 18 36  1  0
 21 37  1  0
M  END
>  <Energy>  (599) 
132.15466505512123

>  <compound_id>  (599) 
12520

>  <target_id>  (599) 
1

>  <reference_id>  (599) 
80

>  <inspiration_ids>  (599) 
[80, 68]

>  <energy_score>  (599) 
36.72940360464406

>  <distance_score>  (599) 
15.49536361488031

>  <path>  (599) 
/opt/xchem-fragalysis-2/maxwin/BulkDock/SCRATCH/511013/C12520-P80/C12520-P80.minimised.mol

>  <scratch_subdir>  (599) 
/opt/xchem-fragalysis-2/maxwin/BulkDock/SCRATCH/511013/C12520-P80

>  <fragmenstein_runtime>  (599) 
12.93327784538269

>  <fragmenstein_outcome>  (599) 
too moved

>  <fragmenstein_mode>  (599) 
expansion

>  <fragmenstein_error>  (599) 


$$$$
C12520-P68
     RDKit          3D

 37 39  0  0  0  0  0  0  0  0999 V2000
    3.4376  -16.6757   16.5134 C   0  0  0  0  0  0  0  0  0  0  0  0
    3.4904  -17.9970   15.9873 N   0  0  0  0  0  0  0  0  0  0  0  0
    5.1885  -17.4775   15.9489 C   0  0  0  0  0  0  0  0  0  0  0  0
    5.8774  -15.6959   15.8130 C   0  0  0  0  0  0  0  0  0  0  0  0
    7.7500  -15.3967   16.5036 C   0  0  0  0  0  0  0  0  0  0  0  0
    8.1503  -14.4796   18.4081 N   0  0  0  0  0  0  0  0  0  0  0  0
    6.2723  -13.6382   18.8142 C   0  0  0  0  0  0  0  0  0  0  0  0
    5.1969  -14.5325   17.4673 N   0  0  0  0  0  0  0  0  0  0  0  0
    3.1712  -19.3371   16.6445 C   0  0  0  0  0  0  0  0  0  0  0  0
    2.8952  -19.5306   17.7836 O   0  0  0  0  0  0  0  0  0  0  0  0
    3.0746  -20.7230   15.8251 C   0  0  0  0  0  0  0  0  0  0  0  0
    2.3225  -21.9031   17.0105 C   0  0  0  0  0  0  0  0  0  0  0  0
    2.1810  -23.4637   17.2658 C   0  0  0  0  0  0  0  0  0  0  0  0
    3.0576  -24.4285   16.7762 C   0  0  0  0  0  0  0  0  0  0  0  0
    2.9408  -25.8181   17.1169 C   0  0  0  0  0  0  0  0  0  0  0  0
    1.9236  -26.3132   17.9680 C   0  0  0  0  0  0  0  0  0  0  0  0
    1.6818  -27.6514   18.3005 N   0  0  0  0  0  0  0  0  0  0  0  0
    0.6225  -27.7312   19.0695 C   0  0  0  0  0  0  0  0  0  0  0  0
   -0.1019  -26.2421   19.4806 S   0  0  0  0  0  0  0  0  0  0  0  0
    1.0573  -25.3682   18.5206 C   0  0  0  0  0  0  0  0  0  0  0  0
    1.2035  -23.9585   18.2130 C   0  0  0  0  0  0  0  0  0  0  0  0
    3.5501  -15.9262   15.8138 H   0  0  0  0  0  0  0  0  0  0  0  0
    3.9660  -16.5613   17.4680 H   0  0  0  0  0  0  0  0  0  0  0  0
    2.4317  -16.5432   16.8997 H   0  0  0  0  0  0  0  0  0  0  0  0
    5.8421  -18.0790   16.5714 H   0  0  0  0  0  0  0  0  0  0  0  0
    5.4357  -17.7931   14.9209 H   0  0  0  0  0  0  0  0  0  0  0  0
    8.7235  -15.7551   16.1158 H   0  0  0  0  0  0  0  0  0  0  0  0
    9.0149  -13.9182   18.4417 H   0  0  0  0  0  0  0  0  0  0  0  0
    6.0841  -13.5697   19.8917 H   0  0  0  0  0  0  0  0  0  0  0  0
    4.0733  -21.0949   15.5893 H   0  0  0  0  0  0  0  0  0  0  0  0
    2.4215  -20.6455   14.9562 H   0  0  0  0  0  0  0  0  0  0  0  0
    2.8665  -21.6631   17.9311 H   0  0  0  0  0  0  0  0  0  0  0  0
    1.3123  -21.4973   17.1337 H   0  0  0  0  0  0  0  0  0  0  0  0
    3.8641  -24.1253   16.1116 H   0  0  0  0  0  0  0  0  0  0  0  0
    3.6434  -26.5255   16.6846 H   0  0  0  0  0  0  0  0  0  0  0  0
    0.2374  -28.6768   19.4286 H   0  0  0  0  0  0  0  0  0  0  0  0
    0.5361  -23.2378   18.6805 H   0  0  0  0  0  0  0  0  0  0  0  0
  1  2  1  0
  2  3  1  0
  3  4  1  0
  4  5  2  0
  5  6  1  0
  6  7  1  0
  7  8  2  0
  2  9  1  0
  9 10  2  0
  9 11  1  0
 11 12  1  0
 12 13  1  0
 13 14  2  0
 14 15  1  0
 15 16  2  0
 16 17  1  0
 17 18  2  0
 18 19  1  0
 19 20  1  0
 20 21  2  0
  8  4  1  0
 21 13  1  0
 20 16  1  0
  1 22  1  0
  1 23  1  0
  1 24  1  0
  3 25  1  0
  3 26  1  0
  5 27  1  0
  6 28  1  0
  7 29  1  0
 11 30  1  0
 11 31  1  0
 12 32  1  0
 12 33  1  0
 14 34  1  0
 15 35  1  0
 18 36  1  0
 21 37  1  0
M  END
>  <Energy>  (600) 
1138.331949712014

>  <compound_id>  (600) 
12520

>  <target_id>  (600) 
1

>  <reference_id>  (600) 
68

>  <inspiration_ids>  (600) 
[80, 68]

>  <energy_score>  (600) 
1042.9066882615443

>  <distance_score>  (600) 
16.344216399540606

>  <path>  (600) 
/opt/xchem-fragalysis-2/maxwin/BulkDock/SCRATCH/511013/C12520-P68/C12520-P68.minimised.mol

>  <scratch_subdir>  (600) 
/opt/xchem-fragalysis-2/maxwin/BulkDock/SCRATCH/511013/C12520-P68

>  <fragmenstein_runtime>  (600) 
13.208327770233154

>  <fragmenstein_outcome>  (600) 
too moved

>  <fragmenstein_mode>  (600) 
expansion

>  <fragmenstein_error>  (600) 


$$$$
C12521-P80
     RDKit          3D

 34 37  0  0  0  0  0  0  0  0999 V2000
    1.2468  -17.6272    9.6543 O   0  0  0  0  0  0  0  0  0  0  0  0
    1.6045  -17.8515   10.8027 C   0  0  0  0  0  0  0  0  0  0  0  0
    2.6971  -17.2646   11.3777 O   0  0  0  0  0  0  0  0  0  0  0  0
    0.9385  -18.7226   11.7501 C   0  0  0  0  0  0  0  0  0  0  0  0
   -0.2501  -19.3767   11.6636 C   0  0  0  0  0  0  0  0  0  0  0  0
   -0.8563  -19.8360   13.1687 N   0  0  0  0  0  0  0  0  0  0  0  0
   -2.6597  -20.4902   13.6838 C   0  0  0  0  0  0  0  0  0  0  0  0
   -3.3049  -22.0093   14.1869 C   0  0  0  0  0  0  0  0  0  0  0  0
   -4.0575  -23.2055   13.8419 C   0  0  0  0  0  0  0  0  0  0  0  0
   -5.3342  -22.9692   13.4712 C   0  0  0  0  0  0  0  0  0  0  0  0
   -6.3131  -24.0539   14.0156 C   0  0  0  0  0  0  0  0  0  0  0  0
   -7.2593  -23.7844   15.0216 C   0  0  0  0  0  0  0  0  0  0  0  0
   -7.7996  -24.7995   15.8820 C   0  0  0  0  0  0  0  0  0  0  0  0
   -7.3792  -26.1480   15.7936 C   0  0  0  0  0  0  0  0  0  0  0  0
   -7.7343  -27.2111   16.6286 N   0  0  0  0  0  0  0  0  0  0  0  0
   -7.0695  -28.2894   16.2750 C   0  0  0  0  0  0  0  0  0  0  0  0
   -6.0790  -28.1388   14.8839 S   0  0  0  0  0  0  0  0  0  0  0  0
   -6.4809  -26.4545   14.7719 C   0  0  0  0  0  0  0  0  0  0  0  0
   -5.9925  -25.4486   13.8725 C   0  0  0  0  0  0  0  0  0  0  0  0
   -5.3635  -21.6390   12.8956 C   0  0  0  0  0  0  0  0  0  0  0  0
   -4.0975  -20.5191   12.8441 C   0  0  0  0  0  0  0  0  0  0  0  0
    0.7215  -19.7611   13.5965 C   0  0  0  0  0  0  0  0  0  0  0  0
    1.5645  -19.0579   12.8821 N   0  0  0  0  0  0  0  0  0  0  0  0
    2.6897  -17.6025   12.3160 H   0  0  0  0  0  0  0  0  0  0  0  0
   -0.9006  -19.4871   10.8074 H   0  0  0  0  0  0  0  0  0  0  0  0
   -3.8363  -21.9428   15.1544 H   0  0  0  0  0  0  0  0  0  0  0  0
   -3.8178  -24.1004   14.4240 H   0  0  0  0  0  0  0  0  0  0  0  0
   -7.5403  -22.7510   15.2252 H   0  0  0  0  0  0  0  0  0  0  0  0
   -8.4977  -24.5197   16.6675 H   0  0  0  0  0  0  0  0  0  0  0  0
   -7.1426  -29.2249   16.8143 H   0  0  0  0  0  0  0  0  0  0  0  0
   -5.2465  -25.7449   13.1342 H   0  0  0  0  0  0  0  0  0  0  0  0
   -6.3041  -21.2585   12.4859 H   0  0  0  0  0  0  0  0  0  0  0  0
   -4.4874  -19.5938   12.3975 H   0  0  0  0  0  0  0  0  0  0  0  0
    1.0943  -20.4063   14.3869 H   0  0  0  0  0  0  0  0  0  0  0  0
  1  2  2  0
  2  3  1  0
  2  4  1  0
  4  5  2  0
  5  6  1  0
  6  7  1  0
  7  8  2  0
  8  9  1  0
  9 10  2  0
 10 11  1  0
 11 12  2  0
 12 13  1  0
 13 14  2  0
 14 15  1  0
 15 16  2  0
 16 17  1  0
 17 18  1  0
 18 19  2  0
 10 20  1  0
 20 21  2  0
  6 22  1  0
 22 23  2  0
 23  4  1  0
 21  7  1  0
 19 11  1  0
 18 14  1  0
  3 24  1  0
  5 25  1  0
  8 26  1  0
  9 27  1  0
 12 28  1  0
 13 29  1  0
 16 30  1  0
 19 31  1  0
 20 32  1  0
 21 33  1  0
 22 34  1  0
M  END
>  <Energy>  (601) 
513.64240379134537

>  <compound_id>  (601) 
12521

>  <target_id>  (601) 
1

>  <reference_id>  (601) 
80

>  <inspiration_ids>  (601) 
[80, 68]

>  <energy_score>  (601) 
351.58613128549916

>  <distance_score>  (601) 
16.734293801423547

>  <path>  (601) 
/opt/xchem-fragalysis-2/maxwin/BulkDock/SCRATCH/511013/C12521-P80/C12521-P80.minimised.mol

>  <scratch_subdir>  (601) 
/opt/xchem-fragalysis-2/maxwin/BulkDock/SCRATCH/511013/C12521-P80

>  <fragmenstein_runtime>  (601) 
9.171643733978271

>  <fragmenstein_outcome>  (601) 
too moved

>  <fragmenstein_mode>  (601) 
expansion

>  <fragmenstein_error>  (601) 


$$$$
C12521-P68
     RDKit          3D

 34 37  0  0  0  0  0  0  0  0999 V2000
    4.7720  -22.8224   22.4234 O   0  0  0  0  0  0  0  0  0  0  0  0
    3.9745  -21.8887   22.4373 C   0  0  0  0  0  0  0  0  0  0  0  0
    4.3620  -20.7057   22.9766 O   0  0  0  0  0  0  0  0  0  0  0  0
    2.5860  -21.9647   22.0002 C   0  0  0  0  0  0  0  0  0  0  0  0
    1.9006  -23.1375   21.7688 C   0  0  0  0  0  0  0  0  0  0  0  0
    0.5608  -22.8124   21.6982 N   0  0  0  0  0  0  0  0  0  0  0  0
   -0.5527  -23.7502   21.8115 C   0  0  0  0  0  0  0  0  0  0  0  0
   -0.3493  -25.1464   21.8574 C   0  0  0  0  0  0  0  0  0  0  0  0
   -1.4124  -26.0704   22.1122 C   0  0  0  0  0  0  0  0  0  0  0  0
   -2.7256  -25.6457   22.3343 C   0  0  0  0  0  0  0  0  0  0  0  0
   -3.8300  -26.5522   22.7737 C   0  0  0  0  0  0  0  0  0  0  0  0
   -3.6455  -27.5291   23.7723 C   0  0  0  0  0  0  0  0  0  0  0  0
   -4.7292  -28.1391   24.4356 C   0  0  0  0  0  0  0  0  0  0  0  0
   -6.0339  -27.7127   24.1340 C   0  0  0  0  0  0  0  0  0  0  0  0
   -7.1862  -28.0024   24.8457 N   0  0  0  0  0  0  0  0  0  0  0  0
   -8.1637  -27.2624   24.3721 C   0  0  0  0  0  0  0  0  0  0  0  0
   -7.8694  -26.4465   22.9040 S   0  0  0  0  0  0  0  0  0  0  0  0
   -6.2086  -26.8391   23.0619 C   0  0  0  0  0  0  0  0  0  0  0  0
   -5.1380  -26.3184   22.3235 C   0  0  0  0  0  0  0  0  0  0  0  0
   -2.9269  -24.2494   22.2319 C   0  0  0  0  0  0  0  0  0  0  0  0
   -1.8723  -23.3189   21.9785 C   0  0  0  0  0  0  0  0  0  0  0  0
    0.5469  -21.4286   21.6356 C   0  0  0  0  0  0  0  0  0  0  0  0
    1.7441  -20.9009   21.7748 N   0  0  0  0  0  0  0  0  0  0  0  0
    5.3051  -20.8727   23.1527 H   0  0  0  0  0  0  0  0  0  0  0  0
    2.2526  -24.1559   21.8203 H   0  0  0  0  0  0  0  0  0  0  0  0
    0.6414  -25.5749   21.7224 H   0  0  0  0  0  0  0  0  0  0  0  0
   -1.1672  -27.1306   22.1587 H   0  0  0  0  0  0  0  0  0  0  0  0
   -2.6417  -27.7604   24.1260 H   0  0  0  0  0  0  0  0  0  0  0  0
   -4.5599  -28.8339   25.2512 H   0  0  0  0  0  0  0  0  0  0  0  0
   -9.1353  -27.2113   24.8458 H   0  0  0  0  0  0  0  0  0  0  0  0
   -5.3337  -25.6005   21.5310 H   0  0  0  0  0  0  0  0  0  0  0  0
   -3.9154  -23.8290   22.4221 H   0  0  0  0  0  0  0  0  0  0  0  0
   -2.1294  -22.2627   21.9888 H   0  0  0  0  0  0  0  0  0  0  0  0
   -0.3628  -20.8607   21.5452 H   0  0  0  0  0  0  0  0  0  0  0  0
  1  2  2  0
  2  3  1  0
  2  4  1  0
  4  5  2  0
  5  6  1  0
  6  7  1  0
  7  8  2  0
  8  9  1  0
  9 10  2  0
 10 11  1  0
 11 12  2  0
 12 13  1  0
 13 14  2  0
 14 15  1  0
 15 16  2  0
 16 17  1  0
 17 18  1  0
 18 19  2  0
 10 20  1  0
 20 21  2  0
  6 22  1  0
 22 23  2  0
 23  4  1  0
 21  7  1  0
 19 11  1  0
 18 14  1  0
  3 24  1  0
  5 25  1  0
  8 26  1  0
  9 27  1  0
 12 28  1  0
 13 29  1  0
 16 30  1  0
 19 31  1  0
 20 32  1  0
 21 33  1  0
 22 34  1  0
M  END
>  <Energy>  (602) 
88.401843421341937

>  <compound_id>  (602) 
12521

>  <target_id>  (602) 
1

>  <reference_id>  (602) 
68

>  <inspiration_ids>  (602) 
[80, 68]

>  <energy_score>  (602) 
-73.65442908449654

>  <distance_score>  (602) 
16.11141067663134

>  <path>  (602) 
/opt/xchem-fragalysis-2/maxwin/BulkDock/SCRATCH/511013/C12521-P68/C12521-P68.minimised.mol

>  <scratch_subdir>  (602) 
/opt/xchem-fragalysis-2/maxwin/BulkDock/SCRATCH/511013/C12521-P68

>  <fragmenstein_runtime>  (602) 
12.365710735321045

>  <fragmenstein_outcome>  (602) 
too moved

>  <fragmenstein_mode>  (602) 
expansion

>  <fragmenstein_error>  (602) 


$$$$
C12522-P80
     RDKit          3D

 37 39  0  0  0  0  0  0  0  0999 V2000
    0.9259  -25.6781   18.3989 O   0  0  0  0  0  0  0  0  0  0  0  0
    0.0195  -25.0585   18.8855 C   0  0  0  0  0  0  0  0  0  0  0  0
    0.1271  -23.4851   18.9369 C   0  0  0  0  0  0  0  0  0  0  0  0
    1.2937  -22.7982   18.2913 N   0  0  0  0  0  0  0  0  0  0  0  0
    2.5350  -22.5726   18.8432 C   0  0  0  0  0  0  0  0  0  0  0  0
    3.2931  -21.8044   18.0884 N   0  0  0  0  0  0  0  0  0  0  0  0
    2.4903  -21.4104   17.0388 C   0  0  0  0  0  0  0  0  0  0  0  0
    2.9152  -20.4403   16.0360 C   0  0  0  0  0  0  0  0  0  0  0  0
    3.9979  -20.4157   15.4614 O   0  0  0  0  0  0  0  0  0  0  0  0
    2.0027  -19.4649   15.8169 O   0  0  0  0  0  0  0  0  0  0  0  0
    1.2560  -22.0285   17.1459 C   0  0  0  0  0  0  0  0  0  0  0  0
   -1.2505  -25.5283   19.5073 N   0  0  0  0  0  0  0  0  0  0  0  0
   -1.7450  -26.9211   19.8079 C   0  0  0  0  0  0  0  0  0  0  0  0
   -3.2920  -27.0957   20.0852 C   0  0  0  0  0  0  0  0  0  0  0  0
   -3.8597  -28.4447   20.5823 C   0  0  0  0  0  0  0  0  0  0  0  0
   -4.4598  -28.5350   21.8515 C   0  0  0  0  0  0  0  0  0  0  0  0
   -5.1128  -29.7043   22.2985 C   0  0  0  0  0  0  0  0  0  0  0  0
   -5.1809  -30.8366   21.4672 C   0  0  0  0  0  0  0  0  0  0  0  0
   -5.8062  -32.0361   21.7676 N   0  0  0  0  0  0  0  0  0  0  0  0
   -5.6324  -32.8807   20.7812 C   0  0  0  0  0  0  0  0  0  0  0  0
   -4.7780  -32.2893   19.4197 S   0  0  0  0  0  0  0  0  0  0  0  0
   -4.5687  -30.7651   20.2134 C   0  0  0  0  0  0  0  0  0  0  0  0
   -3.9125  -29.5870   19.7567 C   0  0  0  0  0  0  0  0  0  0  0  0
    0.1570  -23.1815   19.9895 H   0  0  0  0  0  0  0  0  0  0  0  0
   -0.7678  -23.0629   18.4662 H   0  0  0  0  0  0  0  0  0  0  0  0
    2.8323  -23.0080   19.7881 H   0  0  0  0  0  0  0  0  0  0  0  0
    2.3848  -18.8657   15.1324 H   0  0  0  0  0  0  0  0  0  0  0  0
    0.3791  -21.9967   16.5184 H   0  0  0  0  0  0  0  0  0  0  0  0
   -1.7484  -24.7324   19.8899 H   0  0  0  0  0  0  0  0  0  0  0  0
   -1.1835  -27.2488   20.6898 H   0  0  0  0  0  0  0  0  0  0  0  0
   -1.4336  -27.5590   18.9739 H   0  0  0  0  0  0  0  0  0  0  0  0
   -3.8330  -26.8325   19.1665 H   0  0  0  0  0  0  0  0  0  0  0  0
   -3.5750  -26.3213   20.8110 H   0  0  0  0  0  0  0  0  0  0  0  0
   -4.4538  -27.6743   22.5182 H   0  0  0  0  0  0  0  0  0  0  0  0
   -5.5826  -29.7420   23.2774 H   0  0  0  0  0  0  0  0  0  0  0  0
   -6.0132  -33.8918   20.8202 H   0  0  0  0  0  0  0  0  0  0  0  0
   -3.4791  -29.5690   18.7601 H   0  0  0  0  0  0  0  0  0  0  0  0
  1  2  2  0
  2  3  1  0
  3  4  1  0
  4  5  1  0
  5  6  2  0
  6  7  1  0
  7  8  1  0
  8  9  2  0
  8 10  1  0
  7 11  2  0
  2 12  1  0
 12 13  1  0
 13 14  1  0
 14 15  1  0
 15 16  2  0
 16 17  1  0
 17 18  2  0
 18 19  1  0
 19 20  2  0
 20 21  1  0
 21 22  1  0
 22 23  2  0
 11  4  1  0
 23 15  1  0
 22 18  1  0
  3 24  1  0
  3 25  1  0
  5 26  1  0
 10 27  1  0
 11 28  1  0
 12 29  1  0
 13 30  1  0
 13 31  1  0
 14 32  1  0
 14 33  1  0
 16 34  1  0
 17 35  1  0
 20 36  1  0
 23 37  1  0
M  END
>  <Energy>  (603) 
77.411674341472903

>  <compound_id>  (603) 
12522

>  <target_id>  (603) 
1

>  <reference_id>  (603) 
80

>  <inspiration_ids>  (603) 
[80, 68]

>  <energy_score>  (603) 
-36.862679475868504

>  <distance_score>  (603) 
14.563702331328884

>  <path>  (603) 
/opt/xchem-fragalysis-2/maxwin/BulkDock/SCRATCH/511013/C12522-P80/C12522-P80.minimised.mol

>  <scratch_subdir>  (603) 
/opt/xchem-fragalysis-2/maxwin/BulkDock/SCRATCH/511013/C12522-P80

>  <fragmenstein_runtime>  (603) 
13.364283800125122

>  <fragmenstein_outcome>  (603) 
too moved

>  <fragmenstein_mode>  (603) 
expansion

>  <fragmenstein_error>  (603) 


$$$$
C12522-P68
     RDKit          3D

 37 39  0  0  0  0  0  0  0  0999 V2000
   -5.4984  -21.4843   15.2846 O   0  0  0  0  0  0  0  0  0  0  0  0
   -4.9060  -21.7360   16.2960 C   0  0  0  0  0  0  0  0  0  0  0  0
   -3.8984  -20.6851   16.8479 C   0  0  0  0  0  0  0  0  0  0  0  0
   -3.8892  -19.3921   16.1370 N   0  0  0  0  0  0  0  0  0  0  0  0
   -3.2209  -19.0956   14.9806 C   0  0  0  0  0  0  0  0  0  0  0  0
   -3.5575  -17.9101   14.5208 N   0  0  0  0  0  0  0  0  0  0  0  0
   -4.4931  -17.4059   15.4085 C   0  0  0  0  0  0  0  0  0  0  0  0
   -5.2190  -16.1576   15.2139 C   0  0  0  0  0  0  0  0  0  0  0  0
   -5.2257  -15.4553   14.2121 O   0  0  0  0  0  0  0  0  0  0  0  0
   -5.9867  -15.7847   16.2711 O   0  0  0  0  0  0  0  0  0  0  0  0
   -4.6152  -18.2777   16.4743 C   0  0  0  0  0  0  0  0  0  0  0  0
   -4.9308  -22.9308   17.1432 N   0  0  0  0  0  0  0  0  0  0  0  0
   -5.6101  -24.2210   16.9653 C   0  0  0  0  0  0  0  0  0  0  0  0
   -6.2830  -24.8903   18.2022 C   0  0  0  0  0  0  0  0  0  0  0  0
   -5.4775  -25.9945   18.8706 C   0  0  0  0  0  0  0  0  0  0  0  0
   -5.0558  -25.8559   20.1970 C   0  0  0  0  0  0  0  0  0  0  0  0
   -4.2091  -26.8003   20.7883 C   0  0  0  0  0  0  0  0  0  0  0  0
   -3.7507  -27.8937   20.0310 C   0  0  0  0  0  0  0  0  0  0  0  0
   -2.7880  -28.8040   20.4351 N   0  0  0  0  0  0  0  0  0  0  0  0
   -2.6101  -29.6938   19.4871 C   0  0  0  0  0  0  0  0  0  0  0  0
   -3.6209  -29.5493   18.1087 S   0  0  0  0  0  0  0  0  0  0  0  0
   -4.2762  -28.0959   18.7554 C   0  0  0  0  0  0  0  0  0  0  0  0
   -5.1587  -27.1731   18.1660 C   0  0  0  0  0  0  0  0  0  0  0  0
   -2.8826  -21.0889   16.7857 H   0  0  0  0  0  0  0  0  0  0  0  0
   -4.1481  -20.4751   17.8924 H   0  0  0  0  0  0  0  0  0  0  0  0
   -2.5507  -19.7946   14.4970 H   0  0  0  0  0  0  0  0  0  0  0  0
   -6.3861  -14.9579   15.9338 H   0  0  0  0  0  0  0  0  0  0  0  0
   -5.2341  -18.2360   17.3596 H   0  0  0  0  0  0  0  0  0  0  0  0
   -4.2383  -22.8316   17.8772 H   0  0  0  0  0  0  0  0  0  0  0  0
   -4.8796  -24.8889   16.4968 H   0  0  0  0  0  0  0  0  0  0  0  0
   -6.3892  -24.0334   16.2167 H   0  0  0  0  0  0  0  0  0  0  0  0
   -6.5611  -24.1198   18.9310 H   0  0  0  0  0  0  0  0  0  0  0  0
   -7.2197  -25.3467   17.8608 H   0  0  0  0  0  0  0  0  0  0  0  0
   -5.3406  -24.9786   20.7748 H   0  0  0  0  0  0  0  0  0  0  0  0
   -3.8381  -26.6564   21.7980 H   0  0  0  0  0  0  0  0  0  0  0  0
   -1.8685  -30.4770   19.5769 H   0  0  0  0  0  0  0  0  0  0  0  0
   -5.5309  -27.3431   17.1588 H   0  0  0  0  0  0  0  0  0  0  0  0
  1  2  2  0
  2  3  1  0
  3  4  1  0
  4  5  1  0
  5  6  2  0
  6  7  1  0
  7  8  1  0
  8  9  2  0
  8 10  1  0
  7 11  2  0
  2 12  1  0
 12 13  1  0
 13 14  1  0
 14 15  1  0
 15 16  2  0
 16 17  1  0
 17 18  2  0
 18 19  1  0
 19 20  2  0
 20 21  1  0
 21 22  1  0
 22 23  2  0
 11  4  1  0
 23 15  1  0
 22 18  1  0
  3 24  1  0
  3 25  1  0
  5 26  1  0
 10 27  1  0
 11 28  1  0
 12 29  1  0
 13 30  1  0
 13 31  1  0
 14 32  1  0
 14 33  1  0
 16 34  1  0
 17 35  1  0
 20 36  1  0
 23 37  1  0
M  END
>  <Energy>  (604) 
67.137727470278506

>  <compound_id>  (604) 
12522

>  <target_id>  (604) 
1

>  <reference_id>  (604) 
68

>  <inspiration_ids>  (604) 
[80, 68]

>  <energy_score>  (604) 
-47.13662634706151

>  <distance_score>  (604) 
15.719108798237993

>  <path>  (604) 
/opt/xchem-fragalysis-2/maxwin/BulkDock/SCRATCH/511013/C12522-P68/C12522-P68.minimised.mol

>  <scratch_subdir>  (604) 
/opt/xchem-fragalysis-2/maxwin/BulkDock/SCRATCH/511013/C12522-P68

>  <fragmenstein_runtime>  (604) 
18.36154532432556

>  <fragmenstein_outcome>  (604) 
too moved

>  <fragmenstein_mode>  (604) 
expansion

>  <fragmenstein_error>  (604) 


$$$$
C12524-P80
     RDKit          3D

 38 40  0  0  0  0  0  0  0  0999 V2000
   -3.6361  -16.9538   18.1349 O   0  0  0  0  0  0  0  0  0  0  0  0
   -2.8656  -16.7255   19.0529 C   0  0  0  0  0  0  0  0  0  0  0  0
   -2.9445  -17.9606   20.1881 C   0  0  0  0  0  0  0  0  0  0  0  0
   -3.6712  -19.4104   19.6662 C   0  0  0  0  0  0  0  0  0  0  0  0
   -3.9110  -20.7888   20.4231 C   0  0  0  0  0  0  0  0  0  0  0  0
   -4.3475  -20.8978   21.7479 C   0  0  0  0  0  0  0  0  0  0  0  0
   -4.6775  -22.1565   22.3482 C   0  0  0  0  0  0  0  0  0  0  0  0
   -4.5852  -23.3742   21.6316 C   0  0  0  0  0  0  0  0  0  0  0  0
   -4.8546  -24.6609   22.1076 N   0  0  0  0  0  0  0  0  0  0  0  0
   -4.6235  -25.5365   21.1545 C   0  0  0  0  0  0  0  0  0  0  0  0
   -4.1492  -24.8935   19.6367 S   0  0  0  0  0  0  0  0  0  0  0  0
   -4.1739  -23.2881   20.2998 C   0  0  0  0  0  0  0  0  0  0  0  0
   -3.8539  -22.0237   19.6960 C   0  0  0  0  0  0  0  0  0  0  0  0
   -1.8703  -15.5056   19.2758 N   0  0  0  0  0  0  0  0  0  0  0  0
   -1.4365  -14.0323   18.1544 C   0  0  0  0  0  0  0  0  0  0  0  0
   -1.9790  -12.4473   18.4921 C   0  0  0  0  0  0  0  0  0  0  0  0
   -2.0035  -11.9445   19.8361 O   0  0  0  0  0  0  0  0  0  0  0  0
    0.5667  -13.9173   17.9957 C   0  0  0  0  0  0  0  0  0  0  0  0
    1.7003  -14.9972   18.4930 N   0  0  0  0  0  0  0  0  0  0  0  0
    2.9774  -14.9771   18.1739 C   0  0  0  0  0  0  0  0  0  0  0  0
    2.7811  -13.7275   18.1187 C   0  0  0  0  0  0  0  0  0  0  0  0
    1.4591  -13.9743   17.0510 N   0  0  0  0  0  0  0  0  0  0  0  0
   -3.6004  -17.6030   20.9869 H   0  0  0  0  0  0  0  0  0  0  0  0
   -1.9491  -18.1615   20.5745 H   0  0  0  0  0  0  0  0  0  0  0  0
   -3.1134  -19.6624   18.7539 H   0  0  0  0  0  0  0  0  0  0  0  0
   -4.6714  -19.1108   19.3226 H   0  0  0  0  0  0  0  0  0  0  0  0
   -4.4574  -19.9967   22.3493 H   0  0  0  0  0  0  0  0  0  0  0  0
   -5.0056  -22.1846   23.3837 H   0  0  0  0  0  0  0  0  0  0  0  0
   -4.7355  -26.6022   21.3061 H   0  0  0  0  0  0  0  0  0  0  0  0
   -3.5577  -22.0093   18.6479 H   0  0  0  0  0  0  0  0  0  0  0  0
   -1.3229  -15.6711   20.0958 H   0  0  0  0  0  0  0  0  0  0  0  0
   -1.8824  -14.2449   17.1575 H   0  0  0  0  0  0  0  0  0  0  0  0
   -1.3420  -11.7642   17.9767 H   0  0  0  0  0  0  0  0  0  0  0  0
   -2.9512  -12.2471   18.0730 H   0  0  0  0  0  0  0  0  0  0  0  0
   -1.4835  -11.1112   19.8327 H   0  0  0  0  0  0  0  0  0  0  0  0
    3.8556  -15.5295   18.3734 H   0  0  0  0  0  0  0  0  0  0  0  0
    3.4054  -12.8205   18.0632 H   0  0  0  0  0  0  0  0  0  0  0  0
    1.4656  -13.4440   16.1986 H   0  0  0  0  0  0  0  0  0  0  0  0
  1  2  2  0
  2  3  1  0
  3  4  1  0
  4  5  1  0
  5  6  2  0
  6  7  1  0
  7  8  2  0
  8  9  1  0
  9 10  2  0
 10 11  1  0
 11 12  1  0
 12 13  2  0
  2 14  1  0
 14 15  1  0
 15 16  1  0
 16 17  1  0
 15 18  1  0
 18 19  2  0
 19 20  1  0
 20 21  2  0
 21 22  1  0
 13  5  1  0
 22 18  1  0
 12  8  1  0
  3 23  1  0
  3 24  1  0
  4 25  1  0
  4 26  1  0
  6 27  1  0
  7 28  1  0
 10 29  1  0
 13 30  1  0
 14 31  1  0
 15 32  1  0
 16 33  1  0
 16 34  1  0
 17 35  1  0
 20 36  1  0
 21 37  1  0
 22 38  1  0
M  END
>  <Energy>  (605) 
384.44937054220168

>  <compound_id>  (605) 
12524

>  <target_id>  (605) 
1

>  <reference_id>  (605) 
80

>  <inspiration_ids>  (605) 
[80, 68]

>  <energy_score>  (605) 
281.8639180212108

>  <distance_score>  (605) 
15.386934976051256

>  <path>  (605) 
/opt/xchem-fragalysis-2/maxwin/BulkDock/SCRATCH/511013/C12524-P80/C12524-P80.minimised.mol

>  <scratch_subdir>  (605) 
/opt/xchem-fragalysis-2/maxwin/BulkDock/SCRATCH/511013/C12524-P80

>  <fragmenstein_runtime>  (605) 
12.61033320426941

>  <fragmenstein_outcome>  (605) 
too moved

>  <fragmenstein_mode>  (605) 
expansion

>  <fragmenstein_error>  (605) 


$$$$
C12524-P68
     RDKit          3D

 38 40  0  0  0  0  0  0  0  0999 V2000
    1.5856  -16.3961   18.3218 O   0  0  0  0  0  0  0  0  0  0  0  0
    2.6366  -16.3794   17.7183 C   0  0  0  0  0  0  0  0  0  0  0  0
    2.9814  -18.0489   17.0126 C   0  0  0  0  0  0  0  0  0  0  0  0
    1.8837  -19.5150   17.4153 C   0  0  0  0  0  0  0  0  0  0  0  0
    1.6087  -21.0460   17.8584 C   0  0  0  0  0  0  0  0  0  0  0  0
    2.5180  -22.0970   17.8842 C   0  0  0  0  0  0  0  0  0  0  0  0
    2.1605  -23.4371   18.2747 C   0  0  0  0  0  0  0  0  0  0  0  0
    0.8378  -23.8055   18.6178 C   0  0  0  0  0  0  0  0  0  0  0  0
    0.3756  -25.0696   19.0026 N   0  0  0  0  0  0  0  0  0  0  0  0
   -0.9222  -25.0183   19.2005 C   0  0  0  0  0  0  0  0  0  0  0  0
   -1.6605  -23.4878   18.9516 S   0  0  0  0  0  0  0  0  0  0  0  0
   -0.1195  -22.7940   18.5438 C   0  0  0  0  0  0  0  0  0  0  0  0
    0.2494  -21.4490   18.1682 C   0  0  0  0  0  0  0  0  0  0  0  0
    3.6219  -15.2305   17.4785 N   0  0  0  0  0  0  0  0  0  0  0  0
    3.6113  -13.5006   18.0744 C   0  0  0  0  0  0  0  0  0  0  0  0
    4.3260  -13.4456   19.4564 C   0  0  0  0  0  0  0  0  0  0  0  0
    5.5015  -12.7167   19.7652 O   0  0  0  0  0  0  0  0  0  0  0  0
    3.7727  -11.8416   17.0746 C   0  0  0  0  0  0  0  0  0  0  0  0
    4.4683  -11.8680   15.8495 N   0  0  0  0  0  0  0  0  0  0  0  0
    4.6976  -11.1729   14.7235 C   0  0  0  0  0  0  0  0  0  0  0  0
    3.7416  -10.4544   15.1524 C   0  0  0  0  0  0  0  0  0  0  0  0
    3.3122  -10.6238   16.7435 N   0  0  0  0  0  0  0  0  0  0  0  0
    2.8212  -17.8931   15.9369 H   0  0  0  0  0  0  0  0  0  0  0  0
    4.0229  -18.3143   17.0394 H   0  0  0  0  0  0  0  0  0  0  0  0
    1.3840  -19.6041   16.4429 H   0  0  0  0  0  0  0  0  0  0  0  0
    1.2837  -19.0429   18.1822 H   0  0  0  0  0  0  0  0  0  0  0  0
    3.5489  -21.9085   17.5983 H   0  0  0  0  0  0  0  0  0  0  0  0
    2.9328  -24.2014   18.2958 H   0  0  0  0  0  0  0  0  0  0  0  0
   -1.4983  -25.8837   19.4997 H   0  0  0  0  0  0  0  0  0  0  0  0
   -0.5451  -20.7076   18.0989 H   0  0  0  0  0  0  0  0  0  0  0  0
    4.4304  -15.5829   17.0078 H   0  0  0  0  0  0  0  0  0  0  0  0
    2.5403  -13.6957   17.9830 H   0  0  0  0  0  0  0  0  0  0  0  0
    3.7130  -13.5181   20.3510 H   0  0  0  0  0  0  0  0  0  0  0  0
    4.7735  -14.3655   19.3771 H   0  0  0  0  0  0  0  0  0  0  0  0
    5.3223  -12.2449   20.5877 H   0  0  0  0  0  0  0  0  0  0  0  0
    5.3781  -11.3387   13.9043 H   0  0  0  0  0  0  0  0  0  0  0  0
    3.3042   -9.7256   14.5444 H   0  0  0  0  0  0  0  0  0  0  0  0
    2.8750   -9.9510   17.3615 H   0  0  0  0  0  0  0  0  0  0  0  0
  1  2  2  0
  2  3  1  0
  3  4  1  0
  4  5  1  0
  5  6  2  0
  6  7  1  0
  7  8  2  0
  8  9  1  0
  9 10  2  0
 10 11  1  0
 11 12  1  0
 12 13  2  0
  2 14  1  0
 14 15  1  0
 15 16  1  0
 16 17  1  0
 15 18  1  0
 18 19  2  0
 19 20  1  0
 20 21  2  0
 21 22  1  0
 13  5  1  0
 22 18  1  0
 12  8  1  0
  3 23  1  0
  3 24  1  0
  4 25  1  0
  4 26  1  0
  6 27  1  0
  7 28  1  0
 10 29  1  0
 13 30  1  0
 14 31  1  0
 15 32  1  0
 16 33  1  0
 16 34  1  0
 17 35  1  0
 20 36  1  0
 21 37  1  0
 22 38  1  0
M  END
>  <Energy>  (606) 
399.2722731038877

>  <compound_id>  (606) 
12524

>  <target_id>  (606) 
1

>  <reference_id>  (606) 
68

>  <inspiration_ids>  (606) 
[80, 68]

>  <energy_score>  (606) 
296.68682058290074

>  <distance_score>  (606) 
16.534710048651032

>  <path>  (606) 
/opt/xchem-fragalysis-2/maxwin/BulkDock/SCRATCH/511013/C12524-P68/C12524-P68.minimised.mol

>  <scratch_subdir>  (606) 
/opt/xchem-fragalysis-2/maxwin/BulkDock/SCRATCH/511013/C12524-P68

>  <fragmenstein_runtime>  (606) 
17.564130067825317

>  <fragmenstein_outcome>  (606) 
too moved

>  <fragmenstein_mode>  (606) 
expansion

>  <fragmenstein_error>  (606) 


$$$$
C12525-P80
     RDKit          3D

 39 41  0  0  0  0  0  0  0  0999 V2000
    0.2922  -30.0306   15.6069 C   0  0  0  0  0  0  0  0  0  0  0  0
   -1.0529  -30.4770   15.7138 O   0  0  0  0  0  0  0  0  0  0  0  0
   -1.3930  -30.9862   17.0020 C   0  0  0  0  0  0  0  0  0  0  0  0
   -1.6281  -29.9038   18.0642 C   0  0  0  0  0  0  0  0  0  0  0  0
   -2.8393  -29.0296   17.9011 N   0  0  0  0  0  0  0  0  0  0  0  0
   -2.5570  -27.9137   16.8015 C   0  0  0  0  0  0  0  0  0  0  0  0
   -1.4933  -26.7005   17.0612 C   0  0  0  0  0  0  0  0  0  0  0  0
   -1.0567  -25.8264   16.1430 N   0  0  0  0  0  0  0  0  0  0  0  0
   -0.2752  -24.8834   16.7853 C   0  0  0  0  0  0  0  0  0  0  0  0
   -0.2008  -25.1766   18.1215 C   0  0  0  0  0  0  0  0  0  0  0  0
   -0.9568  -26.3237   18.2849 N   0  0  0  0  0  0  0  0  0  0  0  0
   -4.4185  -29.8608   17.7591 S   0  0  0  0  0  0  0  0  0  0  0  0
   -4.4402  -30.5273   16.4741 O   0  0  0  0  0  0  0  0  0  0  0  0
   -5.4882  -28.9437   18.0828 O   0  0  0  0  0  0  0  0  0  0  0  0
   -4.6863  -31.2196   18.9389 C   0  0  0  0  0  0  0  0  0  0  0  0
   -4.0236  -31.3815   20.1464 C   0  0  0  0  0  0  0  0  0  0  0  0
   -4.3500  -32.4661   20.9935 C   0  0  0  0  0  0  0  0  0  0  0  0
   -5.3497  -33.4018   20.6389 C   0  0  0  0  0  0  0  0  0  0  0  0
   -5.7346  -34.5268   21.3576 N   0  0  0  0  0  0  0  0  0  0  0  0
   -6.7019  -35.1457   20.7252 C   0  0  0  0  0  0  0  0  0  0  0  0
   -7.2055  -34.4507   19.2446 S   0  0  0  0  0  0  0  0  0  0  0  0
   -6.0245  -33.2067   19.4338 C   0  0  0  0  0  0  0  0  0  0  0  0
   -5.7097  -32.1319   18.5780 C   0  0  0  0  0  0  0  0  0  0  0  0
    0.4634  -29.7094   14.5758 H   0  0  0  0  0  0  0  0  0  0  0  0
    0.9865  -30.8445   15.8359 H   0  0  0  0  0  0  0  0  0  0  0  0
    0.4795  -29.1791   16.2655 H   0  0  0  0  0  0  0  0  0  0  0  0
   -0.5913  -31.6547   17.3405 H   0  0  0  0  0  0  0  0  0  0  0  0
   -2.2742  -31.6200   16.8835 H   0  0  0  0  0  0  0  0  0  0  0  0
   -0.7500  -29.2534   18.1292 H   0  0  0  0  0  0  0  0  0  0  0  0
   -1.6884  -30.3865   19.0417 H   0  0  0  0  0  0  0  0  0  0  0  0
   -2.2201  -28.4100   15.8875 H   0  0  0  0  0  0  0  0  0  0  0  0
   -3.5049  -27.4338   16.5412 H   0  0  0  0  0  0  0  0  0  0  0  0
    0.1738  -24.0610   16.2448 H   0  0  0  0  0  0  0  0  0  0  0  0
    0.2877  -24.6969   18.9566 H   0  0  0  0  0  0  0  0  0  0  0  0
   -1.1625  -26.7982   19.1570 H   0  0  0  0  0  0  0  0  0  0  0  0
   -3.2607  -30.6798   20.4678 H   0  0  0  0  0  0  0  0  0  0  0  0
   -3.8291  -32.6024   21.9368 H   0  0  0  0  0  0  0  0  0  0  0  0
   -7.1584  -36.0464   21.1127 H   0  0  0  0  0  0  0  0  0  0  0  0
   -6.2555  -32.0001   17.6458 H   0  0  0  0  0  0  0  0  0  0  0  0
  1  2  1  0
  2  3  1  0
  3  4  1  0
  4  5  1  0
  5  6  1  0
  6  7  1  0
  7  8  2  0
  8  9  1  0
  9 10  2  0
 10 11  1  0
  5 12  1  0
 12 13  2  0
 12 14  2  0
 12 15  1  0
 15 16  2  0
 16 17  1  0
 17 18  2  0
 18 19  1  0
 19 20  2  0
 20 21  1  0
 21 22  1  0
 22 23  2  0
 11  7  1  0
 23 15  1  0
 22 18  1  0
  1 24  1  0
  1 25  1  0
  1 26  1  0
  3 27  1  0
  3 28  1  0
  4 29  1  0
  4 30  1  0
  6 31  1  0
  6 32  1  0
  9 33  1  0
 10 34  1  0
 11 35  1  0
 16 36  1  0
 17 37  1  0
 20 38  1  0
 23 39  1  0
M  END
>  <Energy>  (607) 
23.351206634348046

>  <compound_id>  (607) 
12525

>  <target_id>  (607) 
1

>  <reference_id>  (607) 
80

>  <inspiration_ids>  (607) 
[80, 68]

>  <energy_score>  (607) 
-64.57056500772495

>  <distance_score>  (607) 
16.411258712999285

>  <path>  (607) 
/opt/xchem-fragalysis-2/maxwin/BulkDock/SCRATCH/511013/C12525-P80/C12525-P80.minimised.mol

>  <scratch_subdir>  (607) 
/opt/xchem-fragalysis-2/maxwin/BulkDock/SCRATCH/511013/C12525-P80

>  <fragmenstein_runtime>  (607) 
15.609116792678833

>  <fragmenstein_outcome>  (607) 
too moved

>  <fragmenstein_mode>  (607) 
expansion

>  <fragmenstein_error>  (607) 


$$$$
C12525-P68
     RDKit          3D

 39 41  0  0  0  0  0  0  0  0999 V2000
    5.6113  -25.6857   23.5714 C   0  0  0  0  0  0  0  0  0  0  0  0
    4.2924  -25.6503   24.1038 O   0  0  0  0  0  0  0  0  0  0  0  0
    3.3143  -25.6497   23.0599 C   0  0  0  0  0  0  0  0  0  0  0  0
    1.9218  -25.6239   23.6922 C   0  0  0  0  0  0  0  0  0  0  0  0
    0.8901  -25.5511   22.6292 N   0  0  0  0  0  0  0  0  0  0  0  0
    0.3199  -24.1336   22.4934 C   0  0  0  0  0  0  0  0  0  0  0  0
    1.2057  -23.0358   21.9349 C   0  0  0  0  0  0  0  0  0  0  0  0
    1.3003  -22.7025   20.6630 N   0  0  0  0  0  0  0  0  0  0  0  0
    1.7623  -21.4245   20.6454 C   0  0  0  0  0  0  0  0  0  0  0  0
    2.0387  -20.9865   21.9195 C   0  0  0  0  0  0  0  0  0  0  0  0
    1.7591  -22.0487   22.7238 N   0  0  0  0  0  0  0  0  0  0  0  0
   -0.4437  -26.6018   22.8041 S   0  0  0  0  0  0  0  0  0  0  0  0
   -1.1201  -26.1176   23.9971 O   0  0  0  0  0  0  0  0  0  0  0  0
   -1.1128  -26.5761   21.5213 O   0  0  0  0  0  0  0  0  0  0  0  0
    0.0182  -28.3093   23.1514 C   0  0  0  0  0  0  0  0  0  0  0  0
   -0.2877  -28.8459   24.4134 C   0  0  0  0  0  0  0  0  0  0  0  0
   -0.1915  -30.2219   24.6730 C   0  0  0  0  0  0  0  0  0  0  0  0
    0.2929  -31.0799   23.6710 C   0  0  0  0  0  0  0  0  0  0  0  0
    0.4359  -32.4585   23.7817 N   0  0  0  0  0  0  0  0  0  0  0  0
    0.9741  -32.9250   22.6776 C   0  0  0  0  0  0  0  0  0  0  0  0
    1.2887  -31.7881   21.4331 S   0  0  0  0  0  0  0  0  0  0  0  0
    0.6468  -30.5247   22.4317 C   0  0  0  0  0  0  0  0  0  0  0  0
    0.4581  -29.1539   22.1275 C   0  0  0  0  0  0  0  0  0  0  0  0
    6.3184  -25.6851   24.4052 H   0  0  0  0  0  0  0  0  0  0  0  0
    5.7988  -24.8022   22.9535 H   0  0  0  0  0  0  0  0  0  0  0  0
    5.7633  -26.5967   22.9847 H   0  0  0  0  0  0  0  0  0  0  0  0
    3.4288  -26.5512   22.4459 H   0  0  0  0  0  0  0  0  0  0  0  0
    3.4678  -24.7731   22.4213 H   0  0  0  0  0  0  0  0  0  0  0  0
    1.8397  -24.7857   24.3939 H   0  0  0  0  0  0  0  0  0  0  0  0
    1.8064  -26.5246   24.3041 H   0  0  0  0  0  0  0  0  0  0  0  0
   -0.5481  -24.1627   21.8215 H   0  0  0  0  0  0  0  0  0  0  0  0
   -0.0538  -23.8079   23.4738 H   0  0  0  0  0  0  0  0  0  0  0  0
    1.8561  -20.9203   19.6948 H   0  0  0  0  0  0  0  0  0  0  0  0
    2.3982  -20.0602   22.3258 H   0  0  0  0  0  0  0  0  0  0  0  0
    1.7854  -22.0527   23.7330 H   0  0  0  0  0  0  0  0  0  0  0  0
   -0.6482  -28.2001   25.2121 H   0  0  0  0  0  0  0  0  0  0  0  0
   -0.4730  -30.6228   25.6414 H   0  0  0  0  0  0  0  0  0  0  0  0
    1.2196  -33.9696   22.5469 H   0  0  0  0  0  0  0  0  0  0  0  0
    0.6414  -28.7738   21.1245 H   0  0  0  0  0  0  0  0  0  0  0  0
  1  2  1  0
  2  3  1  0
  3  4  1  0
  4  5  1  0
  5  6  1  0
  6  7  1  0
  7  8  2  0
  8  9  1  0
  9 10  2  0
 10 11  1  0
  5 12  1  0
 12 13  2  0
 12 14  2  0
 12 15  1  0
 15 16  2  0
 16 17  1  0
 17 18  2  0
 18 19  1  0
 19 20  2  0
 20 21  1  0
 21 22  1  0
 22 23  2  0
 11  7  1  0
 23 15  1  0
 22 18  1  0
  1 24  1  0
  1 25  1  0
  1 26  1  0
  3 27  1  0
  3 28  1  0
  4 29  1  0
  4 30  1  0
  6 31  1  0
  6 32  1  0
  9 33  1  0
 10 34  1  0
 11 35  1  0
 16 36  1  0
 17 37  1  0
 20 38  1  0
 23 39  1  0
M  END
>  <Energy>  (608) 
6.1736514131576197

>  <compound_id>  (608) 
12525

>  <target_id>  (608) 
1

>  <reference_id>  (608) 
68

>  <inspiration_ids>  (608) 
[80, 68]

>  <energy_score>  (608) 
-81.7481202289137

>  <distance_score>  (608) 
16.232922113384486

>  <path>  (608) 
/opt/xchem-fragalysis-2/maxwin/BulkDock/SCRATCH/511013/C12525-P68/C12525-P68.minimised.mol

>  <scratch_subdir>  (608) 
/opt/xchem-fragalysis-2/maxwin/BulkDock/SCRATCH/511013/C12525-P68

>  <fragmenstein_runtime>  (608) 
15.155182600021362

>  <fragmenstein_outcome>  (608) 
too moved

>  <fragmenstein_mode>  (608) 
expansion

>  <fragmenstein_error>  (608) 


$$$$
C12530-P80
     RDKit          3D

 40 43  0  0  0  0  0  0  0  0999 V2000
   -3.8583  -16.5245   20.4576 O   0  0  0  0  0  0  0  0  0  0  0  0
   -3.1558  -17.1458   19.7848 C   0  0  0  0  0  0  0  0  0  0  0  0
   -3.3682  -18.6827   19.3366 N   0  0  0  0  0  0  0  0  0  0  0  0
   -4.6228  -19.7113   19.5903 C   0  0  0  0  0  0  0  0  0  0  0  0
   -4.6810  -21.1063   19.2723 C   0  0  0  0  0  0  0  0  0  0  0  0
   -5.6890  -22.0818   19.5507 C   0  0  0  0  0  0  0  0  0  0  0  0
   -6.7620  -21.7084   20.3217 C   0  0  0  0  0  0  0  0  0  0  0  0
   -7.7177  -22.5760   20.8261 N   0  0  0  0  0  0  0  0  0  0  0  0
   -8.5715  -21.8723   21.5238 C   0  0  0  0  0  0  0  0  0  0  0  0
   -8.3028  -20.1736   21.5566 S   0  0  0  0  0  0  0  0  0  0  0  0
   -6.8623  -20.3441   20.6048 C   0  0  0  0  0  0  0  0  0  0  0  0
   -5.8632  -19.3441   20.1703 C   0  0  0  0  0  0  0  0  0  0  0  0
   -1.8912  -16.5992   19.0453 N   0  0  0  0  0  0  0  0  0  0  0  0
   -1.2567  -14.9570   18.8901 C   0  0  0  0  0  0  0  0  0  0  0  0
    0.4679  -14.0210   18.0676 C   0  0  0  0  0  0  0  0  0  0  0  0
    2.1154  -14.7112   18.6782 C   0  0  0  0  0  0  0  0  0  0  0  0
    3.6541  -13.4818   18.6348 C   0  0  0  0  0  0  0  0  0  0  0  0
    4.6944  -12.9782   19.5174 C   0  0  0  0  0  0  0  0  0  0  0  0
    5.2026  -11.7254   19.1527 N   0  0  0  0  0  0  0  0  0  0  0  0
    4.3546  -11.2164   18.2434 C   0  0  0  0  0  0  0  0  0  0  0  0
    3.4880  -12.1501   17.9317 N   0  0  0  0  0  0  0  0  0  0  0  0
    1.0431  -15.9002   19.9990 C   0  0  0  0  0  0  0  0  0  0  0  0
   -0.4793  -16.7721   20.0568 C   0  0  0  0  0  0  0  0  0  0  0  0
   -2.5661  -18.9878   18.8249 H   0  0  0  0  0  0  0  0  0  0  0  0
   -3.9205  -21.6851   18.7990 H   0  0  0  0  0  0  0  0  0  0  0  0
   -5.5514  -23.1220   19.2700 H   0  0  0  0  0  0  0  0  0  0  0  0
   -9.4126  -22.3190   22.0372 H   0  0  0  0  0  0  0  0  0  0  0  0
   -6.0383  -18.3063   20.4505 H   0  0  0  0  0  0  0  0  0  0  0  0
   -1.9196  -14.5346   18.1114 H   0  0  0  0  0  0  0  0  0  0  0  0
   -1.7789  -14.5972   19.7867 H   0  0  0  0  0  0  0  0  0  0  0  0
    0.7975  -14.1571   17.0187 H   0  0  0  0  0  0  0  0  0  0  0  0
    0.0796  -13.0418   18.1534 H   0  0  0  0  0  0  0  0  0  0  0  0
    2.5659  -15.3698   17.9253 H   0  0  0  0  0  0  0  0  0  0  0  0
    5.1185  -13.3183   20.4317 H   0  0  0  0  0  0  0  0  0  0  0  0
    5.9341  -11.2252   19.6355 H   0  0  0  0  0  0  0  0  0  0  0  0
    4.3844  -10.2102   17.8500 H   0  0  0  0  0  0  0  0  0  0  0  0
    1.7998  -15.3651   20.5832 H   0  0  0  0  0  0  0  0  0  0  0  0
    0.7046  -15.6839   21.0113 H   0  0  0  0  0  0  0  0  0  0  0  0
   -0.1291  -17.6952   19.6615 H   0  0  0  0  0  0  0  0  0  0  0  0
   -0.7421  -17.1260   21.0372 H   0  0  0  0  0  0  0  0  0  0  0  0
  1  2  2  0
  2  3  1  0
  3  4  1  0
  4  5  2  0
  5  6  1  0
  6  7  2  0
  7  8  1  0
  8  9  2  0
  9 10  1  0
 10 11  1  0
 11 12  2  0
  2 13  1  0
 13 14  1  0
 14 15  1  0
 15 16  1  0
 16 17  1  0
 17 18  2  0
 18 19  1  0
 19 20  1  0
 20 21  2  0
 16 22  1  0
 22 23  1  0
 12  4  1  0
 23 13  1  0
 11  7  1  0
 21 17  1  0
  3 24  1  0
  5 25  1  0
  6 26  1  0
  9 27  1  0
 12 28  1  0
 14 29  1  0
 14 30  1  0
 15 31  1  0
 15 32  1  0
 16 33  1  0
 18 34  1  0
 19 35  1  0
 20 36  1  0
 22 37  1  0
 22 38  1  0
 23 39  1  0
 23 40  1  0
M  END
>  <Energy>  (609) 
569.86748587354634

>  <compound_id>  (609) 
12530

>  <target_id>  (609) 
1

>  <reference_id>  (609) 
80

>  <inspiration_ids>  (609) 
[80, 68]

>  <energy_score>  (609) 
534.2855599500742

>  <distance_score>  (609) 
15.567604106138859

>  <path>  (609) 
/opt/xchem-fragalysis-2/maxwin/BulkDock/SCRATCH/511013/C12530-P80/C12530-P80.minimised.mol

>  <scratch_subdir>  (609) 
/opt/xchem-fragalysis-2/maxwin/BulkDock/SCRATCH/511013/C12530-P80

>  <fragmenstein_runtime>  (609) 
11.803438425064087

>  <fragmenstein_outcome>  (609) 
too moved

>  <fragmenstein_mode>  (609) 
expansion

>  <fragmenstein_error>  (609) 


$$$$
C12530-P68
     RDKit          3D

 40 43  0  0  0  0  0  0  0  0999 V2000
   -2.8095  -29.0684   18.0734 O   0  0  0  0  0  0  0  0  0  0  0  0
   -2.3534  -28.5394   19.0261 C   0  0  0  0  0  0  0  0  0  0  0  0
   -2.3900  -28.9454   20.4721 N   0  0  0  0  0  0  0  0  0  0  0  0
   -3.0889  -30.0667   21.1468 C   0  0  0  0  0  0  0  0  0  0  0  0
   -3.2411  -29.6297   22.8955 C   0  0  0  0  0  0  0  0  0  0  0  0
   -4.6732  -29.8870   23.9704 C   0  0  0  0  0  0  0  0  0  0  0  0
   -6.1251  -30.9379   23.4564 C   0  0  0  0  0  0  0  0  0  0  0  0
   -6.4728  -32.5567   24.5843 N   0  0  0  0  0  0  0  0  0  0  0  0
   -6.7674  -34.0217   24.1432 C   0  0  0  0  0  0  0  0  0  0  0  0
   -6.6025  -34.1812   21.9091 S   0  0  0  0  0  0  0  0  0  0  0  0
   -5.9421  -31.8858   21.4337 C   0  0  0  0  0  0  0  0  0  0  0  0
   -4.5658  -30.8917   20.3860 C   0  0  0  0  0  0  0  0  0  0  0  0
   -1.6268  -27.1422   19.1427 N   0  0  0  0  0  0  0  0  0  0  0  0
   -1.4180  -26.0429   18.0888 C   0  0  0  0  0  0  0  0  0  0  0  0
   -0.2549  -25.5252   17.1796 C   0  0  0  0  0  0  0  0  0  0  0  0
    1.0353  -25.2030   17.9285 C   0  0  0  0  0  0  0  0  0  0  0  0
    1.4378  -23.7039   18.0168 C   0  0  0  0  0  0  0  0  0  0  0  0
    2.2968  -22.9864   17.1823 C   0  0  0  0  0  0  0  0  0  0  0  0
    2.3534  -21.7068   17.6754 N   0  0  0  0  0  0  0  0  0  0  0  0
    1.5822  -21.6948   18.7966 C   0  0  0  0  0  0  0  0  0  0  0  0
    0.9687  -22.8476   18.9912 N   0  0  0  0  0  0  0  0  0  0  0  0
    0.9158  -26.0997   19.1839 C   0  0  0  0  0  0  0  0  0  0  0  0
   -0.1128  -27.3143   18.9494 C   0  0  0  0  0  0  0  0  0  0  0  0
   -1.9691  -28.2182   21.0327 H   0  0  0  0  0  0  0  0  0  0  0  0
   -2.4438  -29.0128   23.3170 H   0  0  0  0  0  0  0  0  0  0  0  0
   -4.6025  -29.6974   25.0388 H   0  0  0  0  0  0  0  0  0  0  0  0
   -7.2073  -34.8730   24.6283 H   0  0  0  0  0  0  0  0  0  0  0  0
   -4.9382  -30.5486   19.3994 H   0  0  0  0  0  0  0  0  0  0  0  0
   -1.8289  -25.1577   18.5843 H   0  0  0  0  0  0  0  0  0  0  0  0
   -2.2058  -26.2999   17.3629 H   0  0  0  0  0  0  0  0  0  0  0  0
   -0.0503  -26.2887   16.4161 H   0  0  0  0  0  0  0  0  0  0  0  0
   -0.6123  -24.6469   16.6328 H   0  0  0  0  0  0  0  0  0  0  0  0
    1.8462  -25.6424   17.3258 H   0  0  0  0  0  0  0  0  0  0  0  0
    2.8584  -23.2762   16.3069 H   0  0  0  0  0  0  0  0  0  0  0  0
    2.8931  -20.9317   17.3153 H   0  0  0  0  0  0  0  0  0  0  0  0
    1.4873  -20.8312   19.4324 H   0  0  0  0  0  0  0  0  0  0  0  0
    1.9046  -26.5360   19.3790 H   0  0  0  0  0  0  0  0  0  0  0  0
    0.6599  -25.5535   20.0897 H   0  0  0  0  0  0  0  0  0  0  0  0
    0.0981  -27.8815   18.0271 H   0  0  0  0  0  0  0  0  0  0  0  0
    0.1482  -28.0353   19.7389 H   0  0  0  0  0  0  0  0  0  0  0  0
  1  2  2  0
  2  3  1  0
  3  4  1  0
  4  5  2  0
  5  6  1  0
  6  7  2  0
  7  8  1  0
  8  9  2  0
  9 10  1  0
 10 11  1  0
 11 12  2  0
  2 13  1  0
 13 14  1  0
 14 15  1  0
 15 16  1  0
 16 17  1  0
 17 18  2  0
 18 19  1  0
 19 20  1  0
 20 21  2  0
 16 22  1  0
 22 23  1  0
 12  4  1  0
 23 13  1  0
 11  7  1  0
 21 17  1  0
  3 24  1  0
  5 25  1  0
  6 26  1  0
  9 27  1  0
 12 28  1  0
 14 29  1  0
 14 30  1  0
 15 31  1  0
 15 32  1  0
 16 33  1  0
 18 34  1  0
 19 35  1  0
 20 36  1  0
 22 37  1  0
 22 38  1  0
 23 39  1  0
 23 40  1  0
M  END
>  <Energy>  (610) 
1051.6729447673165

>  <compound_id>  (610) 
12530

>  <target_id>  (610) 
1

>  <reference_id>  (610) 
68

>  <inspiration_ids>  (610) 
[80, 68]

>  <energy_score>  (610) 
1016.0910188438482

>  <distance_score>  (610) 
15.116740068245369

>  <path>  (610) 
/opt/xchem-fragalysis-2/maxwin/BulkDock/SCRATCH/511013/C12530-P68/C12530-P68.minimised.mol

>  <scratch_subdir>  (610) 
/opt/xchem-fragalysis-2/maxwin/BulkDock/SCRATCH/511013/C12530-P68

>  <fragmenstein_runtime>  (610) 
29.202730655670166

>  <fragmenstein_outcome>  (610) 
too moved

>  <fragmenstein_mode>  (610) 
expansion

>  <fragmenstein_error>  (610) 


$$$$
C12531-P80
     RDKit          3D

 35 38  0  0  0  0  0  0  0  0999 V2000
    3.7012  -25.6139   16.2213 O   0  0  0  0  0  0  0  0  0  0  0  0
    3.0069  -24.6588   16.4705 C   0  0  0  0  0  0  0  0  0  0  0  0
    3.2104  -23.2023   16.1687 N   0  0  0  0  0  0  0  0  0  0  0  0
    4.3452  -22.4995   15.5620 C   0  0  0  0  0  0  0  0  0  0  0  0
    5.3953  -23.3006   15.1020 C   0  0  0  0  0  0  0  0  0  0  0  0
    6.5442  -22.7612   14.5107 C   0  0  0  0  0  0  0  0  0  0  0  0
    6.7068  -21.3819   14.3590 C   0  0  0  0  0  0  0  0  0  0  0  0
    5.7272  -20.4746   14.7859 C   0  0  0  0  0  0  0  0  0  0  0  0
    6.0566  -19.0037   14.5884 C   0  0  0  0  0  0  0  0  0  0  0  0
    5.3144  -17.8755   14.2656 C   0  0  0  0  0  0  0  0  0  0  0  0
    6.0766  -16.7096   14.2570 N   0  0  0  0  0  0  0  0  0  0  0  0
    7.2975  -17.1069   14.5094 C   0  0  0  0  0  0  0  0  0  0  0  0
    7.3396  -18.4603   14.7156 N   0  0  0  0  0  0  0  0  0  0  0  0
    4.5194  -21.0690   15.3747 C   0  0  0  0  0  0  0  0  0  0  0  0
    1.6629  -25.1349   17.1607 C   0  0  0  0  0  0  0  0  0  0  0  0
    0.3905  -24.6016   16.9521 C   0  0  0  0  0  0  0  0  0  0  0  0
   -0.7944  -25.2591   17.4271 C   0  0  0  0  0  0  0  0  0  0  0  0
   -0.7476  -26.4917   18.1275 C   0  0  0  0  0  0  0  0  0  0  0  0
   -1.8245  -27.2407   18.6024 N   0  0  0  0  0  0  0  0  0  0  0  0
   -1.3806  -28.3332   19.1843 C   0  0  0  0  0  0  0  0  0  0  0  0
    0.3211  -28.5460   19.1843 S   0  0  0  0  0  0  0  0  0  0  0  0
    0.5152  -27.0390   18.3472 C   0  0  0  0  0  0  0  0  0  0  0  0
    1.6962  -26.3789   17.8808 C   0  0  0  0  0  0  0  0  0  0  0  0
    2.4641  -22.6656   16.5978 H   0  0  0  0  0  0  0  0  0  0  0  0
    5.3453  -24.3838   15.1767 H   0  0  0  0  0  0  0  0  0  0  0  0
    7.3185  -23.4373   14.1529 H   0  0  0  0  0  0  0  0  0  0  0  0
    7.6120  -21.0379   13.8640 H   0  0  0  0  0  0  0  0  0  0  0  0
    4.2530  -17.8601   14.0467 H   0  0  0  0  0  0  0  0  0  0  0  0
    8.1803  -16.4838   14.5623 H   0  0  0  0  0  0  0  0  0  0  0  0
    8.1718  -18.9881   14.9359 H   0  0  0  0  0  0  0  0  0  0  0  0
    3.7134  -20.4070   15.6931 H   0  0  0  0  0  0  0  0  0  0  0  0
    0.2801  -23.6983   16.3579 H   0  0  0  0  0  0  0  0  0  0  0  0
   -1.7684  -24.8279   17.2132 H   0  0  0  0  0  0  0  0  0  0  0  0
   -2.0445  -29.0593   19.6355 H   0  0  0  0  0  0  0  0  0  0  0  0
    2.6583  -26.8658   18.0387 H   0  0  0  0  0  0  0  0  0  0  0  0
  1  2  2  0
  2  3  1  0
  3  4  1  0
  4  5  2  0
  5  6  1  0
  6  7  2  0
  7  8  1  0
  8  9  1  0
  9 10  2  0
 10 11  1  0
 11 12  2  0
 12 13  1  0
  8 14  2  0
  2 15  1  0
 15 16  2  0
 16 17  1  0
 17 18  2  0
 18 19  1  0
 19 20  2  0
 20 21  1  0
 21 22  1  0
 22 23  2  0
 14  4  1  0
 23 15  1  0
 13  9  1  0
 22 18  1  0
  3 24  1  0
  5 25  1  0
  6 26  1  0
  7 27  1  0
 10 28  1  0
 12 29  1  0
 13 30  1  0
 14 31  1  0
 16 32  1  0
 17 33  1  0
 20 34  1  0
 23 35  1  0
M  END
>  <Energy>  (611) 
63.23711696827182

>  <compound_id>  (611) 
12531

>  <target_id>  (611) 
1

>  <reference_id>  (611) 
80

>  <inspiration_ids>  (611) 
[80, 68]

>  <energy_score>  (611) 
-70.3025274259088

>  <distance_score>  (611) 
16.11362974491664

>  <path>  (611) 
/opt/xchem-fragalysis-2/maxwin/BulkDock/SCRATCH/511013/C12531-P80/C12531-P80.minimised.mol

>  <scratch_subdir>  (611) 
/opt/xchem-fragalysis-2/maxwin/BulkDock/SCRATCH/511013/C12531-P80

>  <fragmenstein_runtime>  (611) 
10.990792036056519

>  <fragmenstein_outcome>  (611) 
too moved

>  <fragmenstein_mode>  (611) 
expansion

>  <fragmenstein_error>  (611) 


$$$$
C12531-P68
     RDKit          3D

 35 38  0  0  0  0  0  0  0  0999 V2000
    1.3819  -19.9510   17.9874 O   0  0  0  0  0  0  0  0  0  0  0  0
    2.2792  -20.0058   17.1829 C   0  0  0  0  0  0  0  0  0  0  0  0
    3.2050  -18.8258   16.6260 N   0  0  0  0  0  0  0  0  0  0  0  0
    3.2551  -17.3542   16.9970 C   0  0  0  0  0  0  0  0  0  0  0  0
    2.1888  -17.1497   17.7791 C   0  0  0  0  0  0  0  0  0  0  0  0
    1.7879  -16.1350   18.5804 C   0  0  0  0  0  0  0  0  0  0  0  0
    2.6129  -15.1234   18.7835 C   0  0  0  0  0  0  0  0  0  0  0  0
    3.6909  -14.9184   18.0301 C   0  0  0  0  0  0  0  0  0  0  0  0
    4.2520  -13.5146   18.6885 C   0  0  0  0  0  0  0  0  0  0  0  0
    4.0618  -12.0786   18.4829 C   0  0  0  0  0  0  0  0  0  0  0  0
    4.9501  -11.3014   19.2273 N   0  0  0  0  0  0  0  0  0  0  0  0
    5.5200  -12.1531   20.0348 C   0  0  0  0  0  0  0  0  0  0  0  0
    5.0000  -13.4068   19.8637 N   0  0  0  0  0  0  0  0  0  0  0  0
    3.9766  -16.1263   17.0268 C   0  0  0  0  0  0  0  0  0  0  0  0
    2.4907  -21.4922   16.7380 C   0  0  0  0  0  0  0  0  0  0  0  0
    2.2397  -21.9784   15.4607 C   0  0  0  0  0  0  0  0  0  0  0  0
    1.7233  -23.3101   15.2317 C   0  0  0  0  0  0  0  0  0  0  0  0
    1.3419  -24.1899   16.2813 C   0  0  0  0  0  0  0  0  0  0  0  0
    0.7300  -25.4449   16.1721 N   0  0  0  0  0  0  0  0  0  0  0  0
    0.4933  -25.9283   17.3718 C   0  0  0  0  0  0  0  0  0  0  0  0
    0.9706  -24.9373   18.6791 S   0  0  0  0  0  0  0  0  0  0  0  0
    1.5672  -23.7339   17.5759 C   0  0  0  0  0  0  0  0  0  0  0  0
    2.1564  -22.4401   17.7975 C   0  0  0  0  0  0  0  0  0  0  0  0
    3.9164  -19.2156   16.0246 H   0  0  0  0  0  0  0  0  0  0  0  0
    1.7077  -18.0412   18.1721 H   0  0  0  0  0  0  0  0  0  0  0  0
    1.1287  -16.3765   19.3927 H   0  0  0  0  0  0  0  0  0  0  0  0
    2.5201  -14.6476   19.7458 H   0  0  0  0  0  0  0  0  0  0  0  0
    3.4964  -11.5913   17.7004 H   0  0  0  0  0  0  0  0  0  0  0  0
    6.2633  -11.9063   20.7785 H   0  0  0  0  0  0  0  0  0  0  0  0
    5.1605  -14.2222   20.4289 H   0  0  0  0  0  0  0  0  0  0  0  0
    4.7616  -16.1135   16.2938 H   0  0  0  0  0  0  0  0  0  0  0  0
    2.3017  -21.2982   14.6109 H   0  0  0  0  0  0  0  0  0  0  0  0
    1.5289  -23.6209   14.2073 H   0  0  0  0  0  0  0  0  0  0  0  0
    0.0249  -26.8909   17.5279 H   0  0  0  0  0  0  0  0  0  0  0  0
    2.2266  -22.0940   18.8316 H   0  0  0  0  0  0  0  0  0  0  0  0
  1  2  2  0
  2  3  1  0
  3  4  1  0
  4  5  2  0
  5  6  1  0
  6  7  2  0
  7  8  1  0
  8  9  1  0
  9 10  2  0
 10 11  1  0
 11 12  2  0
 12 13  1  0
  8 14  2  0
  2 15  1  0
 15 16  2  0
 16 17  1  0
 17 18  2  0
 18 19  1  0
 19 20  2  0
 20 21  1  0
 21 22  1  0
 22 23  2  0
 14  4  1  0
 23 15  1  0
 13  9  1  0
 22 18  1  0
  3 24  1  0
  5 25  1  0
  6 26  1  0
  7 27  1  0
 10 28  1  0
 12 29  1  0
 13 30  1  0
 14 31  1  0
 16 32  1  0
 17 33  1  0
 20 34  1  0
 23 35  1  0
M  END
>  <Energy>  (612) 
213.90188482199309

>  <compound_id>  (612) 
12531

>  <target_id>  (612) 
1

>  <reference_id>  (612) 
68

>  <inspiration_ids>  (612) 
[80, 68]

>  <energy_score>  (612) 
80.36224042781203

>  <distance_score>  (612) 
16.926880497483214

>  <path>  (612) 
/opt/xchem-fragalysis-2/maxwin/BulkDock/SCRATCH/511013/C12531-P68/C12531-P68.minimised.mol

>  <scratch_subdir>  (612) 
/opt/xchem-fragalysis-2/maxwin/BulkDock/SCRATCH/511013/C12531-P68

>  <fragmenstein_runtime>  (612) 
14.36553406715393

>  <fragmenstein_outcome>  (612) 
too moved

>  <fragmenstein_mode>  (612) 
expansion

>  <fragmenstein_error>  (612) 


$$$$
C12532-P80
     RDKit          3D

 40 42  0  0  0  0  0  0  0  0999 V2000
   -0.3024   -6.3045   15.6961 C   0  0  0  0  0  0  0  0  0  0  0  0
    0.3998   -6.7301   16.9358 C   0  0  0  0  0  0  0  0  0  0  0  0
    1.6283   -6.3662   17.2592 N   0  0  0  0  0  0  0  0  0  0  0  0
    1.8419   -6.8718   18.5067 C   0  0  0  0  0  0  0  0  0  0  0  0
    0.7246   -7.5386   18.9569 C   0  0  0  0  0  0  0  0  0  0  0  0
   -0.1781   -7.5300   17.9259 N   0  0  0  0  0  0  0  0  0  0  0  0
   -1.5257   -8.1287   17.8523 C   0  0  0  0  0  0  0  0  0  0  0  0
   -2.2137   -8.9954   18.9772 C   0  0  0  0  0  0  0  0  0  0  0  0
   -2.2332  -10.4910   19.0344 N   0  0  0  0  0  0  0  0  0  0  0  0
   -1.9017  -11.4093   20.1234 C   0  0  0  0  0  0  0  0  0  0  0  0
   -1.4599  -11.1923   21.2049 O   0  0  0  0  0  0  0  0  0  0  0  0
   -2.3458  -13.0376   19.7722 C   0  0  0  0  0  0  0  0  0  0  0  0
   -2.2480  -15.0237   20.0957 C   0  0  0  0  0  0  0  0  0  0  0  0
   -3.3949  -16.5150   20.1304 C   0  0  0  0  0  0  0  0  0  0  0  0
   -4.7058  -16.5234   20.7021 C   0  0  0  0  0  0  0  0  0  0  0  0
   -5.5018  -17.6772   21.0200 C   0  0  0  0  0  0  0  0  0  0  0  0
   -5.0628  -18.9731   20.7429 C   0  0  0  0  0  0  0  0  0  0  0  0
   -5.7439  -20.1581   21.0546 N   0  0  0  0  0  0  0  0  0  0  0  0
   -5.0757  -21.1811   20.5895 C   0  0  0  0  0  0  0  0  0  0  0  0
   -3.6466  -20.7834   19.7634 S   0  0  0  0  0  0  0  0  0  0  0  0
   -3.8284  -19.0698   20.0925 C   0  0  0  0  0  0  0  0  0  0  0  0
   -2.9842  -17.8666   19.8143 C   0  0  0  0  0  0  0  0  0  0  0  0
   -0.9115   -5.4182   15.8984 H   0  0  0  0  0  0  0  0  0  0  0  0
   -0.9545   -7.0860   15.2997 H   0  0  0  0  0  0  0  0  0  0  0  0
    0.4240   -6.0484   14.9183 H   0  0  0  0  0  0  0  0  0  0  0  0
    2.7777   -6.7165   19.0251 H   0  0  0  0  0  0  0  0  0  0  0  0
    0.5264   -8.0420   19.8922 H   0  0  0  0  0  0  0  0  0  0  0  0
   -1.5997   -8.6428   16.8925 H   0  0  0  0  0  0  0  0  0  0  0  0
   -2.1624   -7.2359   17.7608 H   0  0  0  0  0  0  0  0  0  0  0  0
   -3.2820   -8.7461   18.9437 H   0  0  0  0  0  0  0  0  0  0  0  0
   -1.8536   -8.6556   19.9547 H   0  0  0  0  0  0  0  0  0  0  0  0
   -2.6674  -11.0115   18.2838 H   0  0  0  0  0  0  0  0  0  0  0  0
   -2.1937  -12.9837   18.6697 H   0  0  0  0  0  0  0  0  0  0  0  0
   -3.2981  -12.6642   20.1365 H   0  0  0  0  0  0  0  0  0  0  0  0
   -1.8524  -14.9645   21.0598 H   0  0  0  0  0  0  0  0  0  0  0  0
   -1.5294  -15.4021   19.3778 H   0  0  0  0  0  0  0  0  0  0  0  0
   -5.2199  -15.6052   20.9607 H   0  0  0  0  0  0  0  0  0  0  0  0
   -6.4708  -17.5330   21.4910 H   0  0  0  0  0  0  0  0  0  0  0  0
   -5.4182  -22.2009   20.7059 H   0  0  0  0  0  0  0  0  0  0  0  0
   -2.0050  -18.0207   19.3780 H   0  0  0  0  0  0  0  0  0  0  0  0
  1  2  1  0
  2  3  2  0
  3  4  1  0
  4  5  2  0
  5  6  1  0
  6  7  1  0
  7  8  1  0
  8  9  1  0
  9 10  1  0
 10 11  2  0
 10 12  1  0
 12 13  1  0
 13 14  1  0
 14 15  2  0
 15 16  1  0
 16 17  2  0
 17 18  1  0
 18 19  2  0
 19 20  1  0
 20 21  1  0
 21 22  2  0
  6  2  1  0
 22 14  1  0
 21 17  1  0
  1 23  1  0
  1 24  1  0
  1 25  1  0
  4 26  1  0
  5 27  1  0
  7 28  1  0
  7 29  1  0
  8 30  1  0
  8 31  1  0
  9 32  1  0
 12 33  1  0
 12 34  1  0
 13 35  1  0
 13 36  1  0
 15 37  1  0
 16 38  1  0
 19 39  1  0
 22 40  1  0
M  END
>  <Energy>  (613) 
207.25476381712076

>  <compound_id>  (613) 
12532

>  <target_id>  (613) 
1

>  <reference_id>  (613) 
80

>  <inspiration_ids>  (613) 
[80, 68]

>  <energy_score>  (613) 
128.06956902320564

>  <distance_score>  (613) 
17.38424717958835

>  <path>  (613) 
/opt/xchem-fragalysis-2/maxwin/BulkDock/SCRATCH/511013/C12532-P80/C12532-P80.minimised.mol

>  <scratch_subdir>  (613) 
/opt/xchem-fragalysis-2/maxwin/BulkDock/SCRATCH/511013/C12532-P80

>  <fragmenstein_runtime>  (613) 
8.981510877609253

>  <fragmenstein_outcome>  (613) 
too moved

>  <fragmenstein_mode>  (613) 
expansion

>  <fragmenstein_error>  (613) 


$$$$
C12532-P68
     RDKit          3D

 40 42  0  0  0  0  0  0  0  0999 V2000
    5.9829  -21.4234   15.4736 C   0  0  0  0  0  0  0  0  0  0  0  0
    5.3149  -20.1041   15.6219 C   0  0  0  0  0  0  0  0  0  0  0  0
    5.9342  -18.9344   15.5852 N   0  0  0  0  0  0  0  0  0  0  0  0
    4.9409  -17.9997   15.6302 C   0  0  0  0  0  0  0  0  0  0  0  0
    3.7164  -18.6105   15.7646 C   0  0  0  0  0  0  0  0  0  0  0  0
    3.9451  -19.9678   15.8206 N   0  0  0  0  0  0  0  0  0  0  0  0
    2.9175  -21.0491   15.7944 C   0  0  0  0  0  0  0  0  0  0  0  0
    2.3596  -21.6359   17.1517 C   0  0  0  0  0  0  0  0  0  0  0  0
    1.3522  -22.7830   17.1398 N   0  0  0  0  0  0  0  0  0  0  0  0
    0.5292  -23.3546   18.2211 C   0  0  0  0  0  0  0  0  0  0  0  0
    0.3886  -23.0074   19.3629 O   0  0  0  0  0  0  0  0  0  0  0  0
   -0.3541  -24.6260   17.7738 C   0  0  0  0  0  0  0  0  0  0  0  0
   -1.2746  -25.1891   18.9641 C   0  0  0  0  0  0  0  0  0  0  0  0
   -2.2986  -26.3412   18.8920 C   0  0  0  0  0  0  0  0  0  0  0  0
   -3.2877  -26.3893   19.9003 C   0  0  0  0  0  0  0  0  0  0  0  0
   -4.2532  -27.4074   19.9729 C   0  0  0  0  0  0  0  0  0  0  0  0
   -4.2441  -28.4426   19.0233 C   0  0  0  0  0  0  0  0  0  0  0  0
   -5.1448  -29.4918   18.9568 N   0  0  0  0  0  0  0  0  0  0  0  0
   -4.8786  -30.2285   17.9067 C   0  0  0  0  0  0  0  0  0  0  0  0
   -3.4865  -29.7967   17.0118 S   0  0  0  0  0  0  0  0  0  0  0  0
   -3.2542  -28.4233   18.0379 C   0  0  0  0  0  0  0  0  0  0  0  0
   -2.2726  -27.3929   17.9626 C   0  0  0  0  0  0  0  0  0  0  0  0
    5.6666  -22.1174   16.2581 H   0  0  0  0  0  0  0  0  0  0  0  0
    7.0694  -21.3105   15.5436 H   0  0  0  0  0  0  0  0  0  0  0  0
    5.7498  -21.8622   14.4988 H   0  0  0  0  0  0  0  0  0  0  0  0
    5.1562  -16.9462   15.5560 H   0  0  0  0  0  0  0  0  0  0  0  0
    2.7209  -18.2083   15.7846 H   0  0  0  0  0  0  0  0  0  0  0  0
    2.1024  -20.6576   15.1835 H   0  0  0  0  0  0  0  0  0  0  0  0
    3.3515  -21.8716   15.2145 H   0  0  0  0  0  0  0  0  0  0  0  0
    3.2019  -22.0164   17.7373 H   0  0  0  0  0  0  0  0  0  0  0  0
    1.9029  -20.8340   17.7420 H   0  0  0  0  0  0  0  0  0  0  0  0
    1.2933  -23.3827   16.3258 H   0  0  0  0  0  0  0  0  0  0  0  0
    0.3264  -25.4138   17.4357 H   0  0  0  0  0  0  0  0  0  0  0  0
   -0.9929  -24.3187   16.9393 H   0  0  0  0  0  0  0  0  0  0  0  0
   -0.5866  -25.4610   19.7772 H   0  0  0  0  0  0  0  0  0  0  0  0
   -1.8345  -24.3139   19.3241 H   0  0  0  0  0  0  0  0  0  0  0  0
   -3.3183  -25.6054   20.6578 H   0  0  0  0  0  0  0  0  0  0  0  0
   -5.0129  -27.3876   20.7468 H   0  0  0  0  0  0  0  0  0  0  0  0
   -5.4952  -31.0681   17.6209 H   0  0  0  0  0  0  0  0  0  0  0  0
   -1.5170  -27.4288   17.1835 H   0  0  0  0  0  0  0  0  0  0  0  0
  1  2  1  0
  2  3  2  0
  3  4  1  0
  4  5  2  0
  5  6  1  0
  6  7  1  0
  7  8  1  0
  8  9  1  0
  9 10  1  0
 10 11  2  0
 10 12  1  0
 12 13  1  0
 13 14  1  0
 14 15  2  0
 15 16  1  0
 16 17  2  0
 17 18  1  0
 18 19  2  0
 19 20  1  0
 20 21  1  0
 21 22  2  0
  6  2  1  0
 22 14  1  0
 21 17  1  0
  1 23  1  0
  1 24  1  0
  1 25  1  0
  4 26  1  0
  5 27  1  0
  7 28  1  0
  7 29  1  0
  8 30  1  0
  8 31  1  0
  9 32  1  0
 12 33  1  0
 12 34  1  0
 13 35  1  0
 13 36  1  0
 15 37  1  0
 16 38  1  0
 19 39  1  0
 22 40  1  0
M  END
>  <Energy>  (614) 
40.4880060431028

>  <compound_id>  (614) 
12532

>  <target_id>  (614) 
1

>  <reference_id>  (614) 
68

>  <inspiration_ids>  (614) 
[80, 68]

>  <energy_score>  (614) 
-38.69718875081389

>  <distance_score>  (614) 
14.330586252006775

>  <path>  (614) 
/opt/xchem-fragalysis-2/maxwin/BulkDock/SCRATCH/511013/C12532-P68/C12532-P68.minimised.mol

>  <scratch_subdir>  (614) 
/opt/xchem-fragalysis-2/maxwin/BulkDock/SCRATCH/511013/C12532-P68

>  <fragmenstein_runtime>  (614) 
19.00663995742798

>  <fragmenstein_outcome>  (614) 
too moved

>  <fragmenstein_mode>  (614) 
expansion

>  <fragmenstein_error>  (614) 


$$$$
C12531-P80
     RDKit          3D

 35 38  0  0  0  0  0  0  0  0999 V2000
    3.7012  -25.6139   16.2213 O   0  0  0  0  0  0  0  0  0  0  0  0
    3.0069  -24.6588   16.4705 C   0  0  0  0  0  0  0  0  0  0  0  0
    3.2104  -23.2023   16.1687 N   0  0  0  0  0  0  0  0  0  0  0  0
    4.3452  -22.4995   15.5620 C   0  0  0  0  0  0  0  0  0  0  0  0
    5.3953  -23.3006   15.1020 C   0  0  0  0  0  0  0  0  0  0  0  0
    6.5442  -22.7612   14.5107 C   0  0  0  0  0  0  0  0  0  0  0  0
    6.7068  -21.3819   14.3590 C   0  0  0  0  0  0  0  0  0  0  0  0
    5.7272  -20.4746   14.7859 C   0  0  0  0  0  0  0  0  0  0  0  0
    6.0566  -19.0037   14.5884 C   0  0  0  0  0  0  0  0  0  0  0  0
    5.3144  -17.8755   14.2656 C   0  0  0  0  0  0  0  0  0  0  0  0
    6.0766  -16.7096   14.2570 N   0  0  0  0  0  0  0  0  0  0  0  0
    7.2975  -17.1069   14.5094 C   0  0  0  0  0  0  0  0  0  0  0  0
    7.3396  -18.4603   14.7156 N   0  0  0  0  0  0  0  0  0  0  0  0
    4.5194  -21.0690   15.3747 C   0  0  0  0  0  0  0  0  0  0  0  0
    1.6629  -25.1349   17.1607 C   0  0  0  0  0  0  0  0  0  0  0  0
    0.3905  -24.6016   16.9521 C   0  0  0  0  0  0  0  0  0  0  0  0
   -0.7944  -25.2591   17.4271 C   0  0  0  0  0  0  0  0  0  0  0  0
   -0.7476  -26.4917   18.1275 C   0  0  0  0  0  0  0  0  0  0  0  0
   -1.8245  -27.2407   18.6024 N   0  0  0  0  0  0  0  0  0  0  0  0
   -1.3806  -28.3332   19.1843 C   0  0  0  0  0  0  0  0  0  0  0  0
    0.3211  -28.5460   19.1843 S   0  0  0  0  0  0  0  0  0  0  0  0
    0.5152  -27.0390   18.3472 C   0  0  0  0  0  0  0  0  0  0  0  0
    1.6962  -26.3789   17.8808 C   0  0  0  0  0  0  0  0  0  0  0  0
    2.4641  -22.6656   16.5978 H   0  0  0  0  0  0  0  0  0  0  0  0
    5.3453  -24.3838   15.1767 H   0  0  0  0  0  0  0  0  0  0  0  0
    7.3185  -23.4373   14.1529 H   0  0  0  0  0  0  0  0  0  0  0  0
    7.6120  -21.0379   13.8640 H   0  0  0  0  0  0  0  0  0  0  0  0
    4.2530  -17.8601   14.0467 H   0  0  0  0  0  0  0  0  0  0  0  0
    8.1803  -16.4838   14.5623 H   0  0  0  0  0  0  0  0  0  0  0  0
    8.1718  -18.9881   14.9359 H   0  0  0  0  0  0  0  0  0  0  0  0
    3.7134  -20.4070   15.6931 H   0  0  0  0  0  0  0  0  0  0  0  0
    0.2801  -23.6983   16.3579 H   0  0  0  0  0  0  0  0  0  0  0  0
   -1.7684  -24.8279   17.2132 H   0  0  0  0  0  0  0  0  0  0  0  0
   -2.0445  -29.0593   19.6355 H   0  0  0  0  0  0  0  0  0  0  0  0
    2.6583  -26.8658   18.0387 H   0  0  0  0  0  0  0  0  0  0  0  0
  1  2  2  0
  2  3  1  0
  3  4  1  0
  4  5  2  0
  5  6  1  0
  6  7  2  0
  7  8  1  0
  8  9  1  0
  9 10  2  0
 10 11  1  0
 11 12  2  0
 12 13  1  0
  8 14  2  0
  2 15  1  0
 15 16  2  0
 16 17  1  0
 17 18  2  0
 18 19  1  0
 19 20  2  0
 20 21  1  0
 21 22  1  0
 22 23  2  0
 14  4  1  0
 23 15  1  0
 13  9  1  0
 22 18  1  0
  3 24  1  0
  5 25  1  0
  6 26  1  0
  7 27  1  0
 10 28  1  0
 12 29  1  0
 13 30  1  0
 14 31  1  0
 16 32  1  0
 17 33  1  0
 20 34  1  0
 23 35  1  0
M  END
>  <Energy>  (615) 
63.23711696827182

>  <compound_id>  (615) 
12531

>  <target_id>  (615) 
1

>  <reference_id>  (615) 
80

>  <inspiration_ids>  (615) 
[80, 68]

>  <energy_score>  (615) 
-70.3025274259088

>  <distance_score>  (615) 
16.11362974491664

>  <path>  (615) 
/opt/xchem-fragalysis-2/maxwin/BulkDock/SCRATCH/511013/C12531-P80/C12531-P80.minimised.mol

>  <scratch_subdir>  (615) 
/opt/xchem-fragalysis-2/maxwin/BulkDock/SCRATCH/511013/C12531-P80

>  <fragmenstein_runtime>  (615) 
10.998801231384277

>  <fragmenstein_outcome>  (615) 
too moved

>  <fragmenstein_mode>  (615) 
expansion

>  <fragmenstein_error>  (615) 


$$$$
C12531-P68
     RDKit          3D

 35 38  0  0  0  0  0  0  0  0999 V2000
    1.3819  -19.9510   17.9874 O   0  0  0  0  0  0  0  0  0  0  0  0
    2.2792  -20.0058   17.1829 C   0  0  0  0  0  0  0  0  0  0  0  0
    3.2050  -18.8258   16.6260 N   0  0  0  0  0  0  0  0  0  0  0  0
    3.2551  -17.3542   16.9970 C   0  0  0  0  0  0  0  0  0  0  0  0
    2.1888  -17.1497   17.7791 C   0  0  0  0  0  0  0  0  0  0  0  0
    1.7879  -16.1350   18.5804 C   0  0  0  0  0  0  0  0  0  0  0  0
    2.6129  -15.1234   18.7835 C   0  0  0  0  0  0  0  0  0  0  0  0
    3.6909  -14.9184   18.0301 C   0  0  0  0  0  0  0  0  0  0  0  0
    4.2520  -13.5146   18.6885 C   0  0  0  0  0  0  0  0  0  0  0  0
    4.0618  -12.0786   18.4829 C   0  0  0  0  0  0  0  0  0  0  0  0
    4.9501  -11.3014   19.2273 N   0  0  0  0  0  0  0  0  0  0  0  0
    5.5200  -12.1531   20.0348 C   0  0  0  0  0  0  0  0  0  0  0  0
    5.0000  -13.4068   19.8637 N   0  0  0  0  0  0  0  0  0  0  0  0
    3.9766  -16.1263   17.0268 C   0  0  0  0  0  0  0  0  0  0  0  0
    2.4907  -21.4922   16.7380 C   0  0  0  0  0  0  0  0  0  0  0  0
    2.2397  -21.9784   15.4607 C   0  0  0  0  0  0  0  0  0  0  0  0
    1.7233  -23.3101   15.2317 C   0  0  0  0  0  0  0  0  0  0  0  0
    1.3419  -24.1899   16.2813 C   0  0  0  0  0  0  0  0  0  0  0  0
    0.7300  -25.4449   16.1721 N   0  0  0  0  0  0  0  0  0  0  0  0
    0.4933  -25.9283   17.3718 C   0  0  0  0  0  0  0  0  0  0  0  0
    0.9706  -24.9373   18.6791 S   0  0  0  0  0  0  0  0  0  0  0  0
    1.5672  -23.7339   17.5759 C   0  0  0  0  0  0  0  0  0  0  0  0
    2.1564  -22.4401   17.7975 C   0  0  0  0  0  0  0  0  0  0  0  0
    3.9164  -19.2156   16.0246 H   0  0  0  0  0  0  0  0  0  0  0  0
    1.7077  -18.0412   18.1721 H   0  0  0  0  0  0  0  0  0  0  0  0
    1.1287  -16.3765   19.3927 H   0  0  0  0  0  0  0  0  0  0  0  0
    2.5201  -14.6476   19.7458 H   0  0  0  0  0  0  0  0  0  0  0  0
    3.4964  -11.5913   17.7004 H   0  0  0  0  0  0  0  0  0  0  0  0
    6.2633  -11.9063   20.7785 H   0  0  0  0  0  0  0  0  0  0  0  0
    5.1605  -14.2222   20.4289 H   0  0  0  0  0  0  0  0  0  0  0  0
    4.7616  -16.1135   16.2938 H   0  0  0  0  0  0  0  0  0  0  0  0
    2.3017  -21.2982   14.6109 H   0  0  0  0  0  0  0  0  0  0  0  0
    1.5289  -23.6209   14.2073 H   0  0  0  0  0  0  0  0  0  0  0  0
    0.0249  -26.8909   17.5279 H   0  0  0  0  0  0  0  0  0  0  0  0
    2.2266  -22.0940   18.8316 H   0  0  0  0  0  0  0  0  0  0  0  0
  1  2  2  0
  2  3  1  0
  3  4  1  0
  4  5  2  0
  5  6  1  0
  6  7  2  0
  7  8  1  0
  8  9  1  0
  9 10  2  0
 10 11  1  0
 11 12  2  0
 12 13  1  0
  8 14  2  0
  2 15  1  0
 15 16  2  0
 16 17  1  0
 17 18  2  0
 18 19  1  0
 19 20  2  0
 20 21  1  0
 21 22  1  0
 22 23  2  0
 14  4  1  0
 23 15  1  0
 13  9  1  0
 22 18  1  0
  3 24  1  0
  5 25  1  0
  6 26  1  0
  7 27  1  0
 10 28  1  0
 12 29  1  0
 13 30  1  0
 14 31  1  0
 16 32  1  0
 17 33  1  0
 20 34  1  0
 23 35  1  0
M  END
>  <Energy>  (616) 
213.90188482199309

>  <compound_id>  (616) 
12531

>  <target_id>  (616) 
1

>  <reference_id>  (616) 
68

>  <inspiration_ids>  (616) 
[80, 68]

>  <energy_score>  (616) 
80.36224042781203

>  <distance_score>  (616) 
16.926880497483214

>  <path>  (616) 
/opt/xchem-fragalysis-2/maxwin/BulkDock/SCRATCH/511013/C12531-P68/C12531-P68.minimised.mol

>  <scratch_subdir>  (616) 
/opt/xchem-fragalysis-2/maxwin/BulkDock/SCRATCH/511013/C12531-P68

>  <fragmenstein_runtime>  (616) 
14.421860456466675

>  <fragmenstein_outcome>  (616) 
too moved

>  <fragmenstein_mode>  (616) 
expansion

>  <fragmenstein_error>  (616) 


$$$$
C12533-P80
     RDKit          3D

 38 41  0  0  0  0  0  0  0  0999 V2000
    2.5379  -14.9702   18.6856 O   0  0  0  0  0  0  0  0  0  0  0  0
    2.3267  -14.7822   19.8805 C   0  0  0  0  0  0  0  0  0  0  0  0
    0.8197  -16.0585   20.5373 C   0  0  0  0  0  0  0  0  0  0  0  0
   -0.1529  -17.7098   20.3269 C   0  0  0  0  0  0  0  0  0  0  0  0
   -0.6409  -19.0920   21.0520 C   0  0  0  0  0  0  0  0  0  0  0  0
   -1.7109  -19.1355   21.9690 C   0  0  0  0  0  0  0  0  0  0  0  0
   -2.3368  -20.3538   22.4020 C   0  0  0  0  0  0  0  0  0  0  0  0
   -1.9418  -21.6131   21.8962 C   0  0  0  0  0  0  0  0  0  0  0  0
   -2.4954  -22.8612   22.2065 N   0  0  0  0  0  0  0  0  0  0  0  0
   -1.8781  -23.7956   21.5192 C   0  0  0  0  0  0  0  0  0  0  0  0
   -0.6297  -23.2576   20.4703 S   0  0  0  0  0  0  0  0  0  0  0  0
   -0.8970  -21.6100   20.9678 C   0  0  0  0  0  0  0  0  0  0  0  0
   -0.2488  -20.3807   20.5540 C   0  0  0  0  0  0  0  0  0  0  0  0
    3.3103  -13.6699   20.9090 N   0  0  0  0  0  0  0  0  0  0  0  0
    4.6781  -12.8233   20.5697 C   0  0  0  0  0  0  0  0  0  0  0  0
    5.9056  -13.0501   20.0096 N   0  0  0  0  0  0  0  0  0  0  0  0
    7.1094  -12.1383   20.6306 C   0  0  0  0  0  0  0  0  0  0  0  0
    8.7299  -12.1275   20.6565 C   0  0  0  0  0  0  0  0  0  0  0  0
    9.4326  -10.8547   20.2470 C   0  0  0  0  0  0  0  0  0  0  0  0
    9.5117  -11.3249   21.6691 C   0  0  0  0  0  0  0  0  0  0  0  0
    6.4997  -11.3730   21.4907 C   0  0  0  0  0  0  0  0  0  0  0  0
    5.1707  -11.6111   20.9579 N   0  0  0  0  0  0  0  0  0  0  0  0
    0.0810  -15.8546   19.7993 H   0  0  0  0  0  0  0  0  0  0  0  0
    0.3894  -15.7737   21.4970 H   0  0  0  0  0  0  0  0  0  0  0  0
    0.1318  -18.0811   19.3311 H   0  0  0  0  0  0  0  0  0  0  0  0
   -1.1620  -17.2783   20.1811 H   0  0  0  0  0  0  0  0  0  0  0  0
   -2.1283  -18.2027   22.3433 H   0  0  0  0  0  0  0  0  0  0  0  0
   -3.1584  -20.3103   23.1115 H   0  0  0  0  0  0  0  0  0  0  0  0
   -2.1369  -24.8430   21.6008 H   0  0  0  0  0  0  0  0  0  0  0  0
    0.5396  -20.4426   19.8042 H   0  0  0  0  0  0  0  0  0  0  0  0
    2.8976  -13.6187   21.8220 H   0  0  0  0  0  0  0  0  0  0  0  0
    9.2171  -13.0562   20.3896 H   0  0  0  0  0  0  0  0  0  0  0  0
   10.3149  -10.9532   19.6235 H   0  0  0  0  0  0  0  0  0  0  0  0
    8.8304   -9.9857   20.0093 H   0  0  0  0  0  0  0  0  0  0  0  0
   10.4597  -11.7321   22.0083 H   0  0  0  0  0  0  0  0  0  0  0  0
    8.9963  -10.7665   22.4357 H   0  0  0  0  0  0  0  0  0  0  0  0
    6.7320  -10.7783   22.3645 H   0  0  0  0  0  0  0  0  0  0  0  0
    5.2368  -11.3476   19.9946 H   0  0  0  0  0  0  0  0  0  0  0  0
  1  2  2  0
  2  3  1  0
  3  4  1  0
  4  5  1  0
  5  6  2  0
  6  7  1  0
  7  8  2  0
  8  9  1  0
  9 10  2  0
 10 11  1  0
 11 12  1  0
 12 13  2  0
  2 14  1  0
 14 15  1  0
 15 16  2  0
 16 17  1  0
 17 18  1  0
 18 19  1  0
 19 20  1  0
 17 21  2  0
 21 22  1  0
 13  5  1  0
 22 15  1  0
 12  8  1  0
 20 18  1  0
  3 23  1  0
  3 24  1  0
  4 25  1  0
  4 26  1  0
  6 27  1  0
  7 28  1  0
 10 29  1  0
 13 30  1  0
 14 31  1  0
 18 32  1  0
 19 33  1  0
 19 34  1  0
 20 35  1  0
 20 36  1  0
 21 37  1  0
 22 38  1  0
M  END
>  <Energy>  (617) 
407.65398763207446

>  <compound_id>  (617) 
12533

>  <target_id>  (617) 
1

>  <reference_id>  (617) 
80

>  <inspiration_ids>  (617) 
[80, 68]

>  <energy_score>  (617) 
351.6251872070475

>  <distance_score>  (617) 
16.422294598324267

>  <path>  (617) 
/opt/xchem-fragalysis-2/maxwin/BulkDock/SCRATCH/511013/C12533-P80/C12533-P80.minimised.mol

>  <scratch_subdir>  (617) 
/opt/xchem-fragalysis-2/maxwin/BulkDock/SCRATCH/511013/C12533-P80

>  <fragmenstein_runtime>  (617) 
9.714415073394775

>  <fragmenstein_outcome>  (617) 
too moved

>  <fragmenstein_mode>  (617) 
expansion

>  <fragmenstein_error>  (617) 


$$$$
C12533-P68
     RDKit          3D

 38 41  0  0  0  0  0  0  0  0999 V2000
    0.9815  -24.1650   22.0075 O   0  0  0  0  0  0  0  0  0  0  0  0
    0.6869  -23.8613   23.1320 C   0  0  0  0  0  0  0  0  0  0  0  0
   -0.3430  -24.8074   23.9261 C   0  0  0  0  0  0  0  0  0  0  0  0
   -1.0940  -25.9154   23.0676 C   0  0  0  0  0  0  0  0  0  0  0  0
   -1.8288  -27.0845   23.7598 C   0  0  0  0  0  0  0  0  0  0  0  0
   -3.1007  -26.9266   24.3195 C   0  0  0  0  0  0  0  0  0  0  0  0
   -3.7893  -28.0080   24.9125 C   0  0  0  0  0  0  0  0  0  0  0  0
   -3.2072  -29.2929   24.9709 C   0  0  0  0  0  0  0  0  0  0  0  0
   -3.7443  -30.4286   25.5720 N   0  0  0  0  0  0  0  0  0  0  0  0
   -2.9069  -31.4327   25.4467 C   0  0  0  0  0  0  0  0  0  0  0  0
   -1.4615  -31.1092   24.5856 S   0  0  0  0  0  0  0  0  0  0  0  0
   -1.9517  -29.4614   24.3858 C   0  0  0  0  0  0  0  0  0  0  0  0
   -1.2650  -28.3822   23.7714 C   0  0  0  0  0  0  0  0  0  0  0  0
    1.1484  -22.7482   23.9755 N   0  0  0  0  0  0  0  0  0  0  0  0
    2.1249  -21.7780   23.7537 C   0  0  0  0  0  0  0  0  0  0  0  0
    2.4655  -20.8033   24.5948 N   0  0  0  0  0  0  0  0  0  0  0  0
    3.6205  -20.2313   24.0992 C   0  0  0  0  0  0  0  0  0  0  0  0
    4.4669  -19.1343   24.8073 C   0  0  0  0  0  0  0  0  0  0  0  0
    5.9414  -19.3466   25.0300 C   0  0  0  0  0  0  0  0  0  0  0  0
    4.9913  -19.4245   26.1892 C   0  0  0  0  0  0  0  0  0  0  0  0
    3.9602  -20.8160   22.9140 C   0  0  0  0  0  0  0  0  0  0  0  0
    2.9391  -21.6967   22.6368 N   0  0  0  0  0  0  0  0  0  0  0  0
   -1.0927  -24.1713   24.4101 H   0  0  0  0  0  0  0  0  0  0  0  0
    0.2378  -25.3069   24.7107 H   0  0  0  0  0  0  0  0  0  0  0  0
   -0.3603  -26.3542   22.3784 H   0  0  0  0  0  0  0  0  0  0  0  0
   -1.8160  -25.4042   22.4168 H   0  0  0  0  0  0  0  0  0  0  0  0
   -3.5854  -25.9517   24.2982 H   0  0  0  0  0  0  0  0  0  0  0  0
   -4.7693  -27.8370   25.3436 H   0  0  0  0  0  0  0  0  0  0  0  0
   -3.1180  -32.4130   25.8528 H   0  0  0  0  0  0  0  0  0  0  0  0
   -0.2903  -28.5586   23.3210 H   0  0  0  0  0  0  0  0  0  0  0  0
    0.6269  -22.7499   24.8417 H   0  0  0  0  0  0  0  0  0  0  0  0
    4.1330  -18.1261   24.6215 H   0  0  0  0  0  0  0  0  0  0  0  0
    6.5920  -18.4817   24.9677 H   0  0  0  0  0  0  0  0  0  0  0  0
    6.3943  -20.2700   24.6885 H   0  0  0  0  0  0  0  0  0  0  0  0
    4.9892  -18.6129   26.9067 H   0  0  0  0  0  0  0  0  0  0  0  0
    4.7854  -20.3985   26.6188 H   0  0  0  0  0  0  0  0  0  0  0  0
    4.8094  -20.6919   22.2633 H   0  0  0  0  0  0  0  0  0  0  0  0
    2.8727  -22.2968   21.8251 H   0  0  0  0  0  0  0  0  0  0  0  0
  1  2  2  0
  2  3  1  0
  3  4  1  0
  4  5  1  0
  5  6  2  0
  6  7  1  0
  7  8  2  0
  8  9  1  0
  9 10  2  0
 10 11  1  0
 11 12  1  0
 12 13  2  0
  2 14  1  0
 14 15  1  0
 15 16  2  0
 16 17  1  0
 17 18  1  0
 18 19  1  0
 19 20  1  0
 17 21  2  0
 21 22  1  0
 13  5  1  0
 22 15  1  0
 12  8  1  0
 20 18  1  0
  3 23  1  0
  3 24  1  0
  4 25  1  0
  4 26  1  0
  6 27  1  0
  7 28  1  0
 10 29  1  0
 13 30  1  0
 14 31  1  0
 18 32  1  0
 19 33  1  0
 19 34  1  0
 20 35  1  0
 20 36  1  0
 21 37  1  0
 22 38  1  0
M  END
>  <Energy>  (618) 
2.5720332174564131

>  <compound_id>  (618) 
12533

>  <target_id>  (618) 
1

>  <reference_id>  (618) 
68

>  <inspiration_ids>  (618) 
[80, 68]

>  <energy_score>  (618) 
-53.456767207572284

>  <distance_score>  (618) 
15.520205842748341

>  <path>  (618) 
/opt/xchem-fragalysis-2/maxwin/BulkDock/SCRATCH/511013/C12533-P68/C12533-P68.minimised.mol

>  <scratch_subdir>  (618) 
/opt/xchem-fragalysis-2/maxwin/BulkDock/SCRATCH/511013/C12533-P68

>  <fragmenstein_runtime>  (618) 
23.714719533920288

>  <fragmenstein_outcome>  (618) 
too moved

>  <fragmenstein_mode>  (618) 
expansion

>  <fragmenstein_error>  (618) 


$$$$
C12534-P80
     RDKit          3D

 36 38  0  0  0  0  0  0  0  0999 V2000
    8.7642  -13.3401   20.3048 C   0  0  0  0  0  0  0  0  0  0  0  0
    7.9570  -12.1823   19.9898 N   0  0  0  0  0  0  0  0  0  0  0  0
    8.6590  -11.0232   19.7190 C   0  0  0  0  0  0  0  0  0  0  0  0
    7.7878  -10.2487   19.0396 C   0  0  0  0  0  0  0  0  0  0  0  0
    6.5580  -10.8323   19.0097 N   0  0  0  0  0  0  0  0  0  0  0  0
    6.6032  -12.0240   19.5730 C   0  0  0  0  0  0  0  0  0  0  0  0
    5.2784  -12.8410   19.9672 C   0  0  0  0  0  0  0  0  0  0  0  0
    3.8341  -13.5481   19.1739 C   0  0  0  0  0  0  0  0  0  0  0  0
    4.6215  -14.5134   18.3791 N   0  0  0  0  0  0  0  0  0  0  0  0
    2.4410  -14.9596   18.9047 C   0  0  0  0  0  0  0  0  0  0  0  0
    2.5181  -15.3717   17.7734 O   0  0  0  0  0  0  0  0  0  0  0  0
    1.2089  -15.7954   20.1387 N   0  0  0  0  0  0  0  0  0  0  0  0
    0.1344  -17.2589   19.9662 C   0  0  0  0  0  0  0  0  0  0  0  0
   -1.2095  -17.2321   20.3053 C   0  0  0  0  0  0  0  0  0  0  0  0
   -2.1547  -18.3600   20.3786 C   0  0  0  0  0  0  0  0  0  0  0  0
   -1.7753  -19.6700   20.0582 C   0  0  0  0  0  0  0  0  0  0  0  0
   -2.4852  -20.8605   20.2246 N   0  0  0  0  0  0  0  0  0  0  0  0
   -1.8094  -21.8449   19.6720 C   0  0  0  0  0  0  0  0  0  0  0  0
   -0.3532  -21.3965   18.8731 S   0  0  0  0  0  0  0  0  0  0  0  0
   -0.5662  -19.7467   19.3812 C   0  0  0  0  0  0  0  0  0  0  0  0
    0.2531  -18.5497   19.1864 C   0  0  0  0  0  0  0  0  0  0  0  0
    9.0878  -13.2856   21.3439 H   0  0  0  0  0  0  0  0  0  0  0  0
    8.2661  -14.2640   20.0664 H   0  0  0  0  0  0  0  0  0  0  0  0
    9.6632  -13.3128   19.6765 H   0  0  0  0  0  0  0  0  0  0  0  0
    9.7066  -10.9024   19.9572 H   0  0  0  0  0  0  0  0  0  0  0  0
    7.9323   -9.2828   18.6187 H   0  0  0  0  0  0  0  0  0  0  0  0
    5.6366  -13.5412   20.6430 H   0  0  0  0  0  0  0  0  0  0  0  0
    4.8483  -12.1397   20.6710 H   0  0  0  0  0  0  0  0  0  0  0  0
    3.5122  -13.4839   20.2737 H   0  0  0  0  0  0  0  0  0  0  0  0
    4.0285  -14.7954   17.5937 H   0  0  0  0  0  0  0  0  0  0  0  0
    4.7092  -15.3583   18.9334 H   0  0  0  0  0  0  0  0  0  0  0  0
    1.2114  -15.2894   20.9842 H   0  0  0  0  0  0  0  0  0  0  0  0
   -1.6538  -16.2377   20.3257 H   0  0  0  0  0  0  0  0  0  0  0  0
   -3.1790  -18.1668   20.6865 H   0  0  0  0  0  0  0  0  0  0  0  0
   -2.1547  -22.8703   19.6877 H   0  0  0  0  0  0  0  0  0  0  0  0
    1.0808  -18.6863   18.4841 H   0  0  0  0  0  0  0  0  0  0  0  0
  1  2  1  0
  2  3  1  0
  3  4  2  0
  4  5  1  0
  5  6  2  0
  6  7  1  0
  7  8  1  0
  8  9  1  0
  8 10  1  0
 10 11  2  0
 10 12  1  0
 12 13  1  0
 13 14  2  0
 14 15  1  0
 15 16  2  0
 16 17  1  0
 17 18  2  0
 18 19  1  0
 19 20  1  0
 20 21  2  0
  6  2  1  0
 21 13  1  0
 20 16  1  0
  1 22  1  0
  1 23  1  0
  1 24  1  0
  3 25  1  0
  4 26  1  0
  7 27  1  0
  7 28  1  0
  8 29  1  0
  9 30  1  0
  9 31  1  0
 12 32  1  0
 14 33  1  0
 15 34  1  0
 18 35  1  0
 21 36  1  0
M  END
>  <Energy>  (619) 
456.97004493759994

>  <compound_id>  (619) 
12534

>  <target_id>  (619) 
1

>  <reference_id>  (619) 
80

>  <inspiration_ids>  (619) 
[80, 68]

>  <energy_score>  (619) 
297.74261887200237

>  <distance_score>  (619) 
17.300726907012102

>  <path>  (619) 
/opt/xchem-fragalysis-2/maxwin/BulkDock/SCRATCH/511013/C12534-P80/C12534-P80.minimised.mol

>  <scratch_subdir>  (619) 
/opt/xchem-fragalysis-2/maxwin/BulkDock/SCRATCH/511013/C12534-P80

>  <fragmenstein_runtime>  (619) 
12.339229822158813

>  <fragmenstein_outcome>  (619) 
too moved

>  <fragmenstein_mode>  (619) 
expansion

>  <fragmenstein_error>  (619) 


$$$$
C12534-P68
     RDKit          3D

 36 38  0  0  0  0  0  0  0  0999 V2000
    6.2143  -13.5125   19.9060 C   0  0  0  0  0  0  0  0  0  0  0  0
    5.0441  -14.1130   19.2449 N   0  0  0  0  0  0  0  0  0  0  0  0
    4.0300  -13.4124   19.6651 C   0  0  0  0  0  0  0  0  0  0  0  0
    3.6774  -13.3044   18.3473 C   0  0  0  0  0  0  0  0  0  0  0  0
    3.1880  -14.4828   17.9731 N   0  0  0  0  0  0  0  0  0  0  0  0
    4.2136  -15.1474   18.3955 C   0  0  0  0  0  0  0  0  0  0  0  0
    4.3166  -16.7250   18.1355 C   0  0  0  0  0  0  0  0  0  0  0  0
    3.8746  -17.6591   16.9020 C   0  0  0  0  0  0  0  0  0  0  0  0
    4.9696  -17.7270   15.9083 N   0  0  0  0  0  0  0  0  0  0  0  0
    3.5852  -19.3330   17.3582 C   0  0  0  0  0  0  0  0  0  0  0  0
    4.5193  -19.8888   17.8891 O   0  0  0  0  0  0  0  0  0  0  0  0
    2.1948  -19.7995   17.1141 N   0  0  0  0  0  0  0  0  0  0  0  0
    1.5020  -21.0350   17.5272 C   0  0  0  0  0  0  0  0  0  0  0  0
    0.1179  -21.1436   17.2656 C   0  0  0  0  0  0  0  0  0  0  0  0
   -0.6913  -22.2574   17.6593 C   0  0  0  0  0  0  0  0  0  0  0  0
   -0.1273  -23.3582   18.3317 C   0  0  0  0  0  0  0  0  0  0  0  0
   -0.7936  -24.5107   18.7586 N   0  0  0  0  0  0  0  0  0  0  0  0
    0.0655  -25.3273   19.3223 C   0  0  0  0  0  0  0  0  0  0  0  0
    1.6876  -24.7713   19.3996 S   0  0  0  0  0  0  0  0  0  0  0  0
    1.2460  -23.2902   18.5956 C   0  0  0  0  0  0  0  0  0  0  0  0
    2.0563  -22.1404   18.2164 C   0  0  0  0  0  0  0  0  0  0  0  0
    6.3083  -12.4774   19.5450 H   0  0  0  0  0  0  0  0  0  0  0  0
    7.2180  -13.9377   19.9267 H   0  0  0  0  0  0  0  0  0  0  0  0
    5.9944  -13.3910   20.9366 H   0  0  0  0  0  0  0  0  0  0  0  0
    4.1158  -12.8466   20.5676 H   0  0  0  0  0  0  0  0  0  0  0  0
    3.4381  -12.3733   17.8591 H   0  0  0  0  0  0  0  0  0  0  0  0
    3.4159  -16.8544   18.6843 H   0  0  0  0  0  0  0  0  0  0  0  0
    5.1868  -17.1442   18.6498 H   0  0  0  0  0  0  0  0  0  0  0  0
    2.9799  -17.2589   16.4280 H   0  0  0  0  0  0  0  0  0  0  0  0
    5.3458  -16.7927   15.7785 H   0  0  0  0  0  0  0  0  0  0  0  0
    5.7195  -18.2936   16.3100 H   0  0  0  0  0  0  0  0  0  0  0  0
    1.7009  -19.1012   16.5655 H   0  0  0  0  0  0  0  0  0  0  0  0
   -0.3863  -20.3313   16.7398 H   0  0  0  0  0  0  0  0  0  0  0  0
   -1.7528  -22.2601   17.4273 H   0  0  0  0  0  0  0  0  0  0  0  0
   -0.2236  -26.2917   19.7189 H   0  0  0  0  0  0  0  0  0  0  0  0
    3.1168  -22.1454   18.4604 H   0  0  0  0  0  0  0  0  0  0  0  0
  1  2  1  0
  2  3  1  0
  3  4  2  0
  4  5  1  0
  5  6  2  0
  6  7  1  0
  7  8  1  0
  8  9  1  0
  8 10  1  0
 10 11  2  0
 10 12  1  0
 12 13  1  0
 13 14  2  0
 14 15  1  0
 15 16  2  0
 16 17  1  0
 17 18  2  0
 18 19  1  0
 19 20  1  0
 20 21  2  0
  6  2  1  0
 21 13  1  0
 20 16  1  0
  1 22  1  0
  1 23  1  0
  1 24  1  0
  3 25  1  0
  4 26  1  0
  7 27  1  0
  7 28  1  0
  8 29  1  0
  9 30  1  0
  9 31  1  0
 12 32  1  0
 14 33  1  0
 15 34  1  0
 18 35  1  0
 21 36  1  0
M  END
>  <Energy>  (620) 
226.78459651797024

>  <compound_id>  (620) 
12534

>  <target_id>  (620) 
1

>  <reference_id>  (620) 
68

>  <inspiration_ids>  (620) 
[80, 68]

>  <energy_score>  (620) 
67.55717045237179

>  <distance_score>  (620) 
16.979754294266773

>  <path>  (620) 
/opt/xchem-fragalysis-2/maxwin/BulkDock/SCRATCH/511013/C12534-P68/C12534-P68.minimised.mol

>  <scratch_subdir>  (620) 
/opt/xchem-fragalysis-2/maxwin/BulkDock/SCRATCH/511013/C12534-P68

>  <fragmenstein_runtime>  (620) 
20.476916074752808

>  <fragmenstein_outcome>  (620) 
too moved

>  <fragmenstein_mode>  (620) 
expansion

>  <fragmenstein_error>  (620) 


$$$$
C12537-P80
     RDKit          3D

 36 38  0  0  0  0  0  0  0  0999 V2000
   -0.8262  -24.8214   18.4018 O   0  0  0  0  0  0  0  0  0  0  0  0
   -0.0548  -25.6339   17.9052 C   0  0  0  0  0  0  0  0  0  0  0  0
   -0.2368  -27.1798   17.9533 C   0  0  0  0  0  0  0  0  0  0  0  0
   -1.3738  -27.8853   18.7835 C   0  0  0  0  0  0  0  0  0  0  0  0
   -1.9402  -27.3556   19.9487 C   0  0  0  0  0  0  0  0  0  0  0  0
   -2.8503  -28.0945   20.7503 C   0  0  0  0  0  0  0  0  0  0  0  0
   -3.2089  -29.4178   20.4181 C   0  0  0  0  0  0  0  0  0  0  0  0
   -4.0431  -30.2566   21.1443 N   0  0  0  0  0  0  0  0  0  0  0  0
   -4.1346  -31.4209   20.5438 C   0  0  0  0  0  0  0  0  0  0  0  0
   -3.2526  -31.5810   19.0800 S   0  0  0  0  0  0  0  0  0  0  0  0
   -2.6622  -29.9604   19.2548 C   0  0  0  0  0  0  0  0  0  0  0  0
   -1.7606  -29.2147   18.4379 C   0  0  0  0  0  0  0  0  0  0  0  0
    1.0970  -25.2414   17.1924 O   0  0  0  0  0  0  0  0  0  0  0  0
    1.3758  -23.7896   17.1591 C   0  0  0  0  0  0  0  0  0  0  0  0
    2.5795  -23.2749   16.2590 C   0  0  0  0  0  0  0  0  0  0  0  0
    2.8310  -21.7209   16.4242 C   0  0  0  0  0  0  0  0  0  0  0  0
    3.7714  -20.9517   15.5838 N   0  0  0  0  0  0  0  0  0  0  0  0
    3.4348  -19.8554   14.8186 C   0  0  0  0  0  0  0  0  0  0  0  0
    4.6106  -19.2199   14.4876 C   0  0  0  0  0  0  0  0  0  0  0  0
    5.6764  -19.8900   15.0338 N   0  0  0  0  0  0  0  0  0  0  0  0
    5.1463  -20.9476   15.6303 C   0  0  0  0  0  0  0  0  0  0  0  0
    0.7071  -27.5929   18.3298 H   0  0  0  0  0  0  0  0  0  0  0  0
   -0.3669  -27.4920   16.9096 H   0  0  0  0  0  0  0  0  0  0  0  0
   -1.6712  -26.3538   20.2827 H   0  0  0  0  0  0  0  0  0  0  0  0
   -3.2611  -27.6505   21.6531 H   0  0  0  0  0  0  0  0  0  0  0  0
   -4.7322  -32.2293   20.9472 H   0  0  0  0  0  0  0  0  0  0  0  0
   -1.3337  -29.6922   17.5584 H   0  0  0  0  0  0  0  0  0  0  0  0
    1.5737  -23.4865   18.1927 H   0  0  0  0  0  0  0  0  0  0  0  0
    0.4660  -23.3021   16.7957 H   0  0  0  0  0  0  0  0  0  0  0  0
    3.4887  -23.8281   16.5193 H   0  0  0  0  0  0  0  0  0  0  0  0
    2.3633  -23.5080   15.2103 H   0  0  0  0  0  0  0  0  0  0  0  0
    1.8680  -21.2200   16.2855 H   0  0  0  0  0  0  0  0  0  0  0  0
    3.1438  -21.5283   17.4578 H   0  0  0  0  0  0  0  0  0  0  0  0
    2.4017  -19.6093   14.6139 H   0  0  0  0  0  0  0  0  0  0  0  0
    4.7302  -18.3098   13.9147 H   0  0  0  0  0  0  0  0  0  0  0  0
    5.7003  -21.7107   16.1614 H   0  0  0  0  0  0  0  0  0  0  0  0
  1  2  2  0
  2  3  1  0
  3  4  1  0
  4  5  2  0
  5  6  1  0
  6  7  2  0
  7  8  1  0
  8  9  2  0
  9 10  1  0
 10 11  1  0
 11 12  2  0
  2 13  1  0
 13 14  1  0
 14 15  1  0
 15 16  1  0
 16 17  1  0
 17 18  1  0
 18 19  2  0
 19 20  1  0
 20 21  2  0
 12  4  1  0
 21 17  1  0
 11  7  1  0
  3 22  1  0
  3 23  1  0
  5 24  1  0
  6 25  1  0
  9 26  1  0
 12 27  1  0
 14 28  1  0
 14 29  1  0
 15 30  1  0
 15 31  1  0
 16 32  1  0
 16 33  1  0
 18 34  1  0
 19 35  1  0
 21 36  1  0
M  END
>  <Energy>  (621) 
49.060593896363677

>  <compound_id>  (621) 
12537

>  <target_id>  (621) 
1

>  <reference_id>  (621) 
80

>  <inspiration_ids>  (621) 
[80, 68]

>  <energy_score>  (621) 
-67.29530761916192

>  <distance_score>  (621) 
14.546008594568063

>  <path>  (621) 
/opt/xchem-fragalysis-2/maxwin/BulkDock/SCRATCH/511013/C12537-P80/C12537-P80.minimised.mol

>  <scratch_subdir>  (621) 
/opt/xchem-fragalysis-2/maxwin/BulkDock/SCRATCH/511013/C12537-P80

>  <fragmenstein_runtime>  (621) 
9.373788356781006

>  <fragmenstein_outcome>  (621) 
too moved

>  <fragmenstein_mode>  (621) 
expansion

>  <fragmenstein_error>  (621) 


$$$$
C12537-P68
     RDKit          3D

 36 38  0  0  0  0  0  0  0  0999 V2000
    1.0624  -25.6349   24.5115 O   0  0  0  0  0  0  0  0  0  0  0  0
    1.4245  -26.0385   23.4136 C   0  0  0  0  0  0  0  0  0  0  0  0
    0.7999  -27.2455   22.6596 C   0  0  0  0  0  0  0  0  0  0  0  0
   -0.2182  -28.2045   23.3621 C   0  0  0  0  0  0  0  0  0  0  0  0
   -1.3734  -27.7532   24.0148 C   0  0  0  0  0  0  0  0  0  0  0  0
   -2.2973  -28.6475   24.6156 C   0  0  0  0  0  0  0  0  0  0  0  0
   -2.0767  -30.0411   24.5880 C   0  0  0  0  0  0  0  0  0  0  0  0
   -2.8495  -31.0242   25.2048 N   0  0  0  0  0  0  0  0  0  0  0  0
   -2.3095  -32.2029   24.9903 C   0  0  0  0  0  0  0  0  0  0  0  0
   -0.9233  -32.2306   23.9845 S   0  0  0  0  0  0  0  0  0  0  0  0
   -0.9598  -30.5028   23.8896 C   0  0  0  0  0  0  0  0  0  0  0  0
   -0.0497  -29.6104   23.2596 C   0  0  0  0  0  0  0  0  0  0  0  0
    2.4423  -25.4270   22.6721 O   0  0  0  0  0  0  0  0  0  0  0  0
    3.0610  -24.2013   23.2281 C   0  0  0  0  0  0  0  0  0  0  0  0
    4.2939  -23.6670   22.4001 C   0  0  0  0  0  0  0  0  0  0  0  0
    4.9315  -22.3349   22.9582 C   0  0  0  0  0  0  0  0  0  0  0  0
    6.1473  -21.7760   22.3321 N   0  0  0  0  0  0  0  0  0  0  0  0
    7.2621  -22.4558   21.9074 C   0  0  0  0  0  0  0  0  0  0  0  0
    8.1312  -21.5089   21.4090 C   0  0  0  0  0  0  0  0  0  0  0  0
    7.5921  -20.2714   21.5147 N   0  0  0  0  0  0  0  0  0  0  0  0
    6.4425  -20.4440   22.1424 C   0  0  0  0  0  0  0  0  0  0  0  0
    1.6463  -27.8565   22.3216 H   0  0  0  0  0  0  0  0  0  0  0  0
    0.2950  -26.8464   21.7717 H   0  0  0  0  0  0  0  0  0  0  0  0
   -1.5689  -26.6834   24.0879 H   0  0  0  0  0  0  0  0  0  0  0  0
   -3.1668  -28.2572   25.1362 H   0  0  0  0  0  0  0  0  0  0  0  0
   -2.7268  -33.1099   25.4064 H   0  0  0  0  0  0  0  0  0  0  0  0
    0.8039  -30.0211   22.7241 H   0  0  0  0  0  0  0  0  0  0  0  0
    2.2852  -23.4285   23.2548 H   0  0  0  0  0  0  0  0  0  0  0  0
    3.3887  -24.4220   24.2500 H   0  0  0  0  0  0  0  0  0  0  0  0
    3.9822  -23.5131   21.3602 H   0  0  0  0  0  0  0  0  0  0  0  0
    5.0532  -24.4572   22.3697 H   0  0  0  0  0  0  0  0  0  0  0  0
    5.2016  -22.4835   24.0107 H   0  0  0  0  0  0  0  0  0  0  0  0
    4.1745  -21.5425   22.9167 H   0  0  0  0  0  0  0  0  0  0  0  0
    7.3434  -23.5295   21.9880 H   0  0  0  0  0  0  0  0  0  0  0  0
    9.1097  -21.6677   20.9777 H   0  0  0  0  0  0  0  0  0  0  0  0
    5.7605  -19.6607   22.4311 H   0  0  0  0  0  0  0  0  0  0  0  0
  1  2  2  0
  2  3  1  0
  3  4  1  0
  4  5  2  0
  5  6  1  0
  6  7  2  0
  7  8  1  0
  8  9  2  0
  9 10  1  0
 10 11  1  0
 11 12  2  0
  2 13  1  0
 13 14  1  0
 14 15  1  0
 15 16  1  0
 16 17  1  0
 17 18  1  0
 18 19  2  0
 19 20  1  0
 20 21  2  0
 12  4  1  0
 21 17  1  0
 11  7  1  0
  3 22  1  0
  3 23  1  0
  5 24  1  0
  6 25  1  0
  9 26  1  0
 12 27  1  0
 14 28  1  0
 14 29  1  0
 15 30  1  0
 15 31  1  0
 16 32  1  0
 16 33  1  0
 18 34  1  0
 19 35  1  0
 21 36  1  0
M  END
>  <Energy>  (622) 
42.330429692947689

>  <compound_id>  (622) 
12537

>  <target_id>  (622) 
1

>  <reference_id>  (622) 
68

>  <inspiration_ids>  (622) 
[80, 68]

>  <energy_score>  (622) 
-74.02547182257501

>  <distance_score>  (622) 
15.07955309253301

>  <path>  (622) 
/opt/xchem-fragalysis-2/maxwin/BulkDock/SCRATCH/511013/C12537-P68/C12537-P68.minimised.mol

>  <scratch_subdir>  (622) 
/opt/xchem-fragalysis-2/maxwin/BulkDock/SCRATCH/511013/C12537-P68

>  <fragmenstein_runtime>  (622) 
17.27410316467285

>  <fragmenstein_outcome>  (622) 
too moved

>  <fragmenstein_mode>  (622) 
expansion

>  <fragmenstein_error>  (622) 


$$$$
C12538-P80
     RDKit          3D

 38 40  0  0  0  0  0  0  0  0999 V2000
    3.3636  -23.4581   19.0493 C   0  0  0  0  0  0  0  0  0  0  0  0
    2.2380  -22.4390   19.0334 C   0  0  0  0  0  0  0  0  0  0  0  0
    1.0328  -22.9432   19.6596 N   0  0  0  0  0  0  0  0  0  0  0  0
    0.6640  -22.7767   20.9655 C   0  0  0  0  0  0  0  0  0  0  0  0
   -0.4735  -23.4004   21.2348 N   0  0  0  0  0  0  0  0  0  0  0  0
   -0.8575  -24.0381   20.0524 C   0  0  0  0  0  0  0  0  0  0  0  0
   -2.3781  -25.0461   19.7900 S   0  0  0  0  0  0  0  0  0  0  0  0
   -3.4340  -24.0550   19.7625 O   0  0  0  0  0  0  0  0  0  0  0  0
   -2.0482  -25.7983   18.5912 O   0  0  0  0  0  0  0  0  0  0  0  0
   -2.8646  -26.3167   20.9580 N   0  0  0  0  0  0  0  0  0  0  0  0
   -4.2482  -26.9492   20.6588 C   0  0  0  0  0  0  0  0  0  0  0  0
   -5.3429  -26.1214   21.3466 C   0  0  0  0  0  0  0  0  0  0  0  0
   -4.4759  -28.4388   21.0563 C   0  0  0  0  0  0  0  0  0  0  0  0
   -4.5466  -28.8576   22.3943 C   0  0  0  0  0  0  0  0  0  0  0  0
   -5.0325  -30.1360   22.7500 C   0  0  0  0  0  0  0  0  0  0  0  0
   -5.4402  -31.0490   21.7567 C   0  0  0  0  0  0  0  0  0  0  0  0
   -5.9902  -32.3050   21.9605 N   0  0  0  0  0  0  0  0  0  0  0  0
   -6.1944  -32.8922   20.8080 C   0  0  0  0  0  0  0  0  0  0  0  0
   -5.7816  -31.9886   19.4150 S   0  0  0  0  0  0  0  0  0  0  0  0
   -5.2936  -30.6691   20.4223 C   0  0  0  0  0  0  0  0  0  0  0  0
   -4.8240  -29.3816   20.0578 C   0  0  0  0  0  0  0  0  0  0  0  0
    0.0534  -23.6900   19.0520 C   0  0  0  0  0  0  0  0  0  0  0  0
    4.2610  -23.0397   18.5833 H   0  0  0  0  0  0  0  0  0  0  0  0
    3.6154  -23.7546   20.0729 H   0  0  0  0  0  0  0  0  0  0  0  0
    3.0840  -24.3634   18.5000 H   0  0  0  0  0  0  0  0  0  0  0  0
    1.9858  -22.1645   18.0031 H   0  0  0  0  0  0  0  0  0  0  0  0
    2.5411  -21.5286   19.5558 H   0  0  0  0  0  0  0  0  0  0  0  0
    1.2523  -22.2030   21.6718 H   0  0  0  0  0  0  0  0  0  0  0  0
   -2.1422  -27.0372   20.9086 H   0  0  0  0  0  0  0  0  0  0  0  0
   -4.3966  -26.8864   19.5731 H   0  0  0  0  0  0  0  0  0  0  0  0
   -6.3312  -26.5393   21.1523 H   0  0  0  0  0  0  0  0  0  0  0  0
   -5.1933  -26.0698   22.4305 H   0  0  0  0  0  0  0  0  0  0  0  0
   -5.3530  -25.0911   20.9814 H   0  0  0  0  0  0  0  0  0  0  0  0
   -4.2888  -28.1657   23.1950 H   0  0  0  0  0  0  0  0  0  0  0  0
   -5.1302  -30.4198   23.7934 H   0  0  0  0  0  0  0  0  0  0  0  0
   -6.6005  -33.8913   20.7390 H   0  0  0  0  0  0  0  0  0  0  0  0
   -4.7888  -29.1093   19.0057 H   0  0  0  0  0  0  0  0  0  0  0  0
    0.0836  -23.9430   18.0014 H   0  0  0  0  0  0  0  0  0  0  0  0
  1  2  1  0
  2  3  1  0
  3  4  1  0
  4  5  2  0
  5  6  1  0
  6  7  1  0
  7  8  2  0
  7  9  2  0
  7 10  1  0
 10 11  1  0
 11 12  1  0
 11 13  1  0
 13 14  2  0
 14 15  1  0
 15 16  2  0
 16 17  1  0
 17 18  2  0
 18 19  1  0
 19 20  1  0
 20 21  2  0
  6 22  2  0
 22  3  1  0
 21 13  1  0
 20 16  1  0
  1 23  1  0
  1 24  1  0
  1 25  1  0
  2 26  1  0
  2 27  1  0
  4 28  1  0
 10 29  1  0
 11 30  1  0
 12 31  1  0
 12 32  1  0
 12 33  1  0
 14 34  1  0
 15 35  1  0
 18 36  1  0
 21 37  1  0
 22 38  1  0
M  END
>  <Energy>  (623) 
43.413137040700335

>  <compound_id>  (623) 
12538

>  <target_id>  (623) 
1

>  <reference_id>  (623) 
80

>  <inspiration_ids>  (623) 
[80, 68]

>  <energy_score>  (623) 
-58.15992186602239

>  <distance_score>  (623) 
15.89678436983809

>  <path>  (623) 
/opt/xchem-fragalysis-2/maxwin/BulkDock/SCRATCH/511013/C12538-P80/C12538-P80.minimised.mol

>  <scratch_subdir>  (623) 
/opt/xchem-fragalysis-2/maxwin/BulkDock/SCRATCH/511013/C12538-P80

>  <fragmenstein_runtime>  (623) 
10.9041109085083

>  <fragmenstein_outcome>  (623) 
too moved

>  <fragmenstein_mode>  (623) 
expansion

>  <fragmenstein_error>  (623) 


$$$$
C12538-P68
     RDKit          3D

 38 40  0  0  0  0  0  0  0  0999 V2000
    2.2142  -21.7651   17.0997 C   0  0  0  0  0  0  0  0  0  0  0  0
    1.2792  -20.6999   17.6440 C   0  0  0  0  0  0  0  0  0  0  0  0
    0.4282  -21.1992   18.7035 N   0  0  0  0  0  0  0  0  0  0  0  0
    0.7620  -21.3695   20.0163 C   0  0  0  0  0  0  0  0  0  0  0  0
   -0.2019  -21.9784   20.6865 N   0  0  0  0  0  0  0  0  0  0  0  0
   -1.1975  -22.2682   19.7562 C   0  0  0  0  0  0  0  0  0  0  0  0
   -2.7611  -23.1443   20.1212 S   0  0  0  0  0  0  0  0  0  0  0  0
   -3.3850  -22.3150   21.1329 O   0  0  0  0  0  0  0  0  0  0  0  0
   -3.3691  -23.3040   18.8153 O   0  0  0  0  0  0  0  0  0  0  0  0
   -2.6463  -24.7570   20.8323 N   0  0  0  0  0  0  0  0  0  0  0  0
   -3.9840  -25.4434   21.1605 C   0  0  0  0  0  0  0  0  0  0  0  0
   -4.5802  -26.1441   19.9378 C   0  0  0  0  0  0  0  0  0  0  0  0
   -3.8938  -26.5013   22.2825 C   0  0  0  0  0  0  0  0  0  0  0  0
   -4.9253  -26.5847   23.2291 C   0  0  0  0  0  0  0  0  0  0  0  0
   -4.9157  -27.5531   24.2428 C   0  0  0  0  0  0  0  0  0  0  0  0
   -3.8711  -28.4965   24.3212 C   0  0  0  0  0  0  0  0  0  0  0  0
   -3.7511  -29.5256   25.2520 N   0  0  0  0  0  0  0  0  0  0  0  0
   -2.6540  -30.2055   25.0102 C   0  0  0  0  0  0  0  0  0  0  0  0
   -1.7068  -29.6786   23.6833 S   0  0  0  0  0  0  0  0  0  0  0  0
   -2.8499  -28.4218   23.3697 C   0  0  0  0  0  0  0  0  0  0  0  0
   -2.8481  -27.4435   22.3457 C   0  0  0  0  0  0  0  0  0  0  0  0
   -0.8359  -21.7076   18.5338 C   0  0  0  0  0  0  0  0  0  0  0  0
    2.8537  -21.3453   16.3171 H   0  0  0  0  0  0  0  0  0  0  0  0
    1.6503  -22.5994   16.6692 H   0  0  0  0  0  0  0  0  0  0  0  0
    2.8572  -22.1716   17.8865 H   0  0  0  0  0  0  0  0  0  0  0  0
    1.8400  -19.8494   18.0345 H   0  0  0  0  0  0  0  0  0  0  0  0
    0.6287  -20.3285   16.8449 H   0  0  0  0  0  0  0  0  0  0  0  0
    1.7199  -21.0892   20.4348 H   0  0  0  0  0  0  0  0  0  0  0  0
   -2.1008  -24.6318   21.6895 H   0  0  0  0  0  0  0  0  0  0  0  0
   -4.6689  -24.6583   21.5047 H   0  0  0  0  0  0  0  0  0  0  0  0
   -3.8829  -26.8798   19.5206 H   0  0  0  0  0  0  0  0  0  0  0  0
   -4.8096  -25.4271   19.1447 H   0  0  0  0  0  0  0  0  0  0  0  0
   -5.5075  -26.6655   20.1888 H   0  0  0  0  0  0  0  0  0  0  0  0
   -5.7567  -25.8813   23.1982 H   0  0  0  0  0  0  0  0  0  0  0  0
   -5.7231  -27.5620   24.9653 H   0  0  0  0  0  0  0  0  0  0  0  0
   -2.3542  -31.0515   25.6139 H   0  0  0  0  0  0  0  0  0  0  0  0
   -2.0461  -27.4272   21.6106 H   0  0  0  0  0  0  0  0  0  0  0  0
   -1.3466  -21.6970   17.5804 H   0  0  0  0  0  0  0  0  0  0  0  0
  1  2  1  0
  2  3  1  0
  3  4  1  0
  4  5  2  0
  5  6  1  0
  6  7  1  0
  7  8  2  0
  7  9  2  0
  7 10  1  0
 10 11  1  0
 11 12  1  0
 11 13  1  0
 13 14  2  0
 14 15  1  0
 15 16  2  0
 16 17  1  0
 17 18  2  0
 18 19  1  0
 19 20  1  0
 20 21  2  0
  6 22  2  0
 22  3  1  0
 21 13  1  0
 20 16  1  0
  1 23  1  0
  1 24  1  0
  1 25  1  0
  2 26  1  0
  2 27  1  0
  4 28  1  0
 10 29  1  0
 11 30  1  0
 12 31  1  0
 12 32  1  0
 12 33  1  0
 14 34  1  0
 15 35  1  0
 18 36  1  0
 21 37  1  0
 22 38  1  0
M  END
>  <Energy>  (624) 
33.565596371419751

>  <compound_id>  (624) 
12538

>  <target_id>  (624) 
1

>  <reference_id>  (624) 
68

>  <inspiration_ids>  (624) 
[80, 68]

>  <energy_score>  (624) 
-68.00746253530002

>  <distance_score>  (624) 
15.99504014671716

>  <path>  (624) 
/opt/xchem-fragalysis-2/maxwin/BulkDock/SCRATCH/511013/C12538-P68/C12538-P68.minimised.mol

>  <scratch_subdir>  (624) 
/opt/xchem-fragalysis-2/maxwin/BulkDock/SCRATCH/511013/C12538-P68

>  <fragmenstein_runtime>  (624) 
19.589624404907227

>  <fragmenstein_outcome>  (624) 
too moved

>  <fragmenstein_mode>  (624) 
expansion

>  <fragmenstein_error>  (624) 


$$$$
C12539-P80
     RDKit          3D

 34 36  0  0  0  0  0  0  0  0999 V2000
    1.9791  -20.8093   15.0514 C   0  0  0  0  0  0  0  0  0  0  0  0
    2.2988  -20.6131   16.5259 C   0  0  0  0  0  0  0  0  0  0  0  0
    1.7975  -21.6440   17.4070 N   0  0  0  0  0  0  0  0  0  0  0  0
    2.3672  -22.0395   18.5827 C   0  0  0  0  0  0  0  0  0  0  0  0
    1.6861  -23.0319   19.1341 N   0  0  0  0  0  0  0  0  0  0  0  0
    0.6087  -23.2819   18.3198 C   0  0  0  0  0  0  0  0  0  0  0  0
   -0.4083  -24.2221   18.5073 N   0  0  0  0  0  0  0  0  0  0  0  0
   -0.5647  -25.2990   19.5213 C   0  0  0  0  0  0  0  0  0  0  0  0
    0.1070  -25.5761   20.4783 O   0  0  0  0  0  0  0  0  0  0  0  0
   -1.8657  -26.1405   19.1725 C   0  0  0  0  0  0  0  0  0  0  0  0
   -2.4080  -27.2940   20.0772 C   0  0  0  0  0  0  0  0  0  0  0  0
   -2.4149  -27.2250   21.4739 C   0  0  0  0  0  0  0  0  0  0  0  0
   -2.9975  -28.2381   22.2746 C   0  0  0  0  0  0  0  0  0  0  0  0
   -3.6139  -29.3631   21.6899 C   0  0  0  0  0  0  0  0  0  0  0  0
   -4.2031  -30.4218   22.3654 N   0  0  0  0  0  0  0  0  0  0  0  0
   -4.6887  -31.2824   21.5002 C   0  0  0  0  0  0  0  0  0  0  0  0
   -4.4656  -30.8914   19.8435 S   0  0  0  0  0  0  0  0  0  0  0  0
   -3.6423  -29.4351   20.2963 C   0  0  0  0  0  0  0  0  0  0  0  0
   -3.0592  -28.4163   19.4871 C   0  0  0  0  0  0  0  0  0  0  0  0
    0.6633  -22.4020   17.2458 C   0  0  0  0  0  0  0  0  0  0  0  0
    2.4941  -20.0533   14.4507 H   0  0  0  0  0  0  0  0  0  0  0  0
    2.3005  -21.7967   14.7038 H   0  0  0  0  0  0  0  0  0  0  0  0
    0.9057  -20.7124   14.8596 H   0  0  0  0  0  0  0  0  0  0  0  0
    3.3858  -20.6050   16.6385 H   0  0  0  0  0  0  0  0  0  0  0  0
    1.8965  -19.6595   16.8807 H   0  0  0  0  0  0  0  0  0  0  0  0
    3.2548  -21.5866   19.0033 H   0  0  0  0  0  0  0  0  0  0  0  0
   -1.1116  -24.3340   17.7934 H   0  0  0  0  0  0  0  0  0  0  0  0
   -1.6719  -26.5736   18.1820 H   0  0  0  0  0  0  0  0  0  0  0  0
   -2.6916  -25.4246   19.0696 H   0  0  0  0  0  0  0  0  0  0  0  0
   -1.9521  -26.3757   21.9771 H   0  0  0  0  0  0  0  0  0  0  0  0
   -2.9685  -28.1563   23.3572 H   0  0  0  0  0  0  0  0  0  0  0  0
   -5.1998  -32.1840   21.8136 H   0  0  0  0  0  0  0  0  0  0  0  0
   -3.1176  -28.5067   18.4052 H   0  0  0  0  0  0  0  0  0  0  0  0
   -0.0028  -22.2661   16.4076 H   0  0  0  0  0  0  0  0  0  0  0  0
  1  2  1  0
  2  3  1  0
  3  4  1  0
  4  5  2  0
  5  6  1  0
  6  7  1  0
  7  8  1  0
  8  9  2  0
  8 10  1  0
 10 11  1  0
 11 12  2  0
 12 13  1  0
 13 14  2  0
 14 15  1  0
 15 16  2  0
 16 17  1  0
 17 18  1  0
 18 19  2  0
  6 20  2  0
 20  3  1  0
 19 11  1  0
 18 14  1  0
  1 21  1  0
  1 22  1  0
  1 23  1  0
  2 24  1  0
  2 25  1  0
  4 26  1  0
  7 27  1  0
 10 28  1  0
 10 29  1  0
 12 30  1  0
 13 31  1  0
 16 32  1  0
 19 33  1  0
 20 34  1  0
M  END
>  <Energy>  (625) 
17.990642247615401

>  <compound_id>  (625) 
12539

>  <target_id>  (625) 
1

>  <reference_id>  (625) 
80

>  <inspiration_ids>  (625) 
[80, 68]

>  <energy_score>  (625) 
-52.63777222009219

>  <distance_score>  (625) 
15.865323890339985

>  <path>  (625) 
/opt/xchem-fragalysis-2/maxwin/BulkDock/SCRATCH/511013/C12539-P80/C12539-P80.minimised.mol

>  <scratch_subdir>  (625) 
/opt/xchem-fragalysis-2/maxwin/BulkDock/SCRATCH/511013/C12539-P80

>  <fragmenstein_runtime>  (625) 
9.471067190170288

>  <fragmenstein_outcome>  (625) 
too moved

>  <fragmenstein_mode>  (625) 
expansion

>  <fragmenstein_error>  (625) 


$$$$
C12539-P68
     RDKit          3D

 34 36  0  0  0  0  0  0  0  0999 V2000
    3.8383   -3.2278   14.4724 C   0  0  0  0  0  0  0  0  0  0  0  0
    3.3508   -4.6611   14.3369 C   0  0  0  0  0  0  0  0  0  0  0  0
    3.8859   -5.5846   15.3220 N   0  0  0  0  0  0  0  0  0  0  0  0
    3.8105   -5.4243   16.6732 C   0  0  0  0  0  0  0  0  0  0  0  0
    4.0068   -6.5617   17.2963 N   0  0  0  0  0  0  0  0  0  0  0  0
    4.1808   -7.4945   16.3142 C   0  0  0  0  0  0  0  0  0  0  0  0
    4.1467   -8.8348   16.5595 N   0  0  0  0  0  0  0  0  0  0  0  0
    3.4590   -9.5969   17.5861 C   0  0  0  0  0  0  0  0  0  0  0  0
    2.7785   -9.2303   18.5020 O   0  0  0  0  0  0  0  0  0  0  0  0
    3.6714  -11.4196   17.2114 C   0  0  0  0  0  0  0  0  0  0  0  0
    3.7889  -12.9999   18.2775 C   0  0  0  0  0  0  0  0  0  0  0  0
    4.2909  -13.2200   19.5168 C   0  0  0  0  0  0  0  0  0  0  0  0
    3.3834  -14.0109   20.1923 C   0  0  0  0  0  0  0  0  0  0  0  0
    2.5799  -15.0727   19.4529 C   0  0  0  0  0  0  0  0  0  0  0  0
    1.6797  -16.0518   19.7845 N   0  0  0  0  0  0  0  0  0  0  0  0
    1.3949  -16.5880   18.6164 C   0  0  0  0  0  0  0  0  0  0  0  0
    2.6563  -16.6799   17.4292 S   0  0  0  0  0  0  0  0  0  0  0  0
    3.0083  -15.2622   18.1830 C   0  0  0  0  0  0  0  0  0  0  0  0
    3.8359  -14.3180   17.8122 C   0  0  0  0  0  0  0  0  0  0  0  0
    4.2673   -6.8880   15.0844 C   0  0  0  0  0  0  0  0  0  0  0  0
    3.4276   -2.6135   13.6648 H   0  0  0  0  0  0  0  0  0  0  0  0
    4.9284   -3.1666   14.4236 H   0  0  0  0  0  0  0  0  0  0  0  0
    3.5197   -2.7852   15.4215 H   0  0  0  0  0  0  0  0  0  0  0  0
    3.5995   -5.0477   13.3425 H   0  0  0  0  0  0  0  0  0  0  0  0
    2.2598   -4.6965   14.4390 H   0  0  0  0  0  0  0  0  0  0  0  0
    3.5401   -4.4920   17.1499 H   0  0  0  0  0  0  0  0  0  0  0  0
    4.5581   -9.4749   15.8958 H   0  0  0  0  0  0  0  0  0  0  0  0
    2.8217  -11.4878   16.6024 H   0  0  0  0  0  0  0  0  0  0  0  0
    4.2135  -11.5409   16.2952 H   0  0  0  0  0  0  0  0  0  0  0  0
    4.9891  -12.6248   20.0823 H   0  0  0  0  0  0  0  0  0  0  0  0
    3.4191  -13.9726   21.2613 H   0  0  0  0  0  0  0  0  0  0  0  0
    0.4515  -16.9631   18.3998 H   0  0  0  0  0  0  0  0  0  0  0  0
    4.5766  -14.7425   17.2014 H   0  0  0  0  0  0  0  0  0  0  0  0
    4.3636   -7.2861   14.0848 H   0  0  0  0  0  0  0  0  0  0  0  0
  1  2  1  0
  2  3  1  0
  3  4  1  0
  4  5  2  0
  5  6  1  0
  6  7  1  0
  7  8  1  0
  8  9  2  0
  8 10  1  0
 10 11  1  0
 11 12  2  0
 12 13  1  0
 13 14  2  0
 14 15  1  0
 15 16  2  0
 16 17  1  0
 17 18  1  0
 18 19  2  0
  6 20  2  0
 20  3  1  0
 19 11  1  0
 18 14  1  0
  1 21  1  0
  1 22  1  0
  1 23  1  0
  2 24  1  0
  2 25  1  0
  4 26  1  0
  7 27  1  0
 10 28  1  0
 10 29  1  0
 12 30  1  0
 13 31  1  0
 16 32  1  0
 19 33  1  0
 20 34  1  0
M  END
>  <Energy>  (626) 
227.57551705850528

>  <compound_id>  (626) 
12539

>  <target_id>  (626) 
1

>  <reference_id>  (626) 
68

>  <inspiration_ids>  (626) 
[80, 68]

>  <energy_score>  (626) 
156.94710259080557

>  <distance_score>  (626) 
21.909854912600686

>  <path>  (626) 
/opt/xchem-fragalysis-2/maxwin/BulkDock/SCRATCH/511013/C12539-P68/C12539-P68.minimised.mol

>  <scratch_subdir>  (626) 
/opt/xchem-fragalysis-2/maxwin/BulkDock/SCRATCH/511013/C12539-P68

>  <fragmenstein_runtime>  (626) 
16.842036724090576

>  <fragmenstein_outcome>  (626) 
too moved

>  <fragmenstein_mode>  (626) 
expansion

>  <fragmenstein_error>  (626) 


$$$$
C12540-P80
     RDKit          3D

 39 41  0  0  0  0  0  0  0  0999 V2000
    7.7527  -21.4178   13.3323 C   0  0  0  0  0  0  0  0  0  0  0  0
    6.3728  -21.8138   13.8394 C   0  0  0  0  0  0  0  0  0  0  0  0
    5.5461  -20.7473   14.3806 N   0  0  0  0  0  0  0  0  0  0  0  0
    5.8577  -19.4098   14.3782 C   0  0  0  0  0  0  0  0  0  0  0  0
    4.8775  -18.6920   14.8610 N   0  0  0  0  0  0  0  0  0  0  0  0
    3.8522  -19.6025   15.1023 C   0  0  0  0  0  0  0  0  0  0  0  0
    4.2443  -20.9190   14.8769 C   0  0  0  0  0  0  0  0  0  0  0  0
    3.4032  -22.2409   14.7619 C   0  0  0  0  0  0  0  0  0  0  0  0
    2.7844  -23.1850   15.8910 N   0  0  0  0  0  0  0  0  0  0  0  0
    4.2166  -23.4268   16.1785 C   0  0  0  0  0  0  0  0  0  0  0  0
    2.0296  -24.5386   15.7689 C   0  0  0  0  0  0  0  0  0  0  0  0
    1.8382  -25.1919   14.8064 O   0  0  0  0  0  0  0  0  0  0  0  0
    1.5857  -24.7553   17.1965 N   0  0  0  0  0  0  0  0  0  0  0  0
    0.7827  -25.8100   17.7891 C   0  0  0  0  0  0  0  0  0  0  0  0
    0.7038  -25.9197   19.1829 C   0  0  0  0  0  0  0  0  0  0  0  0
   -0.0649  -26.9131   19.8517 C   0  0  0  0  0  0  0  0  0  0  0  0
   -0.7970  -27.8652   19.1176 C   0  0  0  0  0  0  0  0  0  0  0  0
   -1.5726  -28.8939   19.6438 N   0  0  0  0  0  0  0  0  0  0  0  0
   -2.1044  -29.5844   18.6618 C   0  0  0  0  0  0  0  0  0  0  0  0
   -1.7096  -29.0625   17.0743 S   0  0  0  0  0  0  0  0  0  0  0  0
   -0.7305  -27.7829   17.7229 C   0  0  0  0  0  0  0  0  0  0  0  0
    0.0518  -26.7735   17.0542 C   0  0  0  0  0  0  0  0  0  0  0  0
    8.3526  -20.9619   14.1269 H   0  0  0  0  0  0  0  0  0  0  0  0
    7.6825  -20.7073   12.5021 H   0  0  0  0  0  0  0  0  0  0  0  0
    8.2876  -22.3023   12.9718 H   0  0  0  0  0  0  0  0  0  0  0  0
    5.8076  -22.2702   13.0196 H   0  0  0  0  0  0  0  0  0  0  0  0
    6.4927  -22.5515   14.6388 H   0  0  0  0  0  0  0  0  0  0  0  0
    6.7974  -19.0145   14.0168 H   0  0  0  0  0  0  0  0  0  0  0  0
    2.8686  -19.2666   15.4146 H   0  0  0  0  0  0  0  0  0  0  0  0
    2.4703  -21.8683   14.3133 H   0  0  0  0  0  0  0  0  0  0  0  0
    3.7815  -22.8752   13.9429 H   0  0  0  0  0  0  0  0  0  0  0  0
    4.7654  -23.9410   15.3763 H   0  0  0  0  0  0  0  0  0  0  0  0
    4.2360  -24.1738   16.9847 H   0  0  0  0  0  0  0  0  0  0  0  0
    4.7330  -22.5676   16.6225 H   0  0  0  0  0  0  0  0  0  0  0  0
    2.0003  -24.0333   17.7925 H   0  0  0  0  0  0  0  0  0  0  0  0
    1.2774  -25.2267   19.7891 H   0  0  0  0  0  0  0  0  0  0  0  0
   -0.0840  -26.9563   20.9366 H   0  0  0  0  0  0  0  0  0  0  0  0
   -2.7543  -30.4325   18.8356 H   0  0  0  0  0  0  0  0  0  0  0  0
    0.0748  -26.7595   15.9669 H   0  0  0  0  0  0  0  0  0  0  0  0
  1  2  1  0
  2  3  1  0
  3  4  1  0
  4  5  2  0
  5  6  1  0
  6  7  2  0
  7  8  1  0
  8  9  1  0
  9 10  1  0
  9 11  1  0
 11 12  2  0
 11 13  1  0
 13 14  1  0
 14 15  2  0
 15 16  1  0
 16 17  2  0
 17 18  1  0
 18 19  2  0
 19 20  1  0
 20 21  1  0
 21 22  2  0
  7  3  1  0
 22 14  1  0
 21 17  1  0
  1 23  1  0
  1 24  1  0
  1 25  1  0
  2 26  1  0
  2 27  1  0
  4 28  1  0
  6 29  1  0
  8 30  1  0
  8 31  1  0
 10 32  1  0
 10 33  1  0
 10 34  1  0
 13 35  1  0
 15 36  1  0
 16 37  1  0
 19 38  1  0
 22 39  1  0
M  END
>  <Energy>  (627) 
45.558401085462634

>  <compound_id>  (627) 
12540

>  <target_id>  (627) 
1

>  <reference_id>  (627) 
80

>  <inspiration_ids>  (627) 
[80, 68]

>  <energy_score>  (627) 
11.974971904908614

>  <distance_score>  (627) 
16.267731047500998

>  <path>  (627) 
/opt/xchem-fragalysis-2/maxwin/BulkDock/SCRATCH/511013/C12540-P80/C12540-P80.minimised.mol

>  <scratch_subdir>  (627) 
/opt/xchem-fragalysis-2/maxwin/BulkDock/SCRATCH/511013/C12540-P80

>  <fragmenstein_runtime>  (627) 
12.101626634597778

>  <fragmenstein_outcome>  (627) 
too moved

>  <fragmenstein_mode>  (627) 
expansion

>  <fragmenstein_error>  (627) 


$$$$
C12540-P68
     RDKit          3D

 39 41  0  0  0  0  0  0  0  0999 V2000
    3.6521  -11.9037   20.5981 C   0  0  0  0  0  0  0  0  0  0  0  0
    3.7345  -13.4412   20.5347 C   0  0  0  0  0  0  0  0  0  0  0  0
    3.0649  -14.1644   19.3735 N   0  0  0  0  0  0  0  0  0  0  0  0
    3.8777  -13.9085   18.3005 C   0  0  0  0  0  0  0  0  0  0  0  0
    4.0034  -14.9239   17.5038 N   0  0  0  0  0  0  0  0  0  0  0  0
    3.1135  -15.8356   17.8440 C   0  0  0  0  0  0  0  0  0  0  0  0
    2.5208  -15.5740   19.0776 C   0  0  0  0  0  0  0  0  0  0  0  0
    1.3254  -16.7950   19.4997 C   0  0  0  0  0  0  0  0  0  0  0  0
    0.8707  -17.9060   21.0029 N   0  0  0  0  0  0  0  0  0  0  0  0
   -0.1779  -16.4626   21.0514 C   0  0  0  0  0  0  0  0  0  0  0  0
    0.2793  -19.7022   21.0572 C   0  0  0  0  0  0  0  0  0  0  0  0
    0.0276  -20.3563   20.1125 O   0  0  0  0  0  0  0  0  0  0  0  0
    0.0471  -20.1490   22.5866 N   0  0  0  0  0  0  0  0  0  0  0  0
   -0.5860  -21.3453   23.1641 C   0  0  0  0  0  0  0  0  0  0  0  0
   -0.1426  -21.8644   24.3863 C   0  0  0  0  0  0  0  0  0  0  0  0
   -0.6876  -23.0421   24.9999 C   0  0  0  0  0  0  0  0  0  0  0  0
   -1.7933  -23.7141   24.4430 C   0  0  0  0  0  0  0  0  0  0  0  0
   -2.3806  -24.9020   24.8758 N   0  0  0  0  0  0  0  0  0  0  0  0
   -3.3929  -25.2059   24.0947 C   0  0  0  0  0  0  0  0  0  0  0  0
   -3.7492  -24.0709   22.8578 S   0  0  0  0  0  0  0  0  0  0  0  0
   -2.3662  -23.1184   23.3229 C   0  0  0  0  0  0  0  0  0  0  0  0
   -1.7725  -21.9520   22.6940 C   0  0  0  0  0  0  0  0  0  0  0  0
    2.8943  -11.5608   21.3078 H   0  0  0  0  0  0  0  0  0  0  0  0
    4.6028  -11.5010   20.9671 H   0  0  0  0  0  0  0  0  0  0  0  0
    3.4531  -11.4469   19.6243 H   0  0  0  0  0  0  0  0  0  0  0  0
    4.8197  -13.5937   20.3778 H   0  0  0  0  0  0  0  0  0  0  0  0
    3.5734  -13.9195   21.5005 H   0  0  0  0  0  0  0  0  0  0  0  0
    4.4487  -12.9916   18.2069 H   0  0  0  0  0  0  0  0  0  0  0  0
    2.9641  -16.7108   17.2213 H   0  0  0  0  0  0  0  0  0  0  0  0
    1.3658  -17.5958   18.7272 H   0  0  0  0  0  0  0  0  0  0  0  0
    0.6060  -16.2447   18.8707 H   0  0  0  0  0  0  0  0  0  0  0  0
    0.4665  -15.6688   21.3286 H   0  0  0  0  0  0  0  0  0  0  0  0
   -0.8019  -16.6990   21.8458 H   0  0  0  0  0  0  0  0  0  0  0  0
   -1.1281  -16.2120   20.4956 H   0  0  0  0  0  0  0  0  0  0  0  0
    0.4176  -19.4545   23.1802 H   0  0  0  0  0  0  0  0  0  0  0  0
    0.7169  -21.3967   24.8692 H   0  0  0  0  0  0  0  0  0  0  0  0
   -0.2291  -23.4352   25.9037 H   0  0  0  0  0  0  0  0  0  0  0  0
   -3.9845  -26.1018   24.2321 H   0  0  0  0  0  0  0  0  0  0  0  0
   -2.2838  -21.5523   21.8344 H   0  0  0  0  0  0  0  0  0  0  0  0
  1  2  1  0
  2  3  1  0
  3  4  1  0
  4  5  2  0
  5  6  1  0
  6  7  2  0
  7  8  1  0
  8  9  1  0
  9 10  1  0
  9 11  1  0
 11 12  2  0
 11 13  1  0
 13 14  1  0
 14 15  2  0
 15 16  1  0
 16 17  2  0
 17 18  1  0
 18 19  2  0
 19 20  1  0
 20 21  1  0
 21 22  2  0
  7  3  1  0
 22 14  1  0
 21 17  1  0
  1 23  1  0
  1 24  1  0
  1 25  1  0
  2 26  1  0
  2 27  1  0
  4 28  1  0
  6 29  1  0
  8 30  1  0
  8 31  1  0
 10 32  1  0
 10 33  1  0
 10 34  1  0
 13 35  1  0
 15 36  1  0
 16 37  1  0
 19 38  1  0
 22 39  1  0
M  END
>  <Energy>  (628) 
347.5022955983261

>  <compound_id>  (628) 
12540

>  <target_id>  (628) 
1

>  <reference_id>  (628) 
68

>  <inspiration_ids>  (628) 
[80, 68]

>  <energy_score>  (628) 
313.91886641776915

>  <distance_score>  (628) 
15.884282025691538

>  <path>  (628) 
/opt/xchem-fragalysis-2/maxwin/BulkDock/SCRATCH/511013/C12540-P68/C12540-P68.minimised.mol

>  <scratch_subdir>  (628) 
/opt/xchem-fragalysis-2/maxwin/BulkDock/SCRATCH/511013/C12540-P68

>  <fragmenstein_runtime>  (628) 
13.855916261672974

>  <fragmenstein_outcome>  (628) 
too moved

>  <fragmenstein_mode>  (628) 
expansion

>  <fragmenstein_error>  (628) 


$$$$
C12541-P80
     RDKit          3D

 32 35  0  0  0  0  0  0  0  0999 V2000
   -2.5323  -17.2956   19.2540 N   0  0  0  0  0  0  0  0  0  0  0  0
   -3.0063  -18.3582   19.3639 C   0  0  0  0  0  0  0  0  0  0  0  0
   -3.6026  -19.7101   19.2608 C   0  0  0  0  0  0  0  0  0  0  0  0
   -3.6253  -20.2921   17.9951 C   0  0  0  0  0  0  0  0  0  0  0  0
   -4.1580  -21.5936   17.8038 C   0  0  0  0  0  0  0  0  0  0  0  0
   -4.7234  -22.3614   18.8504 C   0  0  0  0  0  0  0  0  0  0  0  0
   -4.7818  -21.8478   20.1394 C   0  0  0  0  0  0  0  0  0  0  0  0
   -5.6252  -22.4922   21.2508 C   0  0  0  0  0  0  0  0  0  0  0  0
   -6.0544  -21.6466   22.1902 N   0  0  0  0  0  0  0  0  0  0  0  0
   -7.1443  -22.1946   22.7737 C   0  0  0  0  0  0  0  0  0  0  0  0
   -7.3687  -23.4486   22.2823 C   0  0  0  0  0  0  0  0  0  0  0  0
   -6.2672  -23.7852   21.4927 N   0  0  0  0  0  0  0  0  0  0  0  0
   -5.9367  -25.2009   21.2609 C   0  0  0  0  0  0  0  0  0  0  0  0
   -4.7156  -25.6006   20.7344 C   0  0  0  0  0  0  0  0  0  0  0  0
   -4.3491  -26.9767   20.6952 C   0  0  0  0  0  0  0  0  0  0  0  0
   -5.1835  -27.9946   21.2160 C   0  0  0  0  0  0  0  0  0  0  0  0
   -4.9107  -29.3568   21.2789 N   0  0  0  0  0  0  0  0  0  0  0  0
   -5.9151  -29.9798   21.8593 C   0  0  0  0  0  0  0  0  0  0  0  0
   -7.2130  -28.9891   22.3818 S   0  0  0  0  0  0  0  0  0  0  0  0
   -6.4084  -27.5996   21.7418 C   0  0  0  0  0  0  0  0  0  0  0  0
   -6.8091  -26.2347   21.7373 C   0  0  0  0  0  0  0  0  0  0  0  0
   -4.2007  -20.4998   20.3125 C   0  0  0  0  0  0  0  0  0  0  0  0
   -3.2289  -19.7581   17.1310 H   0  0  0  0  0  0  0  0  0  0  0  0
   -4.1509  -22.0112   16.7961 H   0  0  0  0  0  0  0  0  0  0  0  0
   -5.1678  -23.3240   18.6108 H   0  0  0  0  0  0  0  0  0  0  0  0
   -7.7294  -21.6535   23.5058 H   0  0  0  0  0  0  0  0  0  0  0  0
   -8.1620  -24.1339   22.5281 H   0  0  0  0  0  0  0  0  0  0  0  0
   -3.9874  -24.8730   20.3838 H   0  0  0  0  0  0  0  0  0  0  0  0
   -3.3808  -27.2622   20.2909 H   0  0  0  0  0  0  0  0  0  0  0  0
   -5.9261  -31.0513   22.0141 H   0  0  0  0  0  0  0  0  0  0  0  0
   -7.7826  -26.0267   22.1650 H   0  0  0  0  0  0  0  0  0  0  0  0
   -4.2622  -20.0525   21.3078 H   0  0  0  0  0  0  0  0  0  0  0  0
  1  2  3  0
  2  3  1  0
  3  4  2  0
  4  5  1  0
  5  6  2  0
  6  7  1  0
  7  8  1  0
  8  9  2  0
  9 10  1  0
 10 11  2  0
 11 12  1  0
 12 13  1  0
 13 14  2  0
 14 15  1  0
 15 16  2  0
 16 17  1  0
 17 18  2  0
 18 19  1  0
 19 20  1  0
 20 21  2  0
  7 22  2  0
 22  3  1  0
 12  8  1  0
 21 13  1  0
 20 16  1  0
  4 23  1  0
  5 24  1  0
  6 25  1  0
 10 26  1  0
 11 27  1  0
 14 28  1  0
 15 29  1  0
 18 30  1  0
 21 31  1  0
 22 32  1  0
M  END
>  <Energy>  (629) 
110.01114808485825

>  <compound_id>  (629) 
12541

>  <target_id>  (629) 
1

>  <reference_id>  (629) 
80

>  <inspiration_ids>  (629) 
[80, 68]

>  <energy_score>  (629) 
-48.22519622800951

>  <distance_score>  (629) 
14.415171451750595

>  <path>  (629) 
/opt/xchem-fragalysis-2/maxwin/BulkDock/SCRATCH/511013/C12541-P80/C12541-P80.minimised.mol

>  <scratch_subdir>  (629) 
/opt/xchem-fragalysis-2/maxwin/BulkDock/SCRATCH/511013/C12541-P80

>  <fragmenstein_runtime>  (629) 
12.550523519515991

>  <fragmenstein_outcome>  (629) 
too moved

>  <fragmenstein_mode>  (629) 
expansion

>  <fragmenstein_error>  (629) 


$$$$
C12541-P68
     RDKit          3D

 32 35  0  0  0  0  0  0  0  0999 V2000
    2.0051  -19.1883   17.6125 N   0  0  0  0  0  0  0  0  0  0  0  0
    1.6970  -20.2478   17.9905 C   0  0  0  0  0  0  0  0  0  0  0  0
    1.2421  -21.5744   18.4083 C   0  0  0  0  0  0  0  0  0  0  0  0
    2.1482  -22.6240   18.3813 C   0  0  0  0  0  0  0  0  0  0  0  0
    1.7153  -23.9367   18.6704 C   0  0  0  0  0  0  0  0  0  0  0  0
    0.3739  -24.2475   19.0027 C   0  0  0  0  0  0  0  0  0  0  0  0
   -0.5843  -23.2455   19.0943 C   0  0  0  0  0  0  0  0  0  0  0  0
   -2.0558  -23.4610   19.4532 C   0  0  0  0  0  0  0  0  0  0  0  0
   -2.8171  -22.3701   19.5542 N   0  0  0  0  0  0  0  0  0  0  0  0
   -4.1128  -22.7562   19.6639 C   0  0  0  0  0  0  0  0  0  0  0  0
   -4.2034  -24.1173   19.6719 C   0  0  0  0  0  0  0  0  0  0  0  0
   -2.9023  -24.6115   19.6119 N   0  0  0  0  0  0  0  0  0  0  0  0
   -2.6891  -26.0209   19.7906 C   0  0  0  0  0  0  0  0  0  0  0  0
   -3.5939  -26.9239   19.1940 C   0  0  0  0  0  0  0  0  0  0  0  0
   -3.5011  -28.3026   19.4101 C   0  0  0  0  0  0  0  0  0  0  0  0
   -2.5092  -28.7912   20.2742 C   0  0  0  0  0  0  0  0  0  0  0  0
   -2.3004  -30.1133   20.5776 N   0  0  0  0  0  0  0  0  0  0  0  0
   -1.3208  -30.2353   21.4392 C   0  0  0  0  0  0  0  0  0  0  0  0
   -0.6187  -28.7749   21.9721 S   0  0  0  0  0  0  0  0  0  0  0  0
   -1.6587  -27.8900   20.9131 C   0  0  0  0  0  0  0  0  0  0  0  0
   -1.7176  -26.4975   20.6763 C   0  0  0  0  0  0  0  0  0  0  0  0
   -0.1079  -21.9047   18.7773 C   0  0  0  0  0  0  0  0  0  0  0  0
    3.1878  -22.4536   18.1139 H   0  0  0  0  0  0  0  0  0  0  0  0
    2.4432  -24.7462   18.6216 H   0  0  0  0  0  0  0  0  0  0  0  0
    0.1261  -25.2886   19.1705 H   0  0  0  0  0  0  0  0  0  0  0  0
   -4.9147  -22.0332   19.7386 H   0  0  0  0  0  0  0  0  0  0  0  0
   -5.0632  -24.7613   19.7876 H   0  0  0  0  0  0  0  0  0  0  0  0
   -4.3655  -26.5722   18.5098 H   0  0  0  0  0  0  0  0  0  0  0  0
   -4.1786  -28.9944   18.9196 H   0  0  0  0  0  0  0  0  0  0  0  0
   -0.9806  -31.1989   21.7947 H   0  0  0  0  0  0  0  0  0  0  0  0
   -1.0607  -25.8252   21.2212 H   0  0  0  0  0  0  0  0  0  0  0  0
   -0.8425  -21.0984   18.8004 H   0  0  0  0  0  0  0  0  0  0  0  0
  1  2  3  0
  2  3  1  0
  3  4  2  0
  4  5  1  0
  5  6  2  0
  6  7  1  0
  7  8  1  0
  8  9  2  0
  9 10  1  0
 10 11  2  0
 11 12  1  0
 12 13  1  0
 13 14  2  0
 14 15  1  0
 15 16  2  0
 16 17  1  0
 17 18  2  0
 18 19  1  0
 19 20  1  0
 20 21  2  0
  7 22  2  0
 22  3  1  0
 12  8  1  0
 21 13  1  0
 20 16  1  0
  4 23  1  0
  5 24  1  0
  6 25  1  0
 10 26  1  0
 11 27  1  0
 14 28  1  0
 15 29  1  0
 18 30  1  0
 21 31  1  0
 22 32  1  0
M  END
>  <Energy>  (630) 
98.11535885693317

>  <compound_id>  (630) 
12541

>  <target_id>  (630) 
1

>  <reference_id>  (630) 
68

>  <inspiration_ids>  (630) 
[80, 68]

>  <energy_score>  (630) 
-60.120985455931816

>  <distance_score>  (630) 
14.641251715016026

>  <path>  (630) 
/opt/xchem-fragalysis-2/maxwin/BulkDock/SCRATCH/511013/C12541-P68/C12541-P68.minimised.mol

>  <scratch_subdir>  (630) 
/opt/xchem-fragalysis-2/maxwin/BulkDock/SCRATCH/511013/C12541-P68

>  <fragmenstein_runtime>  (630) 
17.18692660331726

>  <fragmenstein_outcome>  (630) 
too moved

>  <fragmenstein_mode>  (630) 
expansion

>  <fragmenstein_error>  (630) 


$$$$
C12542-P80
     RDKit          3D

 32 35  0  0  0  0  0  0  0  0999 V2000
   -2.3615  -18.1692   18.6827 O   0  0  0  0  0  0  0  0  0  0  0  0
   -2.8822  -19.3171   17.9716 C   0  0  0  0  0  0  0  0  0  0  0  0
   -3.4994  -20.3570   18.9154 C   0  0  0  0  0  0  0  0  0  0  0  0
   -3.8130  -20.3910   20.2574 C   0  0  0  0  0  0  0  0  0  0  0  0
   -4.4735  -21.6572   20.5389 C   0  0  0  0  0  0  0  0  0  0  0  0
   -4.6354  -22.3628   19.3512 C   0  0  0  0  0  0  0  0  0  0  0  0
   -5.5647  -23.4690   18.9630 C   0  0  0  0  0  0  0  0  0  0  0  0
   -6.2572  -23.1691   17.8616 N   0  0  0  0  0  0  0  0  0  0  0  0
   -7.1586  -24.1470   17.6322 C   0  0  0  0  0  0  0  0  0  0  0  0
   -7.0400  -25.1203   18.5759 C   0  0  0  0  0  0  0  0  0  0  0  0
   -5.9593  -24.7928   19.4059 N   0  0  0  0  0  0  0  0  0  0  0  0
   -5.5735  -25.7721   20.4187 C   0  0  0  0  0  0  0  0  0  0  0  0
   -5.0526  -25.4302   21.6560 C   0  0  0  0  0  0  0  0  0  0  0  0
   -4.8553  -26.4290   22.6517 C   0  0  0  0  0  0  0  0  0  0  0  0
   -5.1347  -27.8000   22.4173 C   0  0  0  0  0  0  0  0  0  0  0  0
   -4.9829  -28.8537   23.3124 N   0  0  0  0  0  0  0  0  0  0  0  0
   -5.3326  -29.9822   22.7308 C   0  0  0  0  0  0  0  0  0  0  0  0
   -5.7898  -29.8660   21.0845 S   0  0  0  0  0  0  0  0  0  0  0  0
   -5.6007  -28.1494   21.1536 C   0  0  0  0  0  0  0  0  0  0  0  0
   -5.8302  -27.1614   20.1626 C   0  0  0  0  0  0  0  0  0  0  0  0
   -3.9787  -21.5546   18.3695 O   0  0  0  0  0  0  0  0  0  0  0  0
   -1.6202  -18.5347   19.2038 H   0  0  0  0  0  0  0  0  0  0  0  0
   -3.6640  -18.9578   17.2952 H   0  0  0  0  0  0  0  0  0  0  0  0
   -2.0833  -19.7647   17.3733 H   0  0  0  0  0  0  0  0  0  0  0  0
   -3.6457  -19.5854   20.9588 H   0  0  0  0  0  0  0  0  0  0  0  0
   -4.9103  -21.9296   21.4888 H   0  0  0  0  0  0  0  0  0  0  0  0
   -7.8646  -24.0886   16.8145 H   0  0  0  0  0  0  0  0  0  0  0  0
   -7.6394  -26.0051   18.7321 H   0  0  0  0  0  0  0  0  0  0  0  0
   -4.8381  -24.3974   21.9122 H   0  0  0  0  0  0  0  0  0  0  0  0
   -4.4788  -26.1436   23.6308 H   0  0  0  0  0  0  0  0  0  0  0  0
   -5.3187  -30.9331   23.2496 H   0  0  0  0  0  0  0  0  0  0  0  0
   -6.1789  -27.5037   19.1916 H   0  0  0  0  0  0  0  0  0  0  0  0
  1  2  1  0
  2  3  1  0
  3  4  2  0
  4  5  1  0
  5  6  2  0
  6  7  1  0
  7  8  2  0
  8  9  1  0
  9 10  2  0
 10 11  1  0
 11 12  1  0
 12 13  2  0
 13 14  1  0
 14 15  2  0
 15 16  1  0
 16 17  2  0
 17 18  1  0
 18 19  1  0
 19 20  2  0
  6 21  1  0
 21  3  1  0
 11  7  1  0
 20 12  1  0
 19 15  1  0
  1 22  1  0
  2 23  1  0
  2 24  1  0
  4 25  1  0
  5 26  1  0
  9 27  1  0
 10 28  1  0
 13 29  1  0
 14 30  1  0
 17 31  1  0
 20 32  1  0
M  END
>  <Energy>  (631) 
101.37030406989422

>  <compound_id>  (631) 
12542

>  <target_id>  (631) 
1

>  <reference_id>  (631) 
80

>  <inspiration_ids>  (631) 
[80, 68]

>  <energy_score>  (631) 
-51.804861879048644

>  <distance_score>  (631) 
15.10184622995732

>  <path>  (631) 
/opt/xchem-fragalysis-2/maxwin/BulkDock/SCRATCH/511013/C12542-P80/C12542-P80.minimised.mol

>  <scratch_subdir>  (631) 
/opt/xchem-fragalysis-2/maxwin/BulkDock/SCRATCH/511013/C12542-P80

>  <fragmenstein_runtime>  (631) 
10.667563438415527

>  <fragmenstein_outcome>  (631) 
too moved

>  <fragmenstein_mode>  (631) 
expansion

>  <fragmenstein_error>  (631) 


$$$$
C12542-P68
     RDKit          3D

 32 35  0  0  0  0  0  0  0  0999 V2000
    3.9613  -19.7897   16.4287 O   0  0  0  0  0  0  0  0  0  0  0  0
    2.5776  -19.8046   16.8148 C   0  0  0  0  0  0  0  0  0  0  0  0
    2.0809  -21.1410   17.3919 C   0  0  0  0  0  0  0  0  0  0  0  0
    2.5667  -22.4281   17.4587 C   0  0  0  0  0  0  0  0  0  0  0  0
    1.5168  -23.2977   17.9854 C   0  0  0  0  0  0  0  0  0  0  0  0
    0.3959  -22.5380   18.2891 C   0  0  0  0  0  0  0  0  0  0  0  0
   -0.9462  -22.8031   18.9129 C   0  0  0  0  0  0  0  0  0  0  0  0
   -1.5177  -21.6859   19.3659 N   0  0  0  0  0  0  0  0  0  0  0  0
   -2.7607  -21.9703   19.8120 C   0  0  0  0  0  0  0  0  0  0  0  0
   -3.0288  -23.2923   19.6414 C   0  0  0  0  0  0  0  0  0  0  0  0
   -1.8869  -23.8927   19.0899 N   0  0  0  0  0  0  0  0  0  0  0  0
   -1.9502  -25.3402   18.9646 C   0  0  0  0  0  0  0  0  0  0  0  0
   -1.0339  -26.1862   19.5801 C   0  0  0  0  0  0  0  0  0  0  0  0
   -1.3389  -27.5674   19.7584 C   0  0  0  0  0  0  0  0  0  0  0  0
   -2.5622  -28.1249   19.3069 C   0  0  0  0  0  0  0  0  0  0  0  0
   -2.9859  -29.4431   19.4135 N   0  0  0  0  0  0  0  0  0  0  0  0
   -4.1594  -29.5713   18.8367 C   0  0  0  0  0  0  0  0  0  0  0  0
   -4.8672  -28.1537   18.2085 S   0  0  0  0  0  0  0  0  0  0  0  0
   -3.4607  -27.2704   18.6708 C   0  0  0  0  0  0  0  0  0  0  0  0
   -3.1742  -25.9000   18.4938 C   0  0  0  0  0  0  0  0  0  0  0  0
    0.7811  -21.1973   17.9217 O   0  0  0  0  0  0  0  0  0  0  0  0
    4.0136  -19.1009   15.7437 H   0  0  0  0  0  0  0  0  0  0  0  0
    2.0468  -19.6097   15.8885 H   0  0  0  0  0  0  0  0  0  0  0  0
    2.3955  -18.9961   17.5188 H   0  0  0  0  0  0  0  0  0  0  0  0
    3.5471  -22.7396   17.1292 H   0  0  0  0  0  0  0  0  0  0  0  0
    1.6109  -24.3620   18.1422 H   0  0  0  0  0  0  0  0  0  0  0  0
   -3.3991  -21.2107   20.2415 H   0  0  0  0  0  0  0  0  0  0  0  0
   -3.9011  -23.8645   19.9226 H   0  0  0  0  0  0  0  0  0  0  0  0
   -0.1133  -25.7935   20.0084 H   0  0  0  0  0  0  0  0  0  0  0  0
   -0.6271  -28.2152   20.2644 H   0  0  0  0  0  0  0  0  0  0  0  0
   -4.6849  -30.5084   18.7616 H   0  0  0  0  0  0  0  0  0  0  0  0
   -3.9188  -25.2676   18.0122 H   0  0  0  0  0  0  0  0  0  0  0  0
  1  2  1  0
  2  3  1  0
  3  4  2  0
  4  5  1  0
  5  6  2  0
  6  7  1  0
  7  8  2  0
  8  9  1  0
  9 10  2  0
 10 11  1  0
 11 12  1  0
 12 13  2  0
 13 14  1  0
 14 15  2  0
 15 16  1  0
 16 17  2  0
 17 18  1  0
 18 19  1  0
 19 20  2  0
  6 21  1  0
 21  3  1  0
 11  7  1  0
 20 12  1  0
 19 15  1  0
  1 22  1  0
  2 23  1  0
  2 24  1  0
  4 25  1  0
  5 26  1  0
  9 27  1  0
 10 28  1  0
 13 29  1  0
 14 30  1  0
 17 31  1  0
 20 32  1  0
M  END
>  <Energy>  (632) 
108.95192072167843

>  <compound_id>  (632) 
12542

>  <target_id>  (632) 
1

>  <reference_id>  (632) 
68

>  <inspiration_ids>  (632) 
[80, 68]

>  <energy_score>  (632) 
-44.22324522726649

>  <distance_score>  (632) 
15.310709700816643

>  <path>  (632) 
/opt/xchem-fragalysis-2/maxwin/BulkDock/SCRATCH/511013/C12542-P68/C12542-P68.minimised.mol

>  <scratch_subdir>  (632) 
/opt/xchem-fragalysis-2/maxwin/BulkDock/SCRATCH/511013/C12542-P68

>  <fragmenstein_runtime>  (632) 
15.85071325302124

>  <fragmenstein_outcome>  (632) 
too moved

>  <fragmenstein_mode>  (632) 
expansion

>  <fragmenstein_error>  (632) 


$$$$
C12543-P80
     RDKit          3D

 37 39  0  0  0  0  0  0  0  0999 V2000
   -1.0138  -23.4821   16.1006 C   0  0  0  0  0  0  0  0  0  0  0  0
   -1.9296  -22.6333   16.9744 C   0  0  0  0  0  0  0  0  0  0  0  0
   -1.4093  -22.4108   18.4111 C   0  0  0  0  0  0  0  0  0  0  0  0
   -1.3736  -23.7013   19.1783 N   0  0  0  0  0  0  0  0  0  0  0  0
   -2.3065  -24.8581   19.1758 C   0  0  0  0  0  0  0  0  0  0  0  0
   -3.2746  -25.0782   18.5002 O   0  0  0  0  0  0  0  0  0  0  0  0
   -1.9325  -25.9295   20.2761 C   0  0  0  0  0  0  0  0  0  0  0  0
   -2.7823  -27.2461   20.4416 C   0  0  0  0  0  0  0  0  0  0  0  0
   -4.1732  -27.3117   20.2815 C   0  0  0  0  0  0  0  0  0  0  0  0
   -4.9011  -28.5107   20.4967 C   0  0  0  0  0  0  0  0  0  0  0  0
   -4.2642  -29.6886   20.9239 C   0  0  0  0  0  0  0  0  0  0  0  0
   -4.8670  -30.9138   21.1688 N   0  0  0  0  0  0  0  0  0  0  0  0
   -3.9634  -31.7732   21.5762 C   0  0  0  0  0  0  0  0  0  0  0  0
   -2.3532  -31.1906   21.6542 S   0  0  0  0  0  0  0  0  0  0  0  0
   -2.8861  -29.6327   21.1199 C   0  0  0  0  0  0  0  0  0  0  0  0
   -2.1446  -28.4365   20.8880 C   0  0  0  0  0  0  0  0  0  0  0  0
   -0.1577  -21.4771   18.3809 C   0  0  0  0  0  0  0  0  0  0  0  0
   -0.1645  -20.1620   18.1405 N   0  0  0  0  0  0  0  0  0  0  0  0
    1.1487  -19.7834   17.9847 C   0  0  0  0  0  0  0  0  0  0  0  0
    1.9728  -20.8651   18.1139 C   0  0  0  0  0  0  0  0  0  0  0  0
    1.1475  -21.9176   18.3984 N   0  0  0  0  0  0  0  0  0  0  0  0
   -0.8414  -24.4696   16.5386 H   0  0  0  0  0  0  0  0  0  0  0  0
   -0.0446  -23.0000   15.9447 H   0  0  0  0  0  0  0  0  0  0  0  0
   -1.4706  -23.6288   15.1164 H   0  0  0  0  0  0  0  0  0  0  0  0
   -2.9165  -23.1080   17.0059 H   0  0  0  0  0  0  0  0  0  0  0  0
   -2.0913  -21.6666   16.4861 H   0  0  0  0  0  0  0  0  0  0  0  0
   -2.1791  -21.8296   18.9374 H   0  0  0  0  0  0  0  0  0  0  0  0
   -0.7151  -23.8074   19.9389 H   0  0  0  0  0  0  0  0  0  0  0  0
   -1.9531  -25.4194   21.2468 H   0  0  0  0  0  0  0  0  0  0  0  0
   -0.8982  -26.2293   20.0652 H   0  0  0  0  0  0  0  0  0  0  0  0
   -4.7321  -26.4318   19.9652 H   0  0  0  0  0  0  0  0  0  0  0  0
   -5.9708  -28.5501   20.3316 H   0  0  0  0  0  0  0  0  0  0  0  0
   -4.2147  -32.7916   21.8398 H   0  0  0  0  0  0  0  0  0  0  0  0
   -1.0714  -28.4454   21.0637 H   0  0  0  0  0  0  0  0  0  0  0  0
    1.4218  -18.7680   17.7483 H   0  0  0  0  0  0  0  0  0  0  0  0
    3.0388  -20.9920   18.0267 H   0  0  0  0  0  0  0  0  0  0  0  0
    1.4323  -22.8815   18.4948 H   0  0  0  0  0  0  0  0  0  0  0  0
  1  2  1  0
  2  3  1  0
  3  4  1  0
  4  5  1  0
  5  6  2  0
  5  7  1  0
  7  8  1  0
  8  9  2  0
  9 10  1  0
 10 11  2  0
 11 12  1  0
 12 13  2  0
 13 14  1  0
 14 15  1  0
 15 16  2  0
  3 17  1  0
 17 18  2  0
 18 19  1  0
 19 20  2  0
 20 21  1  0
 16  8  1  0
 21 17  1  0
 15 11  1  0
  1 22  1  0
  1 23  1  0
  1 24  1  0
  2 25  1  0
  2 26  1  0
  3 27  1  0
  4 28  1  0
  7 29  1  0
  7 30  1  0
  9 31  1  0
 10 32  1  0
 13 33  1  0
 16 34  1  0
 19 35  1  0
 20 36  1  0
 21 37  1  0
M  END
>  <Energy>  (633) 
47.377711280715808

>  <compound_id>  (633) 
12543

>  <target_id>  (633) 
1

>  <reference_id>  (633) 
80

>  <inspiration_ids>  (633) 
[80, 68]

>  <energy_score>  (633) 
-45.352384078936325

>  <distance_score>  (633) 
15.147250717594229

>  <path>  (633) 
/opt/xchem-fragalysis-2/maxwin/BulkDock/SCRATCH/511013/C12543-P80/C12543-P80.minimised.mol

>  <scratch_subdir>  (633) 
/opt/xchem-fragalysis-2/maxwin/BulkDock/SCRATCH/511013/C12543-P80

>  <fragmenstein_runtime>  (633) 
14.599013328552246

>  <fragmenstein_outcome>  (633) 
too moved

>  <fragmenstein_mode>  (633) 
expansion

>  <fragmenstein_error>  (633) 


$$$$
C12543-P68
     RDKit          3D

 37 39  0  0  0  0  0  0  0  0999 V2000
    3.8351  -16.4809   16.8844 C   0  0  0  0  0  0  0  0  0  0  0  0
    2.8232  -15.4201   17.2019 C   0  0  0  0  0  0  0  0  0  0  0  0
    3.0749  -14.4158   18.2833 C   0  0  0  0  0  0  0  0  0  0  0  0
    2.3176  -15.3881   19.6446 N   0  0  0  0  0  0  0  0  0  0  0  0
    1.3318  -16.8600   19.6275 C   0  0  0  0  0  0  0  0  0  0  0  0
    0.9568  -17.3603   18.5957 O   0  0  0  0  0  0  0  0  0  0  0  0
    0.8147  -18.0720   21.2291 C   0  0  0  0  0  0  0  0  0  0  0  0
    0.0802  -19.8087   21.3579 C   0  0  0  0  0  0  0  0  0  0  0  0
   -0.7535  -20.0466   22.4892 C   0  0  0  0  0  0  0  0  0  0  0  0
   -1.3819  -21.3008   22.7422 C   0  0  0  0  0  0  0  0  0  0  0  0
   -1.1911  -22.3987   21.8762 C   0  0  0  0  0  0  0  0  0  0  0  0
   -1.7481  -23.6747   22.0219 N   0  0  0  0  0  0  0  0  0  0  0  0
   -1.3489  -24.4381   21.0311 C   0  0  0  0  0  0  0  0  0  0  0  0
   -0.3004  -23.7029   19.8881 S   0  0  0  0  0  0  0  0  0  0  0  0
   -0.3551  -22.1991   20.7681 C   0  0  0  0  0  0  0  0  0  0  0  0
    0.3005  -20.9290   20.4990 C   0  0  0  0  0  0  0  0  0  0  0  0
    3.4897  -12.5693   17.9199 C   0  0  0  0  0  0  0  0  0  0  0  0
    2.7951  -11.5284   18.2535 N   0  0  0  0  0  0  0  0  0  0  0  0
    2.5758   -9.9116   18.0097 C   0  0  0  0  0  0  0  0  0  0  0  0
    3.5081  -10.0012   17.1552 C   0  0  0  0  0  0  0  0  0  0  0  0
    3.5253  -11.4271   16.7210 N   0  0  0  0  0  0  0  0  0  0  0  0
    3.3540  -17.4373   16.6536 H   0  0  0  0  0  0  0  0  0  0  0  0
    4.4288  -16.5986   17.7737 H   0  0  0  0  0  0  0  0  0  0  0  0
    4.5001  -16.2686   16.0567 H   0  0  0  0  0  0  0  0  0  0  0  0
    2.0441  -16.0357   17.5691 H   0  0  0  0  0  0  0  0  0  0  0  0
    2.2962  -14.9787   16.4093 H   0  0  0  0  0  0  0  0  0  0  0  0
    4.1063  -14.5620   18.5947 H   0  0  0  0  0  0  0  0  0  0  0  0
    2.5856  -15.1933   20.5833 H   0  0  0  0  0  0  0  0  0  0  0  0
    0.2334  -17.4561   21.9953 H   0  0  0  0  0  0  0  0  0  0  0  0
    1.5392  -18.6655   21.8460 H   0  0  0  0  0  0  0  0  0  0  0  0
   -0.9335  -19.2341   23.1917 H   0  0  0  0  0  0  0  0  0  0  0  0
   -2.0171  -21.4211   23.6148 H   0  0  0  0  0  0  0  0  0  0  0  0
   -1.6573  -25.4703   20.9320 H   0  0  0  0  0  0  0  0  0  0  0  0
    0.9518  -20.8474   19.6321 H   0  0  0  0  0  0  0  0  0  0  0  0
    2.2024   -9.2144   18.7495 H   0  0  0  0  0  0  0  0  0  0  0  0
    4.3338   -9.5577   17.6909 H   0  0  0  0  0  0  0  0  0  0  0  0
    3.9253  -11.7149   15.8517 H   0  0  0  0  0  0  0  0  0  0  0  0
  1  2  1  0
  2  3  1  0
  3  4  1  0
  4  5  1  0
  5  6  2  0
  5  7  1  0
  7  8  1  0
  8  9  2  0
  9 10  1  0
 10 11  2  0
 11 12  1  0
 12 13  2  0
 13 14  1  0
 14 15  1  0
 15 16  2  0
  3 17  1  0
 17 18  2  0
 18 19  1  0
 19 20  2  0
 20 21  1  0
 16  8  1  0
 21 17  1  0
 15 11  1  0
  1 22  1  0
  1 23  1  0
  1 24  1  0
  2 25  1  0
  2 26  1  0
  3 27  1  0
  4 28  1  0
  7 29  1  0
  7 30  1  0
  9 31  1  0
 10 32  1  0
 13 33  1  0
 16 34  1  0
 19 35  1  0
 20 36  1  0
 21 37  1  0
M  END
>  <Energy>  (634) 
571.44122593182328

>  <compound_id>  (634) 
12543

>  <target_id>  (634) 
1

>  <reference_id>  (634) 
68

>  <inspiration_ids>  (634) 
[80, 68]

>  <energy_score>  (634) 
478.7111305721626

>  <distance_score>  (634) 
16.312150875668813

>  <path>  (634) 
/opt/xchem-fragalysis-2/maxwin/BulkDock/SCRATCH/511013/C12543-P68/C12543-P68.minimised.mol

>  <scratch_subdir>  (634) 
/opt/xchem-fragalysis-2/maxwin/BulkDock/SCRATCH/511013/C12543-P68

>  <fragmenstein_runtime>  (634) 
21.03714108467102

>  <fragmenstein_outcome>  (634) 
too moved

>  <fragmenstein_mode>  (634) 
expansion

>  <fragmenstein_error>  (634) 


$$$$
C12550-P80
     RDKit          3D

 40 42  0  0  0  0  0  0  0  0999 V2000
    3.3588  -15.3281   18.3376 C   0  0  0  0  0  0  0  0  0  0  0  0
    2.2675  -14.7941   19.5372 C   0  0  0  0  0  0  0  0  0  0  0  0
    1.6327  -14.1246   18.0893 C   0  0  0  0  0  0  0  0  0  0  0  0
    0.8531  -16.1434   20.2143 N   0  0  0  0  0  0  0  0  0  0  0  0
   -0.8504  -16.1991   20.0256 C   0  0  0  0  0  0  0  0  0  0  0  0
   -1.6115  -15.3945   19.5134 O   0  0  0  0  0  0  0  0  0  0  0  0
   -1.5732  -17.7441   20.5623 C   0  0  0  0  0  0  0  0  0  0  0  0
   -3.0584  -18.5237   20.8710 C   0  0  0  0  0  0  0  0  0  0  0  0
   -3.2286  -20.0988   21.1925 C   0  0  0  0  0  0  0  0  0  0  0  0
   -3.1051  -20.5781   22.5102 C   0  0  0  0  0  0  0  0  0  0  0  0
   -3.3838  -21.9292   22.8816 C   0  0  0  0  0  0  0  0  0  0  0  0
   -3.8067  -22.8813   21.9291 C   0  0  0  0  0  0  0  0  0  0  0  0
   -4.1099  -24.2246   22.1672 N   0  0  0  0  0  0  0  0  0  0  0  0
   -4.4595  -24.7991   21.0388 C   0  0  0  0  0  0  0  0  0  0  0  0
   -4.4682  -23.7880   19.6507 S   0  0  0  0  0  0  0  0  0  0  0  0
   -3.9387  -22.4357   20.6096 C   0  0  0  0  0  0  0  0  0  0  0  0
   -3.6619  -21.0652   20.2350 C   0  0  0  0  0  0  0  0  0  0  0  0
    3.4054  -13.4872   20.5421 C   0  0  0  0  0  0  0  0  0  0  0  0
    4.2231  -12.6162   21.1587 N   0  0  0  0  0  0  0  0  0  0  0  0
    5.5131  -12.2596   20.6950 C   0  0  0  0  0  0  0  0  0  0  0  0
    5.4739  -12.4399   19.4362 C   0  0  0  0  0  0  0  0  0  0  0  0
    4.2865  -13.0321   19.2682 N   0  0  0  0  0  0  0  0  0  0  0  0
    3.9492  -14.5823   17.8561 H   0  0  0  0  0  0  0  0  0  0  0  0
    2.8051  -15.8010   17.5451 H   0  0  0  0  0  0  0  0  0  0  0  0
    4.2319  -15.8659   18.6611 H   0  0  0  0  0  0  0  0  0  0  0  0
    1.6341  -14.5354   17.0868 H   0  0  0  0  0  0  0  0  0  0  0  0
    0.6630  -13.6344   18.0781 H   0  0  0  0  0  0  0  0  0  0  0  0
    2.4299  -13.4789   18.0166 H   0  0  0  0  0  0  0  0  0  0  0  0
    1.1570  -16.9457   20.7210 H   0  0  0  0  0  0  0  0  0  0  0  0
   -1.5911  -18.1084   19.5359 H   0  0  0  0  0  0  0  0  0  0  0  0
   -0.8584  -18.1480   21.2738 H   0  0  0  0  0  0  0  0  0  0  0  0
   -3.5538  -18.0098   21.7019 H   0  0  0  0  0  0  0  0  0  0  0  0
   -3.6974  -18.3149   20.0010 H   0  0  0  0  0  0  0  0  0  0  0  0
   -2.8091  -19.8866   23.2988 H   0  0  0  0  0  0  0  0  0  0  0  0
   -3.2764  -22.2358   23.9183 H   0  0  0  0  0  0  0  0  0  0  0  0
   -4.7305  -25.8451   20.9785 H   0  0  0  0  0  0  0  0  0  0  0  0
   -3.8094  -20.7682   19.1985 H   0  0  0  0  0  0  0  0  0  0  0  0
    6.2714  -11.6586   21.1868 H   0  0  0  0  0  0  0  0  0  0  0  0
    5.9329  -11.7682   18.7674 H   0  0  0  0  0  0  0  0  0  0  0  0
    3.7974  -12.7592   18.4446 H   0  0  0  0  0  0  0  0  0  0  0  0
  1  2  1  0
  2  3  1  0
  2  4  1  0
  4  5  1  0
  5  6  2  0
  5  7  1  0
  7  8  1  0
  8  9  1  0
  9 10  2  0
 10 11  1  0
 11 12  2  0
 12 13  1  0
 13 14  2  0
 14 15  1  0
 15 16  1  0
 16 17  2  0
  2 18  1  0
 18 19  2  0
 19 20  1  0
 20 21  2  0
 21 22  1  0
 17  9  1  0
 22 18  1  0
 16 12  1  0
  1 23  1  0
  1 24  1  0
  1 25  1  0
  3 26  1  0
  3 27  1  0
  3 28  1  0
  4 29  1  0
  7 30  1  0
  7 31  1  0
  8 32  1  0
  8 33  1  0
 10 34  1  0
 11 35  1  0
 14 36  1  0
 17 37  1  0
 20 38  1  0
 21 39  1  0
 22 40  1  0
M  END
>  <Energy>  (635) 
513.14914617755778

>  <compound_id>  (635) 
12550

>  <target_id>  (635) 
1

>  <reference_id>  (635) 
80

>  <inspiration_ids>  (635) 
[80, 68]

>  <energy_score>  (635) 
434.49639097616705

>  <distance_score>  (635) 
15.17212832277317

>  <path>  (635) 
/opt/xchem-fragalysis-2/maxwin/BulkDock/SCRATCH/511013/C12550-P80/C12550-P80.minimised.mol

>  <scratch_subdir>  (635) 
/opt/xchem-fragalysis-2/maxwin/BulkDock/SCRATCH/511013/C12550-P80

>  <fragmenstein_runtime>  (635) 
11.731813430786133

>  <fragmenstein_outcome>  (635) 
too moved

>  <fragmenstein_mode>  (635) 
expansion

>  <fragmenstein_error>  (635) 


$$$$
C12550-P68
     RDKit          3D

 40 42  0  0  0  0  0  0  0  0999 V2000
    3.4493  -10.3192   14.2236 C   0  0  0  0  0  0  0  0  0  0  0  0
    3.6108  -11.5004   15.5077 C   0  0  0  0  0  0  0  0  0  0  0  0
    3.3746  -10.8322   16.8741 C   0  0  0  0  0  0  0  0  0  0  0  0
    1.8383  -12.4899   15.5533 N   0  0  0  0  0  0  0  0  0  0  0  0
    1.1479  -13.6820   16.7782 C   0  0  0  0  0  0  0  0  0  0  0  0
    1.7605  -14.1400   17.7284 O   0  0  0  0  0  0  0  0  0  0  0  0
   -0.7480  -14.2251   16.8744 C   0  0  0  0  0  0  0  0  0  0  0  0
   -2.7317  -14.4741   17.0559 C   0  0  0  0  0  0  0  0  0  0  0  0
   -3.8057  -16.1269   17.0239 C   0  0  0  0  0  0  0  0  0  0  0  0
   -4.4933  -16.8353   18.1033 C   0  0  0  0  0  0  0  0  0  0  0  0
   -5.2931  -18.0520   18.1068 C   0  0  0  0  0  0  0  0  0  0  0  0
   -5.3334  -18.8438   16.9731 C   0  0  0  0  0  0  0  0  0  0  0  0
   -5.8696  -20.1281   16.8787 N   0  0  0  0  0  0  0  0  0  0  0  0
   -5.6841  -20.5697   15.6585 C   0  0  0  0  0  0  0  0  0  0  0  0
   -4.9203  -19.4731   14.5701 S   0  0  0  0  0  0  0  0  0  0  0  0
   -4.7295  -18.2918   15.8421 C   0  0  0  0  0  0  0  0  0  0  0  0
   -4.0549  -16.9596   15.8455 C   0  0  0  0  0  0  0  0  0  0  0  0
    5.0071  -11.5500   14.5485 C   0  0  0  0  0  0  0  0  0  0  0  0
    5.5132  -12.5832   14.0051 N   0  0  0  0  0  0  0  0  0  0  0  0
    6.6099  -12.3650   13.3822 C   0  0  0  0  0  0  0  0  0  0  0  0
    6.9233  -11.0262   13.4195 C   0  0  0  0  0  0  0  0  0  0  0  0
    5.7502  -10.5786   13.8924 N   0  0  0  0  0  0  0  0  0  0  0  0
    2.5661  -10.6774   13.6737 H   0  0  0  0  0  0  0  0  0  0  0  0
    3.7744  -10.3623   13.1930 H   0  0  0  0  0  0  0  0  0  0  0  0
    3.9205   -9.3567   14.1818 H   0  0  0  0  0  0  0  0  0  0  0  0
    2.5346  -10.3670   17.3308 H   0  0  0  0  0  0  0  0  0  0  0  0
    3.5240  -11.6938   17.5103 H   0  0  0  0  0  0  0  0  0  0  0  0
    3.7917   -9.8721   17.1392 H   0  0  0  0  0  0  0  0  0  0  0  0
    1.1610  -12.3338   14.8162 H   0  0  0  0  0  0  0  0  0  0  0  0
   -0.5753  -14.7489   17.8172 H   0  0  0  0  0  0  0  0  0  0  0  0
   -0.9591  -13.2287   17.3053 H   0  0  0  0  0  0  0  0  0  0  0  0
   -2.9220  -13.5733   17.5928 H   0  0  0  0  0  0  0  0  0  0  0  0
   -3.0705  -14.2227   16.0849 H   0  0  0  0  0  0  0  0  0  0  0  0
   -4.3692  -16.5661   19.1549 H   0  0  0  0  0  0  0  0  0  0  0  0
   -5.7170  -18.4174   19.0374 H   0  0  0  0  0  0  0  0  0  0  0  0
   -6.0024  -21.5530   15.3387 H   0  0  0  0  0  0  0  0  0  0  0  0
   -3.6373  -16.6603   14.8907 H   0  0  0  0  0  0  0  0  0  0  0  0
    6.9378  -13.1880   12.7689 H   0  0  0  0  0  0  0  0  0  0  0  0
    7.6154  -10.4089   12.9158 H   0  0  0  0  0  0  0  0  0  0  0  0
    5.2764  -10.3114   13.0961 H   0  0  0  0  0  0  0  0  0  0  0  0
  1  2  1  0
  2  3  1  0
  2  4  1  0
  4  5  1  0
  5  6  2  0
  5  7  1  0
  7  8  1  0
  8  9  1  0
  9 10  2  0
 10 11  1  0
 11 12  2  0
 12 13  1  0
 13 14  2  0
 14 15  1  0
 15 16  1  0
 16 17  2  0
  2 18  1  0
 18 19  2  0
 19 20  1  0
 20 21  2  0
 21 22  1  0
 17  9  1  0
 22 18  1  0
 16 12  1  0
  1 23  1  0
  1 24  1  0
  1 25  1  0
  3 26  1  0
  3 27  1  0
  3 28  1  0
  4 29  1  0
  7 30  1  0
  7 31  1  0
  8 32  1  0
  8 33  1  0
 10 34  1  0
 11 35  1  0
 14 36  1  0
 17 37  1  0
 20 38  1  0
 21 39  1  0
 22 40  1  0
M  END
>  <Energy>  (636) 
671.29708269466335

>  <compound_id>  (636) 
12550

>  <target_id>  (636) 
1

>  <reference_id>  (636) 
68

>  <inspiration_ids>  (636) 
[80, 68]

>  <energy_score>  (636) 
592.644327493265

>  <distance_score>  (636) 
18.11078575934539

>  <path>  (636) 
/opt/xchem-fragalysis-2/maxwin/BulkDock/SCRATCH/511013/C12550-P68/C12550-P68.minimised.mol

>  <scratch_subdir>  (636) 
/opt/xchem-fragalysis-2/maxwin/BulkDock/SCRATCH/511013/C12550-P68

>  <fragmenstein_runtime>  (636) 
27.671719074249268

>  <fragmenstein_outcome>  (636) 
too moved

>  <fragmenstein_mode>  (636) 
expansion

>  <fragmenstein_error>  (636) 


$$$$
C12538-P80
     RDKit          3D

 38 40  0  0  0  0  0  0  0  0999 V2000
    3.3636  -23.4581   19.0493 C   0  0  0  0  0  0  0  0  0  0  0  0
    2.2380  -22.4390   19.0334 C   0  0  0  0  0  0  0  0  0  0  0  0
    1.0328  -22.9432   19.6596 N   0  0  0  0  0  0  0  0  0  0  0  0
    0.6640  -22.7767   20.9655 C   0  0  0  0  0  0  0  0  0  0  0  0
   -0.4735  -23.4004   21.2348 N   0  0  0  0  0  0  0  0  0  0  0  0
   -0.8575  -24.0381   20.0524 C   0  0  0  0  0  0  0  0  0  0  0  0
   -2.3781  -25.0461   19.7900 S   0  0  0  0  0  0  0  0  0  0  0  0
   -3.4340  -24.0550   19.7625 O   0  0  0  0  0  0  0  0  0  0  0  0
   -2.0482  -25.7983   18.5912 O   0  0  0  0  0  0  0  0  0  0  0  0
   -2.8646  -26.3167   20.9580 N   0  0  0  0  0  0  0  0  0  0  0  0
   -4.2482  -26.9492   20.6588 C   0  0  0  0  0  0  0  0  0  0  0  0
   -5.3429  -26.1214   21.3466 C   0  0  0  0  0  0  0  0  0  0  0  0
   -4.4759  -28.4388   21.0563 C   0  0  0  0  0  0  0  0  0  0  0  0
   -4.5466  -28.8576   22.3943 C   0  0  0  0  0  0  0  0  0  0  0  0
   -5.0325  -30.1360   22.7500 C   0  0  0  0  0  0  0  0  0  0  0  0
   -5.4402  -31.0490   21.7567 C   0  0  0  0  0  0  0  0  0  0  0  0
   -5.9902  -32.3050   21.9605 N   0  0  0  0  0  0  0  0  0  0  0  0
   -6.1944  -32.8922   20.8080 C   0  0  0  0  0  0  0  0  0  0  0  0
   -5.7816  -31.9886   19.4150 S   0  0  0  0  0  0  0  0  0  0  0  0
   -5.2936  -30.6691   20.4223 C   0  0  0  0  0  0  0  0  0  0  0  0
   -4.8240  -29.3816   20.0578 C   0  0  0  0  0  0  0  0  0  0  0  0
    0.0534  -23.6900   19.0520 C   0  0  0  0  0  0  0  0  0  0  0  0
    4.2610  -23.0397   18.5833 H   0  0  0  0  0  0  0  0  0  0  0  0
    3.6154  -23.7546   20.0729 H   0  0  0  0  0  0  0  0  0  0  0  0
    3.0840  -24.3634   18.5000 H   0  0  0  0  0  0  0  0  0  0  0  0
    1.9858  -22.1645   18.0031 H   0  0  0  0  0  0  0  0  0  0  0  0
    2.5411  -21.5286   19.5558 H   0  0  0  0  0  0  0  0  0  0  0  0
    1.2523  -22.2030   21.6718 H   0  0  0  0  0  0  0  0  0  0  0  0
   -2.1422  -27.0372   20.9086 H   0  0  0  0  0  0  0  0  0  0  0  0
   -4.3966  -26.8864   19.5731 H   0  0  0  0  0  0  0  0  0  0  0  0
   -6.3312  -26.5393   21.1523 H   0  0  0  0  0  0  0  0  0  0  0  0
   -5.1933  -26.0698   22.4305 H   0  0  0  0  0  0  0  0  0  0  0  0
   -5.3530  -25.0911   20.9814 H   0  0  0  0  0  0  0  0  0  0  0  0
   -4.2888  -28.1657   23.1950 H   0  0  0  0  0  0  0  0  0  0  0  0
   -5.1302  -30.4198   23.7934 H   0  0  0  0  0  0  0  0  0  0  0  0
   -6.6005  -33.8913   20.7390 H   0  0  0  0  0  0  0  0  0  0  0  0
   -4.7888  -29.1093   19.0057 H   0  0  0  0  0  0  0  0  0  0  0  0
    0.0836  -23.9430   18.0014 H   0  0  0  0  0  0  0  0  0  0  0  0
  1  2  1  0
  2  3  1  0
  3  4  1  0
  4  5  2  0
  5  6  1  0
  6  7  1  0
  7  8  2  0
  7  9  2  0
  7 10  1  0
 10 11  1  0
 11 12  1  0
 11 13  1  0
 13 14  2  0
 14 15  1  0
 15 16  2  0
 16 17  1  0
 17 18  2  0
 18 19  1  0
 19 20  1  0
 20 21  2  0
  6 22  2  0
 22  3  1  0
 21 13  1  0
 20 16  1  0
  1 23  1  0
  1 24  1  0
  1 25  1  0
  2 26  1  0
  2 27  1  0
  4 28  1  0
 10 29  1  0
 11 30  1  0
 12 31  1  0
 12 32  1  0
 12 33  1  0
 14 34  1  0
 15 35  1  0
 18 36  1  0
 21 37  1  0
 22 38  1  0
M  END
>  <Energy>  (637) 
43.413137040700335

>  <compound_id>  (637) 
12538

>  <target_id>  (637) 
1

>  <reference_id>  (637) 
80

>  <inspiration_ids>  (637) 
[80, 68]

>  <energy_score>  (637) 
-58.15992186602239

>  <distance_score>  (637) 
15.89678436983809

>  <path>  (637) 
/opt/xchem-fragalysis-2/maxwin/BulkDock/SCRATCH/511013/C12538-P80/C12538-P80.minimised.mol

>  <scratch_subdir>  (637) 
/opt/xchem-fragalysis-2/maxwin/BulkDock/SCRATCH/511013/C12538-P80

>  <fragmenstein_runtime>  (637) 
10.862412929534912

>  <fragmenstein_outcome>  (637) 
too moved

>  <fragmenstein_mode>  (637) 
expansion

>  <fragmenstein_error>  (637) 


$$$$
C12538-P68
     RDKit          3D

 38 40  0  0  0  0  0  0  0  0999 V2000
    2.2142  -21.7651   17.0997 C   0  0  0  0  0  0  0  0  0  0  0  0
    1.2792  -20.6999   17.6440 C   0  0  0  0  0  0  0  0  0  0  0  0
    0.4282  -21.1992   18.7035 N   0  0  0  0  0  0  0  0  0  0  0  0
    0.7620  -21.3695   20.0163 C   0  0  0  0  0  0  0  0  0  0  0  0
   -0.2019  -21.9784   20.6865 N   0  0  0  0  0  0  0  0  0  0  0  0
   -1.1975  -22.2682   19.7562 C   0  0  0  0  0  0  0  0  0  0  0  0
   -2.7611  -23.1443   20.1212 S   0  0  0  0  0  0  0  0  0  0  0  0
   -3.3850  -22.3150   21.1329 O   0  0  0  0  0  0  0  0  0  0  0  0
   -3.3691  -23.3040   18.8153 O   0  0  0  0  0  0  0  0  0  0  0  0
   -2.6463  -24.7570   20.8323 N   0  0  0  0  0  0  0  0  0  0  0  0
   -3.9840  -25.4434   21.1605 C   0  0  0  0  0  0  0  0  0  0  0  0
   -4.5802  -26.1441   19.9378 C   0  0  0  0  0  0  0  0  0  0  0  0
   -3.8938  -26.5013   22.2825 C   0  0  0  0  0  0  0  0  0  0  0  0
   -4.9253  -26.5847   23.2291 C   0  0  0  0  0  0  0  0  0  0  0  0
   -4.9157  -27.5531   24.2428 C   0  0  0  0  0  0  0  0  0  0  0  0
   -3.8711  -28.4965   24.3212 C   0  0  0  0  0  0  0  0  0  0  0  0
   -3.7511  -29.5256   25.2520 N   0  0  0  0  0  0  0  0  0  0  0  0
   -2.6540  -30.2055   25.0102 C   0  0  0  0  0  0  0  0  0  0  0  0
   -1.7068  -29.6786   23.6833 S   0  0  0  0  0  0  0  0  0  0  0  0
   -2.8499  -28.4218   23.3697 C   0  0  0  0  0  0  0  0  0  0  0  0
   -2.8481  -27.4435   22.3457 C   0  0  0  0  0  0  0  0  0  0  0  0
   -0.8359  -21.7076   18.5338 C   0  0  0  0  0  0  0  0  0  0  0  0
    2.8537  -21.3453   16.3171 H   0  0  0  0  0  0  0  0  0  0  0  0
    1.6503  -22.5994   16.6692 H   0  0  0  0  0  0  0  0  0  0  0  0
    2.8572  -22.1716   17.8865 H   0  0  0  0  0  0  0  0  0  0  0  0
    1.8400  -19.8494   18.0345 H   0  0  0  0  0  0  0  0  0  0  0  0
    0.6287  -20.3285   16.8449 H   0  0  0  0  0  0  0  0  0  0  0  0
    1.7199  -21.0892   20.4348 H   0  0  0  0  0  0  0  0  0  0  0  0
   -2.1008  -24.6318   21.6895 H   0  0  0  0  0  0  0  0  0  0  0  0
   -4.6689  -24.6583   21.5047 H   0  0  0  0  0  0  0  0  0  0  0  0
   -3.8829  -26.8798   19.5206 H   0  0  0  0  0  0  0  0  0  0  0  0
   -4.8096  -25.4271   19.1447 H   0  0  0  0  0  0  0  0  0  0  0  0
   -5.5075  -26.6655   20.1888 H   0  0  0  0  0  0  0  0  0  0  0  0
   -5.7567  -25.8813   23.1982 H   0  0  0  0  0  0  0  0  0  0  0  0
   -5.7231  -27.5620   24.9653 H   0  0  0  0  0  0  0  0  0  0  0  0
   -2.3542  -31.0515   25.6139 H   0  0  0  0  0  0  0  0  0  0  0  0
   -2.0461  -27.4272   21.6106 H   0  0  0  0  0  0  0  0  0  0  0  0
   -1.3466  -21.6970   17.5804 H   0  0  0  0  0  0  0  0  0  0  0  0
  1  2  1  0
  2  3  1  0
  3  4  1  0
  4  5  2  0
  5  6  1  0
  6  7  1  0
  7  8  2  0
  7  9  2  0
  7 10  1  0
 10 11  1  0
 11 12  1  0
 11 13  1  0
 13 14  2  0
 14 15  1  0
 15 16  2  0
 16 17  1  0
 17 18  2  0
 18 19  1  0
 19 20  1  0
 20 21  2  0
  6 22  2  0
 22  3  1  0
 21 13  1  0
 20 16  1  0
  1 23  1  0
  1 24  1  0
  1 25  1  0
  2 26  1  0
  2 27  1  0
  4 28  1  0
 10 29  1  0
 11 30  1  0
 12 31  1  0
 12 32  1  0
 12 33  1  0
 14 34  1  0
 15 35  1  0
 18 36  1  0
 21 37  1  0
 22 38  1  0
M  END
>  <Energy>  (638) 
33.565596371419751

>  <compound_id>  (638) 
12538

>  <target_id>  (638) 
1

>  <reference_id>  (638) 
68

>  <inspiration_ids>  (638) 
[80, 68]

>  <energy_score>  (638) 
-68.00746253530002

>  <distance_score>  (638) 
15.99504014671716

>  <path>  (638) 
/opt/xchem-fragalysis-2/maxwin/BulkDock/SCRATCH/511013/C12538-P68/C12538-P68.minimised.mol

>  <scratch_subdir>  (638) 
/opt/xchem-fragalysis-2/maxwin/BulkDock/SCRATCH/511013/C12538-P68

>  <fragmenstein_runtime>  (638) 
19.81635594367981

>  <fragmenstein_outcome>  (638) 
too moved

>  <fragmenstein_mode>  (638) 
expansion

>  <fragmenstein_error>  (638) 


$$$$
C12551-P80
     RDKit          3D

 41 43  0  0  0  0  0  0  0  0999 V2000
    2.0793  -19.4224   16.1297 C   0  0  0  0  0  0  0  0  0  0  0  0
    3.0345  -20.0725   15.1126 C   0  0  0  0  0  0  0  0  0  0  0  0
    3.3865  -18.9362   13.7469 N   0  0  0  0  0  0  0  0  0  0  0  0
    4.9490  -17.4814   13.8316 S   0  0  0  0  0  0  0  0  0  0  0  0
    5.9187  -18.2669   13.0791 O   0  0  0  0  0  0  0  0  0  0  0  0
    5.1740  -17.2702   15.2435 O   0  0  0  0  0  0  0  0  0  0  0  0
    5.2713  -15.3961   12.9708 C   0  0  0  0  0  0  0  0  0  0  0  0
    5.6375  -14.6517   11.4461 C   0  0  0  0  0  0  0  0  0  0  0  0
    6.2921  -13.4134   11.5294 N   0  0  0  0  0  0  0  0  0  0  0  0
    6.6829  -12.6300   10.3573 C   0  0  0  0  0  0  0  0  0  0  0  0
    8.2019  -12.5851   10.1903 C   0  0  0  0  0  0  0  0  0  0  0  0
    6.0796  -11.2256   10.3831 C   0  0  0  0  0  0  0  0  0  0  0  0
    6.6024  -13.0917   12.8141 C   0  0  0  0  0  0  0  0  0  0  0  0
    6.1293  -13.9793   13.6900 N   0  0  0  0  0  0  0  0  0  0  0  0
    2.2271  -21.5429   15.0208 C   0  0  0  0  0  0  0  0  0  0  0  0
    1.0571  -21.7555   14.2741 C   0  0  0  0  0  0  0  0  0  0  0  0
    0.1671  -22.8627   14.5180 C   0  0  0  0  0  0  0  0  0  0  0  0
    0.3946  -23.8112   15.5469 C   0  0  0  0  0  0  0  0  0  0  0  0
   -0.4128  -24.9006   15.8992 N   0  0  0  0  0  0  0  0  0  0  0  0
    0.1195  -25.5290   16.9233 C   0  0  0  0  0  0  0  0  0  0  0  0
    1.5978  -24.8867   17.5112 S   0  0  0  0  0  0  0  0  0  0  0  0
    1.5509  -23.6304   16.3079 C   0  0  0  0  0  0  0  0  0  0  0  0
    2.4539  -22.5277   16.0570 C   0  0  0  0  0  0  0  0  0  0  0  0
    2.3422  -18.3867   16.3154 H   0  0  0  0  0  0  0  0  0  0  0  0
    2.0886  -19.9448   17.0919 H   0  0  0  0  0  0  0  0  0  0  0  0
    1.0527  -19.4327   15.7535 H   0  0  0  0  0  0  0  0  0  0  0  0
    4.0340  -20.2794   15.5097 H   0  0  0  0  0  0  0  0  0  0  0  0
    2.5690  -18.3145   13.7547 H   0  0  0  0  0  0  0  0  0  0  0  0
    5.5301  -15.1011   10.4547 H   0  0  0  0  0  0  0  0  0  0  0  0
    6.2662  -13.1513    9.4859 H   0  0  0  0  0  0  0  0  0  0  0  0
    8.6844  -12.0443   11.0118 H   0  0  0  0  0  0  0  0  0  0  0  0
    8.6224  -13.5966   10.1656 H   0  0  0  0  0  0  0  0  0  0  0  0
    8.4726  -12.0843    9.2548 H   0  0  0  0  0  0  0  0  0  0  0  0
    4.9893  -11.2714   10.4764 H   0  0  0  0  0  0  0  0  0  0  0  0
    6.3151  -10.6876    9.4588 H   0  0  0  0  0  0  0  0  0  0  0  0
    6.4617  -10.6338   11.2220 H   0  0  0  0  0  0  0  0  0  0  0  0
    7.1758  -12.2084   13.0483 H   0  0  0  0  0  0  0  0  0  0  0  0
    0.7728  -21.0228   13.5190 H   0  0  0  0  0  0  0  0  0  0  0  0
   -0.7321  -22.9590   13.9146 H   0  0  0  0  0  0  0  0  0  0  0  0
   -0.3394  -26.3995   17.3727 H   0  0  0  0  0  0  0  0  0  0  0  0
    3.2942  -22.3913   16.7378 H   0  0  0  0  0  0  0  0  0  0  0  0
  1  2  1  0
  2  3  1  0
  3  4  1  0
  4  5  2  0
  4  6  2  0
  4  7  1  0
  7  8  2  0
  8  9  1  0
  9 10  1  0
 10 11  1  0
 10 12  1  0
  9 13  1  0
 13 14  2  0
  2 15  1  0
 15 16  2  0
 16 17  1  0
 17 18  2  0
 18 19  1  0
 19 20  2  0
 20 21  1  0
 21 22  1  0
 22 23  2  0
 14  7  1  0
 23 15  1  0
 22 18  1  0
  1 24  1  0
  1 25  1  0
  1 26  1  0
  2 27  1  0
  3 28  1  0
  8 29  1  0
 10 30  1  0
 11 31  1  0
 11 32  1  0
 11 33  1  0
 12 34  1  0
 12 35  1  0
 12 36  1  0
 13 37  1  0
 16 38  1  0
 17 39  1  0
 20 40  1  0
 23 41  1  0
M  END
>  <Energy>  (639) 
327.02024950141089

>  <compound_id>  (639) 
12551

>  <target_id>  (639) 
1

>  <reference_id>  (639) 
80

>  <inspiration_ids>  (639) 
[80, 68]

>  <energy_score>  (639) 
209.49286794590824

>  <distance_score>  (639) 
17.76544805743843

>  <path>  (639) 
/opt/xchem-fragalysis-2/maxwin/BulkDock/SCRATCH/511013/C12551-P80/C12551-P80.minimised.mol

>  <scratch_subdir>  (639) 
/opt/xchem-fragalysis-2/maxwin/BulkDock/SCRATCH/511013/C12551-P80

>  <fragmenstein_runtime>  (639) 
10.999435186386108

>  <fragmenstein_outcome>  (639) 
too moved

>  <fragmenstein_mode>  (639) 
expansion

>  <fragmenstein_error>  (639) 


$$$$
C12551-P68
     RDKit          3D

 41 43  0  0  0  0  0  0  0  0999 V2000
   -6.0212  -24.6138   20.3911 C   0  0  0  0  0  0  0  0  0  0  0  0
   -5.1781  -24.2250   21.6134 C   0  0  0  0  0  0  0  0  0  0  0  0
   -5.2223  -22.6904   21.7940 N   0  0  0  0  0  0  0  0  0  0  0  0
   -3.7158  -21.8771   21.2917 S   0  0  0  0  0  0  0  0  0  0  0  0
   -3.4945  -22.2978   19.9236 O   0  0  0  0  0  0  0  0  0  0  0  0
   -2.7487  -22.1488   22.3349 O   0  0  0  0  0  0  0  0  0  0  0  0
   -3.7314  -20.0470   21.1840 C   0  0  0  0  0  0  0  0  0  0  0  0
   -3.3639  -19.1376   22.1735 C   0  0  0  0  0  0  0  0  0  0  0  0
   -3.6324  -17.8840   21.6665 N   0  0  0  0  0  0  0  0  0  0  0  0
   -3.8567  -16.6420   22.4023 C   0  0  0  0  0  0  0  0  0  0  0  0
   -2.9622  -15.5106   21.9032 C   0  0  0  0  0  0  0  0  0  0  0  0
   -3.7678  -16.7766   23.9251 C   0  0  0  0  0  0  0  0  0  0  0  0
   -3.9809  -18.0510   20.3502 C   0  0  0  0  0  0  0  0  0  0  0  0
   -4.0529  -19.3267   20.0262 N   0  0  0  0  0  0  0  0  0  0  0  0
   -5.6120  -25.0880   22.8172 C   0  0  0  0  0  0  0  0  0  0  0  0
   -4.7195  -26.0462   23.3335 C   0  0  0  0  0  0  0  0  0  0  0  0
   -5.0635  -26.8987   24.3970 C   0  0  0  0  0  0  0  0  0  0  0  0
   -6.3469  -26.8201   24.9614 C   0  0  0  0  0  0  0  0  0  0  0  0
   -6.7931  -27.5103   26.0804 N   0  0  0  0  0  0  0  0  0  0  0  0
   -8.0707  -27.2648   26.2561 C   0  0  0  0  0  0  0  0  0  0  0  0
   -8.7917  -26.1696   25.1616 S   0  0  0  0  0  0  0  0  0  0  0  0
   -7.2658  -25.9382   24.3931 C   0  0  0  0  0  0  0  0  0  0  0  0
   -6.9095  -25.0409   23.3587 C   0  0  0  0  0  0  0  0  0  0  0  0
   -5.9400  -25.6845   20.1794 H   0  0  0  0  0  0  0  0  0  0  0  0
   -5.6703  -24.0791   19.5014 H   0  0  0  0  0  0  0  0  0  0  0  0
   -7.0759  -24.3498   20.5205 H   0  0  0  0  0  0  0  0  0  0  0  0
   -4.1370  -24.4918   21.3907 H   0  0  0  0  0  0  0  0  0  0  0  0
   -5.9773  -22.2816   21.2417 H   0  0  0  0  0  0  0  0  0  0  0  0
   -3.0281  -19.3099   23.1871 H   0  0  0  0  0  0  0  0  0  0  0  0
   -4.8957  -16.3663   22.1726 H   0  0  0  0  0  0  0  0  0  0  0  0
   -3.1670  -14.5801   22.4429 H   0  0  0  0  0  0  0  0  0  0  0  0
   -1.9081  -15.7545   22.0347 H   0  0  0  0  0  0  0  0  0  0  0  0
   -3.1224  -15.3146   20.8376 H   0  0  0  0  0  0  0  0  0  0  0  0
   -2.7696  -17.0822   24.2511 H   0  0  0  0  0  0  0  0  0  0  0  0
   -4.0025  -15.8239   24.4120 H   0  0  0  0  0  0  0  0  0  0  0  0
   -4.4832  -17.5191   24.2958 H   0  0  0  0  0  0  0  0  0  0  0  0
   -4.2153  -17.2263   19.6893 H   0  0  0  0  0  0  0  0  0  0  0  0
   -3.7118  -26.1245   22.9241 H   0  0  0  0  0  0  0  0  0  0  0  0
   -4.3348  -27.5925   24.8030 H   0  0  0  0  0  0  0  0  0  0  0  0
   -8.6436  -27.7259   27.0495 H   0  0  0  0  0  0  0  0  0  0  0  0
   -7.6507  -24.3493   22.9662 H   0  0  0  0  0  0  0  0  0  0  0  0
  1  2  1  0
  2  3  1  0
  3  4  1  0
  4  5  2  0
  4  6  2  0
  4  7  1  0
  7  8  2  0
  8  9  1  0
  9 10  1  0
 10 11  1  0
 10 12  1  0
  9 13  1  0
 13 14  2  0
  2 15  1  0
 15 16  2  0
 16 17  1  0
 17 18  2  0
 18 19  1  0
 19 20  2  0
 20 21  1  0
 21 22  1  0
 22 23  2  0
 14  7  1  0
 23 15  1  0
 22 18  1  0
  1 24  1  0
  1 25  1  0
  1 26  1  0
  2 27  1  0
  3 28  1  0
  8 29  1  0
 10 30  1  0
 11 31  1  0
 11 32  1  0
 11 33  1  0
 12 34  1  0
 12 35  1  0
 12 36  1  0
 13 37  1  0
 16 38  1  0
 17 39  1  0
 20 40  1  0
 23 41  1  0
M  END
>  <Energy>  (640) 
48.134145590074766

>  <compound_id>  (640) 
12551

>  <target_id>  (640) 
1

>  <reference_id>  (640) 
68

>  <inspiration_ids>  (640) 
[80, 68]

>  <energy_score>  (640) 
-69.3932359654267

>  <distance_score>  (640) 
16.198205336090226

>  <path>  (640) 
/opt/xchem-fragalysis-2/maxwin/BulkDock/SCRATCH/511013/C12551-P68/C12551-P68.minimised.mol

>  <scratch_subdir>  (640) 
/opt/xchem-fragalysis-2/maxwin/BulkDock/SCRATCH/511013/C12551-P68

>  <fragmenstein_runtime>  (640) 
15.814853191375732

>  <fragmenstein_outcome>  (640) 
too moved

>  <fragmenstein_mode>  (640) 
expansion

>  <fragmenstein_error>  (640) 


$$$$
C12552-P80
     RDKit          3D

 41 43  0  0  0  0  0  0  0  0999 V2000
    9.5174    0.0431   14.8124 C   0  0  0  0  0  0  0  0  0  0  0  0
    9.0950   -1.3892   15.1047 C   0  0  0  0  0  0  0  0  0  0  0  0
   10.3469   -2.3007   15.0375 C   0  0  0  0  0  0  0  0  0  0  0  0
    7.8207   -1.9077   14.5877 N   0  0  0  0  0  0  0  0  0  0  0  0
    7.0979   -1.8300   13.4649 C   0  0  0  0  0  0  0  0  0  0  0  0
    5.9882   -2.5544   13.5942 N   0  0  0  0  0  0  0  0  0  0  0  0
    5.6867   -2.9460   14.8992 C   0  0  0  0  0  0  0  0  0  0  0  0
    3.8165   -3.8398   15.7251 S   0  0  0  0  0  0  0  0  0  0  0  0
    2.8973   -3.7945   14.6022 O   0  0  0  0  0  0  0  0  0  0  0  0
    3.5662   -3.0478   16.9181 O   0  0  0  0  0  0  0  0  0  0  0  0
    3.6028   -5.8670   16.4640 N   0  0  0  0  0  0  0  0  0  0  0  0
    2.0447   -6.9209   16.3448 C   0  0  0  0  0  0  0  0  0  0  0  0
    1.9021   -8.5501   17.1867 C   0  0  0  0  0  0  0  0  0  0  0  0
    0.8109   -9.8547   17.1793 C   0  0  0  0  0  0  0  0  0  0  0  0
    1.2520  -11.1351   16.7519 C   0  0  0  0  0  0  0  0  0  0  0  0
    0.4666  -12.3390   16.8397 C   0  0  0  0  0  0  0  0  0  0  0  0
   -0.8398  -12.3419   17.3701 C   0  0  0  0  0  0  0  0  0  0  0  0
   -1.7298  -13.4176   17.4524 N   0  0  0  0  0  0  0  0  0  0  0  0
   -2.7829  -13.0885   18.1551 C   0  0  0  0  0  0  0  0  0  0  0  0
   -2.8145  -11.4564   18.6793 S   0  0  0  0  0  0  0  0  0  0  0  0
   -1.2784  -11.1319   17.9074 C   0  0  0  0  0  0  0  0  0  0  0  0
   -0.4778   -9.9003   17.8094 C   0  0  0  0  0  0  0  0  0  0  0  0
    7.0512   -2.8039   15.2685 C   0  0  0  0  0  0  0  0  0  0  0  0
    9.5806    0.2505   13.7438 H   0  0  0  0  0  0  0  0  0  0  0  0
   10.5057    0.2536   15.2395 H   0  0  0  0  0  0  0  0  0  0  0  0
    8.8344    0.7372   15.3077 H   0  0  0  0  0  0  0  0  0  0  0  0
    8.8635   -1.3147   16.1670 H   0  0  0  0  0  0  0  0  0  0  0  0
   11.0423   -2.0208   14.2400 H   0  0  0  0  0  0  0  0  0  0  0  0
   10.9313   -2.1948   15.9587 H   0  0  0  0  0  0  0  0  0  0  0  0
   10.1049   -3.3559   14.9198 H   0  0  0  0  0  0  0  0  0  0  0  0
    7.3429   -1.2789   12.5660 H   0  0  0  0  0  0  0  0  0  0  0  0
    3.6418   -5.6319   17.4653 H   0  0  0  0  0  0  0  0  0  0  0  0
    1.2646   -6.2658   16.7437 H   0  0  0  0  0  0  0  0  0  0  0  0
    1.9542   -7.0955   15.2683 H   0  0  0  0  0  0  0  0  0  0  0  0
    2.8644   -9.0134   16.9270 H   0  0  0  0  0  0  0  0  0  0  0  0
    1.9806   -8.2872   18.2508 H   0  0  0  0  0  0  0  0  0  0  0  0
    2.2595  -11.2317   16.3431 H   0  0  0  0  0  0  0  0  0  0  0  0
    0.9006  -13.2765   16.5247 H   0  0  0  0  0  0  0  0  0  0  0  0
   -3.5796  -13.7850   18.3812 H   0  0  0  0  0  0  0  0  0  0  0  0
   -0.8796   -8.9972   18.2655 H   0  0  0  0  0  0  0  0  0  0  0  0
    7.6761   -3.4990   15.7420 H   0  0  0  0  0  0  0  0  0  0  0  0
  1  2  1  0
  2  3  1  0
  2  4  1  0
  4  5  1  0
  5  6  2  0
  6  7  1  0
  7  8  1  0
  8  9  2  0
  8 10  2  0
  8 11  1  0
 11 12  1  0
 12 13  1  0
 13 14  1  0
 14 15  2  0
 15 16  1  0
 16 17  2  0
 17 18  1  0
 18 19  2  0
 19 20  1  0
 20 21  1  0
 21 22  2  0
  7 23  2  0
 23  4  1  0
 22 14  1  0
 21 17  1  0
  1 24  1  0
  1 25  1  0
  1 26  1  0
  2 27  1  0
  3 28  1  0
  3 29  1  0
  3 30  1  0
  5 31  1  0
 11 32  1  0
 12 33  1  0
 12 34  1  0
 13 35  1  0
 13 36  1  0
 15 37  1  0
 16 38  1  0
 19 39  1  0
 22 40  1  0
 23 41  1  0
M  END
>  <Energy>  (641) 
312.32746875078021

>  <compound_id>  (641) 
12552

>  <target_id>  (641) 
1

>  <reference_id>  (641) 
80

>  <inspiration_ids>  (641) 
[80, 68]

>  <energy_score>  (641) 
46.37585636391043

>  <distance_score>  (641) 
22.967843275789615

>  <path>  (641) 
/opt/xchem-fragalysis-2/maxwin/BulkDock/SCRATCH/511013/C12552-P80/C12552-P80.minimised.mol

>  <scratch_subdir>  (641) 
/opt/xchem-fragalysis-2/maxwin/BulkDock/SCRATCH/511013/C12552-P80

>  <fragmenstein_runtime>  (641) 
14.645082950592041

>  <fragmenstein_outcome>  (641) 
too moved

>  <fragmenstein_mode>  (641) 
expansion

>  <fragmenstein_error>  (641) 


$$$$
C12552-P68
     RDKit          3D

 41 43  0  0  0  0  0  0  0  0999 V2000
    5.4275  -14.5518   15.3758 C   0  0  0  0  0  0  0  0  0  0  0  0
    5.5621  -14.6041   16.8903 C   0  0  0  0  0  0  0  0  0  0  0  0
    6.5877  -15.6583   17.3031 C   0  0  0  0  0  0  0  0  0  0  0  0
    4.2822  -14.7500   17.5739 N   0  0  0  0  0  0  0  0  0  0  0  0
    3.6873  -13.7441   18.2810 C   0  0  0  0  0  0  0  0  0  0  0  0
    2.7056  -14.2113   19.0180 N   0  0  0  0  0  0  0  0  0  0  0  0
    2.6661  -15.6146   18.8435 C   0  0  0  0  0  0  0  0  0  0  0  0
    1.3062  -16.8485   19.7184 S   0  0  0  0  0  0  0  0  0  0  0  0
    0.7024  -15.9939   20.6801 O   0  0  0  0  0  0  0  0  0  0  0  0
    0.9958  -17.3827   18.4055 O   0  0  0  0  0  0  0  0  0  0  0  0
    0.8414  -18.6256   21.0821 N   0  0  0  0  0  0  0  0  0  0  0  0
    0.2984  -20.3603   21.0469 C   0  0  0  0  0  0  0  0  0  0  0  0
   -0.6797  -20.8313   22.3891 C   0  0  0  0  0  0  0  0  0  0  0  0
   -1.5519  -22.1246   22.7833 C   0  0  0  0  0  0  0  0  0  0  0  0
   -0.9896  -23.1304   23.6063 C   0  0  0  0  0  0  0  0  0  0  0  0
   -1.6488  -24.3400   23.9766 C   0  0  0  0  0  0  0  0  0  0  0  0
   -2.9453  -24.6227   23.5154 C   0  0  0  0  0  0  0  0  0  0  0  0
   -3.6544  -25.8035   23.7225 N   0  0  0  0  0  0  0  0  0  0  0  0
   -4.8051  -25.7302   23.0958 C   0  0  0  0  0  0  0  0  0  0  0  0
   -5.1269  -24.2515   22.2819 S   0  0  0  0  0  0  0  0  0  0  0  0
   -3.5748  -23.6283   22.7563 C   0  0  0  0  0  0  0  0  0  0  0  0
   -2.9210  -22.3650   22.4354 C   0  0  0  0  0  0  0  0  0  0  0  0
    3.5280  -15.8971   17.7680 C   0  0  0  0  0  0  0  0  0  0  0  0
    6.4029  -14.3913   14.9036 H   0  0  0  0  0  0  0  0  0  0  0  0
    5.0157  -15.4862   14.9813 H   0  0  0  0  0  0  0  0  0  0  0  0
    4.7793  -13.7225   15.0765 H   0  0  0  0  0  0  0  0  0  0  0  0
    5.9635  -13.6347   17.2164 H   0  0  0  0  0  0  0  0  0  0  0  0
    7.5847  -15.3851   16.9401 H   0  0  0  0  0  0  0  0  0  0  0  0
    6.3447  -16.6363   16.8768 H   0  0  0  0  0  0  0  0  0  0  0  0
    6.6432  -15.7558   18.3924 H   0  0  0  0  0  0  0  0  0  0  0  0
    4.0228  -12.7160   18.2596 H   0  0  0  0  0  0  0  0  0  0  0  0
    1.6112  -18.8233   21.7365 H   0  0  0  0  0  0  0  0  0  0  0  0
    1.2526  -20.8851   21.1274 H   0  0  0  0  0  0  0  0  0  0  0  0
   -0.1156  -20.6554   20.1145 H   0  0  0  0  0  0  0  0  0  0  0  0
   -1.2758  -19.9668   22.6291 H   0  0  0  0  0  0  0  0  0  0  0  0
    0.0370  -20.7831   23.1999 H   0  0  0  0  0  0  0  0  0  0  0  0
    0.0223  -23.0102   23.9794 H   0  0  0  0  0  0  0  0  0  0  0  0
   -1.1287  -25.0738   24.5862 H   0  0  0  0  0  0  0  0  0  0  0  0
   -5.5199  -26.5431   23.0990 H   0  0  0  0  0  0  0  0  0  0  0  0
   -3.4719  -21.6503   21.8315 H   0  0  0  0  0  0  0  0  0  0  0  0
    3.7054  -16.8081   17.2141 H   0  0  0  0  0  0  0  0  0  0  0  0
  1  2  1  0
  2  3  1  0
  2  4  1  0
  4  5  1  0
  5  6  2  0
  6  7  1  0
  7  8  1  0
  8  9  2  0
  8 10  2  0
  8 11  1  0
 11 12  1  0
 12 13  1  0
 13 14  1  0
 14 15  2  0
 15 16  1  0
 16 17  2  0
 17 18  1  0
 18 19  2  0
 19 20  1  0
 20 21  1  0
 21 22  2  0
  7 23  2  0
 23  4  1  0
 22 14  1  0
 21 17  1  0
  1 24  1  0
  1 25  1  0
  1 26  1  0
  2 27  1  0
  3 28  1  0
  3 29  1  0
  3 30  1  0
  5 31  1  0
 11 32  1  0
 12 33  1  0
 12 34  1  0
 13 35  1  0
 13 36  1  0
 15 37  1  0
 16 38  1  0
 19 39  1  0
 22 40  1  0
 23 41  1  0
M  END
>  <Energy>  (642) 
318.19005433689807

>  <compound_id>  (642) 
12552

>  <target_id>  (642) 
1

>  <reference_id>  (642) 
68

>  <inspiration_ids>  (642) 
[80, 68]

>  <energy_score>  (642) 
52.238441950031074

>  <distance_score>  (642) 
15.35134950131537

>  <path>  (642) 
/opt/xchem-fragalysis-2/maxwin/BulkDock/SCRATCH/511013/C12552-P68/C12552-P68.minimised.mol

>  <scratch_subdir>  (642) 
/opt/xchem-fragalysis-2/maxwin/BulkDock/SCRATCH/511013/C12552-P68

>  <fragmenstein_runtime>  (642) 
13.338524341583252

>  <fragmenstein_outcome>  (642) 
too moved

>  <fragmenstein_mode>  (642) 
expansion

>  <fragmenstein_error>  (642) 


$$$$
C12553-P80
     RDKit          3D

 35 37  0  0  0  0  0  0  0  0999 V2000
   -5.6171  -15.7250   18.5741 C   0  0  0  0  0  0  0  0  0  0  0  0
   -4.3692  -16.4443   18.9139 C   0  0  0  0  0  0  0  0  0  0  0  0
   -3.2076  -15.7998   19.2750 N   0  0  0  0  0  0  0  0  0  0  0  0
   -2.3167  -16.7708   19.6243 C   0  0  0  0  0  0  0  0  0  0  0  0
   -2.7753  -17.9807   19.3921 N   0  0  0  0  0  0  0  0  0  0  0  0
   -4.1077  -17.8076   19.0763 C   0  0  0  0  0  0  0  0  0  0  0  0
   -5.3390  -19.1279   19.1138 S   0  0  0  0  0  0  0  0  0  0  0  0
   -6.2166  -18.7493   20.2038 O   0  0  0  0  0  0  0  0  0  0  0  0
   -5.8414  -19.1762   17.7578 O   0  0  0  0  0  0  0  0  0  0  0  0
   -4.7517  -20.7647   19.4973 N   0  0  0  0  0  0  0  0  0  0  0  0
   -5.7557  -21.9250   19.9149 C   0  0  0  0  0  0  0  0  0  0  0  0
   -5.2928  -23.3802   19.4285 C   0  0  0  0  0  0  0  0  0  0  0  0
   -5.3404  -24.6960   20.2599 C   0  0  0  0  0  0  0  0  0  0  0  0
   -5.1971  -24.7300   21.6471 C   0  0  0  0  0  0  0  0  0  0  0  0
   -5.0134  -25.9492   22.3444 C   0  0  0  0  0  0  0  0  0  0  0  0
   -4.9895  -27.1933   21.6717 C   0  0  0  0  0  0  0  0  0  0  0  0
   -4.8453  -28.4478   22.2570 N   0  0  0  0  0  0  0  0  0  0  0  0
   -4.9107  -29.3771   21.3304 C   0  0  0  0  0  0  0  0  0  0  0  0
   -5.0315  -28.8139   19.7160 S   0  0  0  0  0  0  0  0  0  0  0  0
   -5.1415  -27.1784   20.2871 C   0  0  0  0  0  0  0  0  0  0  0  0
   -5.3176  -25.9522   19.5787 C   0  0  0  0  0  0  0  0  0  0  0  0
   -5.4130  -14.6893   18.2839 H   0  0  0  0  0  0  0  0  0  0  0  0
   -6.2954  -15.7121   19.4329 H   0  0  0  0  0  0  0  0  0  0  0  0
   -6.1282  -16.2114   17.7376 H   0  0  0  0  0  0  0  0  0  0  0  0
   -3.0767  -14.8040   19.3941 H   0  0  0  0  0  0  0  0  0  0  0  0
   -1.3564  -16.5571   20.0716 H   0  0  0  0  0  0  0  0  0  0  0  0
   -4.0282  -20.6598   20.2100 H   0  0  0  0  0  0  0  0  0  0  0  0
   -5.8354  -21.8880   21.0051 H   0  0  0  0  0  0  0  0  0  0  0  0
   -6.7306  -21.6957   19.4724 H   0  0  0  0  0  0  0  0  0  0  0  0
   -5.8577  -23.5722   18.5058 H   0  0  0  0  0  0  0  0  0  0  0  0
   -4.2435  -23.2858   19.1186 H   0  0  0  0  0  0  0  0  0  0  0  0
   -5.1694  -23.8074   22.2216 H   0  0  0  0  0  0  0  0  0  0  0  0
   -4.8854  -25.9415   23.4234 H   0  0  0  0  0  0  0  0  0  0  0  0
   -4.8650  -30.4332   21.5655 H   0  0  0  0  0  0  0  0  0  0  0  0
   -5.3816  -25.9791   18.4926 H   0  0  0  0  0  0  0  0  0  0  0  0
  1  2  1  0
  2  3  1  0
  3  4  1  0
  4  5  2  0
  5  6  1  0
  6  7  1  0
  7  8  2  0
  7  9  2  0
  7 10  1  0
 10 11  1  0
 11 12  1  0
 12 13  1  0
 13 14  2  0
 14 15  1  0
 15 16  2  0
 16 17  1  0
 17 18  2  0
 18 19  1  0
 19 20  1  0
 20 21  2  0
  6  2  2  0
 21 13  1  0
 20 16  1  0
  1 22  1  0
  1 23  1  0
  1 24  1  0
  3 25  1  0
  4 26  1  0
 10 27  1  0
 11 28  1  0
 11 29  1  0
 12 30  1  0
 12 31  1  0
 14 32  1  0
 15 33  1  0
 18 34  1  0
 21 35  1  0
M  END
>  <Energy>  (643) 
73.346454486016441

>  <compound_id>  (643) 
12553

>  <target_id>  (643) 
1

>  <reference_id>  (643) 
80

>  <inspiration_ids>  (643) 
[80, 68]

>  <energy_score>  (643) 
-73.7297847304651

>  <distance_score>  (643) 
15.606431783973823

>  <path>  (643) 
/opt/xchem-fragalysis-2/maxwin/BulkDock/SCRATCH/511013/C12553-P80/C12553-P80.minimised.mol

>  <scratch_subdir>  (643) 
/opt/xchem-fragalysis-2/maxwin/BulkDock/SCRATCH/511013/C12553-P80

>  <fragmenstein_runtime>  (643) 
6.899964809417725

>  <fragmenstein_outcome>  (643) 
too moved

>  <fragmenstein_mode>  (643) 
expansion

>  <fragmenstein_error>  (643) 


$$$$
C12553-P68
     RDKit          3D

 35 37  0  0  0  0  0  0  0  0999 V2000
    3.2766  -21.3818   14.7254 C   0  0  0  0  0  0  0  0  0  0  0  0
    3.0413  -20.2734   15.6738 C   0  0  0  0  0  0  0  0  0  0  0  0
    3.3581  -18.9640   15.3642 N   0  0  0  0  0  0  0  0  0  0  0  0
    3.1393  -18.2094   16.4737 C   0  0  0  0  0  0  0  0  0  0  0  0
    2.5349  -18.9154   17.4122 N   0  0  0  0  0  0  0  0  0  0  0  0
    2.4828  -20.2439   16.9521 C   0  0  0  0  0  0  0  0  0  0  0  0
    2.0271  -21.6971   17.9849 S   0  0  0  0  0  0  0  0  0  0  0  0
    1.6783  -21.1769   19.2887 O   0  0  0  0  0  0  0  0  0  0  0  0
    3.1459  -22.5934   17.7633 O   0  0  0  0  0  0  0  0  0  0  0  0
    0.5982  -22.6465   17.5662 N   0  0  0  0  0  0  0  0  0  0  0  0
    0.3619  -24.1177   18.1315 C   0  0  0  0  0  0  0  0  0  0  0  0
   -1.0731  -24.7459   17.7427 C   0  0  0  0  0  0  0  0  0  0  0  0
   -1.6760  -26.0900   18.2451 C   0  0  0  0  0  0  0  0  0  0  0  0
   -1.2327  -26.8145   19.3563 C   0  0  0  0  0  0  0  0  0  0  0  0
   -1.8779  -28.0066   19.7834 C   0  0  0  0  0  0  0  0  0  0  0  0
   -3.0032  -28.5037   19.0918 C   0  0  0  0  0  0  0  0  0  0  0  0
   -3.7290  -29.6482   19.3814 N   0  0  0  0  0  0  0  0  0  0  0  0
   -4.7296  -29.7635   18.5384 C   0  0  0  0  0  0  0  0  0  0  0  0
   -4.8356  -28.5721   17.3235 S   0  0  0  0  0  0  0  0  0  0  0  0
   -3.4588  -27.7788   17.9927 C   0  0  0  0  0  0  0  0  0  0  0  0
   -2.8210  -26.5885   17.5696 C   0  0  0  0  0  0  0  0  0  0  0  0
    4.3207  -21.7063   14.7729 H   0  0  0  0  0  0  0  0  0  0  0  0
    2.6420  -22.2427   14.9535 H   0  0  0  0  0  0  0  0  0  0  0  0
    3.0584  -21.0722   13.6982 H   0  0  0  0  0  0  0  0  0  0  0  0
    3.6286  -18.6078   14.4562 H   0  0  0  0  0  0  0  0  0  0  0  0
    3.3535  -17.1512   16.5115 H   0  0  0  0  0  0  0  0  0  0  0  0
    0.4780  -22.5520   16.5752 H   0  0  0  0  0  0  0  0  0  0  0  0
    1.1390  -24.7515   17.6898 H   0  0  0  0  0  0  0  0  0  0  0  0
    0.5170  -24.0875   19.2103 H   0  0  0  0  0  0  0  0  0  0  0  0
   -1.0430  -24.8332   16.6474 H   0  0  0  0  0  0  0  0  0  0  0  0
   -1.8323  -23.9838   17.9454 H   0  0  0  0  0  0  0  0  0  0  0  0
   -0.3769  -26.4567   19.9268 H   0  0  0  0  0  0  0  0  0  0  0  0
   -1.5036  -28.5488   20.6465 H   0  0  0  0  0  0  0  0  0  0  0  0
   -5.4556  -30.5607   18.5959 H   0  0  0  0  0  0  0  0  0  0  0  0
   -3.2212  -26.0491   16.7139 H   0  0  0  0  0  0  0  0  0  0  0  0
  1  2  1  0
  2  3  1  0
  3  4  1  0
  4  5  2  0
  5  6  1  0
  6  7  1  0
  7  8  2  0
  7  9  2  0
  7 10  1  0
 10 11  1  0
 11 12  1  0
 12 13  1  0
 13 14  2  0
 14 15  1  0
 15 16  2  0
 16 17  1  0
 17 18  2  0
 18 19  1  0
 19 20  1  0
 20 21  2  0
  6  2  2  0
 21 13  1  0
 20 16  1  0
  1 22  1  0
  1 23  1  0
  1 24  1  0
  3 25  1  0
  4 26  1  0
 10 27  1  0
 11 28  1  0
 11 29  1  0
 12 30  1  0
 12 31  1  0
 14 32  1  0
 15 33  1  0
 18 34  1  0
 21 35  1  0
M  END
>  <Energy>  (644) 
82.63885200438051

>  <compound_id>  (644) 
12553

>  <target_id>  (644) 
1

>  <reference_id>  (644) 
68

>  <inspiration_ids>  (644) 
[80, 68]

>  <energy_score>  (644) 
-64.43738721209832

>  <distance_score>  (644) 
15.371779872361833

>  <path>  (644) 
/opt/xchem-fragalysis-2/maxwin/BulkDock/SCRATCH/511013/C12553-P68/C12553-P68.minimised.mol

>  <scratch_subdir>  (644) 
/opt/xchem-fragalysis-2/maxwin/BulkDock/SCRATCH/511013/C12553-P68

>  <fragmenstein_runtime>  (644) 
11.814459800720215

>  <fragmenstein_outcome>  (644) 
too moved

>  <fragmenstein_mode>  (644) 
expansion

>  <fragmenstein_error>  (644) 


$$$$
C12554-P80
     RDKit          3D

 35 37  0  0  0  0  0  0  0  0999 V2000
   -4.2910  -19.0205   21.5869 C   0  0  0  0  0  0  0  0  0  0  0  0
   -2.9878  -19.5950   21.0182 C   0  0  0  0  0  0  0  0  0  0  0  0
   -1.7431  -18.6133   21.4145 N   0  0  0  0  0  0  0  0  0  0  0  0
   -1.2086  -17.0373   20.2296 S   0  0  0  0  0  0  0  0  0  0  0  0
   -2.0974  -15.8734   20.1353 O   0  0  0  0  0  0  0  0  0  0  0  0
   -1.3918  -17.8128   18.9993 O   0  0  0  0  0  0  0  0  0  0  0  0
    0.7821  -16.1247   20.1849 C   0  0  0  0  0  0  0  0  0  0  0  0
    2.0455  -14.9977   20.4309 C   0  0  0  0  0  0  0  0  0  0  0  0
    2.7463  -14.4653   19.1513 N   0  0  0  0  0  0  0  0  0  0  0  0
    3.9166  -13.6368   18.8320 C   0  0  0  0  0  0  0  0  0  0  0  0
    2.2076  -15.1071   18.2435 C   0  0  0  0  0  0  0  0  0  0  0  0
    1.1643  -15.8130   18.8912 N   0  0  0  0  0  0  0  0  0  0  0  0
   -3.0313  -21.1557   21.4667 C   0  0  0  0  0  0  0  0  0  0  0  0
   -2.6949  -21.5963   22.7538 C   0  0  0  0  0  0  0  0  0  0  0  0
   -2.9377  -22.9343   23.1956 C   0  0  0  0  0  0  0  0  0  0  0  0
   -3.5396  -23.9002   22.3551 C   0  0  0  0  0  0  0  0  0  0  0  0
   -3.8410  -25.2262   22.6785 N   0  0  0  0  0  0  0  0  0  0  0  0
   -4.3811  -25.8192   21.6376 C   0  0  0  0  0  0  0  0  0  0  0  0
   -4.5888  -24.8449   20.2394 S   0  0  0  0  0  0  0  0  0  0  0  0
   -3.8776  -23.4890   21.0629 C   0  0  0  0  0  0  0  0  0  0  0  0
   -3.6366  -22.1422   20.6165 C   0  0  0  0  0  0  0  0  0  0  0  0
   -5.1675  -19.5936   21.2659 H   0  0  0  0  0  0  0  0  0  0  0  0
   -4.2730  -19.0034   22.6825 H   0  0  0  0  0  0  0  0  0  0  0  0
   -4.4258  -17.9873   21.2492 H   0  0  0  0  0  0  0  0  0  0  0  0
   -3.0304  -19.5879   19.9232 H   0  0  0  0  0  0  0  0  0  0  0  0
   -1.5882  -18.3738   22.3918 H   0  0  0  0  0  0  0  0  0  0  0  0
    2.6070  -14.4724   21.1714 H   0  0  0  0  0  0  0  0  0  0  0  0
    3.6181  -12.8167   18.1874 H   0  0  0  0  0  0  0  0  0  0  0  0
    4.5382  -14.3880   18.3437 H   0  0  0  0  0  0  0  0  0  0  0  0
    4.4025  -13.1515   19.6943 H   0  0  0  0  0  0  0  0  0  0  0  0
    2.5105  -15.1990   17.2138 H   0  0  0  0  0  0  0  0  0  0  0  0
   -2.2419  -20.8945   23.4528 H   0  0  0  0  0  0  0  0  0  0  0  0
   -2.6547  -23.2229   24.2041 H   0  0  0  0  0  0  0  0  0  0  0  0
   -4.6851  -26.8579   21.6546 H   0  0  0  0  0  0  0  0  0  0  0  0
   -3.9412  -21.8620   19.6094 H   0  0  0  0  0  0  0  0  0  0  0  0
  1  2  1  0
  2  3  1  0
  3  4  1  0
  4  5  2  0
  4  6  2  0
  4  7  1  0
  7  8  2  0
  8  9  1  0
  9 10  1  0
  9 11  1  0
 11 12  2  0
  2 13  1  0
 13 14  2  0
 14 15  1  0
 15 16  2  0
 16 17  1  0
 17 18  2  0
 18 19  1  0
 19 20  1  0
 20 21  2  0
 12  7  1  0
 21 13  1  0
 20 16  1  0
  1 22  1  0
  1 23  1  0
  1 24  1  0
  2 25  1  0
  3 26  1  0
  8 27  1  0
 10 28  1  0
 10 29  1  0
 10 30  1  0
 11 31  1  0
 14 32  1  0
 15 33  1  0
 18 34  1  0
 21 35  1  0
M  END
>  <Energy>  (645) 
346.39591480017401

>  <compound_id>  (645) 
12554

>  <target_id>  (645) 
1

>  <reference_id>  (645) 
80

>  <inspiration_ids>  (645) 
[80, 68]

>  <energy_score>  (645) 
249.8537598187911

>  <distance_score>  (645) 
15.516948817960994

>  <path>  (645) 
/opt/xchem-fragalysis-2/maxwin/BulkDock/SCRATCH/511013/C12554-P80/C12554-P80.minimised.mol

>  <scratch_subdir>  (645) 
/opt/xchem-fragalysis-2/maxwin/BulkDock/SCRATCH/511013/C12554-P80

>  <fragmenstein_runtime>  (645) 
9.307727098464966

>  <fragmenstein_outcome>  (645) 
too moved

>  <fragmenstein_mode>  (645) 
expansion

>  <fragmenstein_error>  (645) 


$$$$
C12554-P68
     RDKit          3D

 35 37  0  0  0  0  0  0  0  0999 V2000
    4.2261  -18.4577   15.7782 C   0  0  0  0  0  0  0  0  0  0  0  0
    3.1176  -18.0623   16.7660 C   0  0  0  0  0  0  0  0  0  0  0  0
    3.8607  -16.6507   17.6537 N   0  0  0  0  0  0  0  0  0  0  0  0
    3.2373  -14.9653   18.4837 S   0  0  0  0  0  0  0  0  0  0  0  0
    2.4026  -15.5114   19.5520 O   0  0  0  0  0  0  0  0  0  0  0  0
    2.3552  -14.2675   17.5937 O   0  0  0  0  0  0  0  0  0  0  0  0
    4.6439  -13.5928   19.5040 C   0  0  0  0  0  0  0  0  0  0  0  0
    5.5003  -12.4515   19.3907 C   0  0  0  0  0  0  0  0  0  0  0  0
    6.3415  -12.0702   20.4616 N   0  0  0  0  0  0  0  0  0  0  0  0
    7.5692  -11.2437   20.6543 C   0  0  0  0  0  0  0  0  0  0  0  0
    6.4248  -13.2832   20.8948 C   0  0  0  0  0  0  0  0  0  0  0  0
    5.3892  -14.0098   20.5833 N   0  0  0  0  0  0  0  0  0  0  0  0
    2.5120  -19.6463   17.1602 C   0  0  0  0  0  0  0  0  0  0  0  0
    1.4827  -19.7822   18.0617 C   0  0  0  0  0  0  0  0  0  0  0  0
    0.7751  -20.9570   18.4918 C   0  0  0  0  0  0  0  0  0  0  0  0
    1.0930  -22.1947   17.9304 C   0  0  0  0  0  0  0  0  0  0  0  0
    0.5106  -23.4314   18.2263 N   0  0  0  0  0  0  0  0  0  0  0  0
    1.0735  -24.3559   17.4861 C   0  0  0  0  0  0  0  0  0  0  0  0
    2.2924  -23.8120   16.4017 S   0  0  0  0  0  0  0  0  0  0  0  0
    2.1009  -22.1710   16.9602 C   0  0  0  0  0  0  0  0  0  0  0  0
    2.7916  -20.9241   16.5676 C   0  0  0  0  0  0  0  0  0  0  0  0
    4.9806  -19.1206   16.2066 H   0  0  0  0  0  0  0  0  0  0  0  0
    4.7624  -17.5668   15.4314 H   0  0  0  0  0  0  0  0  0  0  0  0
    3.8165  -18.9373   14.8814 H   0  0  0  0  0  0  0  0  0  0  0  0
    2.4843  -17.5241   16.0896 H   0  0  0  0  0  0  0  0  0  0  0  0
    4.1673  -16.9755   18.5553 H   0  0  0  0  0  0  0  0  0  0  0  0
    5.7264  -11.7413   18.6516 H   0  0  0  0  0  0  0  0  0  0  0  0
    7.5040  -10.7906   21.6481 H   0  0  0  0  0  0  0  0  0  0  0  0
    7.6866  -10.5047   19.8566 H   0  0  0  0  0  0  0  0  0  0  0  0
    8.4674  -11.8711   20.6771 H   0  0  0  0  0  0  0  0  0  0  0  0
    7.3671  -13.5528   21.3355 H   0  0  0  0  0  0  0  0  0  0  0  0
    1.3061  -18.8249   18.4753 H   0  0  0  0  0  0  0  0  0  0  0  0
    0.0120  -20.8936   19.2601 H   0  0  0  0  0  0  0  0  0  0  0  0
    0.7899  -25.3981   17.5434 H   0  0  0  0  0  0  0  0  0  0  0  0
    3.5413  -21.0141   15.7861 H   0  0  0  0  0  0  0  0  0  0  0  0
  1  2  1  0
  2  3  1  0
  3  4  1  0
  4  5  2  0
  4  6  2  0
  4  7  1  0
  7  8  2  0
  8  9  1  0
  9 10  1  0
  9 11  1  0
 11 12  2  0
  2 13  1  0
 13 14  2  0
 14 15  1  0
 15 16  2  0
 16 17  1  0
 17 18  2  0
 18 19  1  0
 19 20  1  0
 20 21  2  0
 12  7  1  0
 21 13  1  0
 20 16  1  0
  1 22  1  0
  1 23  1  0
  1 24  1  0
  2 25  1  0
  3 26  1  0
  8 27  1  0
 10 28  1  0
 10 29  1  0
 10 30  1  0
 11 31  1  0
 14 32  1  0
 15 33  1  0
 18 34  1  0
 21 35  1  0
M  END
>  <Energy>  (646) 
299.63760635614017

>  <compound_id>  (646) 
12554

>  <target_id>  (646) 
1

>  <reference_id>  (646) 
68

>  <inspiration_ids>  (646) 
[80, 68]

>  <energy_score>  (646) 
203.0954513747642

>  <distance_score>  (646) 
17.882168926841754

>  <path>  (646) 
/opt/xchem-fragalysis-2/maxwin/BulkDock/SCRATCH/511013/C12554-P68/C12554-P68.minimised.mol

>  <scratch_subdir>  (646) 
/opt/xchem-fragalysis-2/maxwin/BulkDock/SCRATCH/511013/C12554-P68

>  <fragmenstein_runtime>  (646) 
9.757321119308472

>  <fragmenstein_outcome>  (646) 
too moved

>  <fragmenstein_mode>  (646) 
expansion

>  <fragmenstein_error>  (646) 


$$$$
C12555-P80
     RDKit          3D

 30 32  0  0  0  0  0  0  0  0999 V2000
    1.0202  -18.1222   18.3067 O   0  0  0  0  0  0  0  0  0  0  0  0
    1.6624  -18.0210   17.3432 C   0  0  0  0  0  0  0  0  0  0  0  0
    2.4127  -16.5043   16.8282 N   0  0  0  0  0  0  0  0  0  0  0  0
    2.4953  -14.8453   17.6700 C   0  0  0  0  0  0  0  0  0  0  0  0
    3.5428  -13.4298   18.1506 C   0  0  0  0  0  0  0  0  0  0  0  0
    2.9531  -12.1437   18.1706 N   0  0  0  0  0  0  0  0  0  0  0  0
    3.1389  -10.7694   17.2539 C   0  0  0  0  0  0  0  0  0  0  0  0
    3.6916  -11.4845   16.3357 C   0  0  0  0  0  0  0  0  0  0  0  0
    4.0467  -12.1895   17.5269 N   0  0  0  0  0  0  0  0  0  0  0  0
    2.0900  -19.1218   16.3929 N   0  0  0  0  0  0  0  0  0  0  0  0
    1.9011  -20.5906   16.4656 C   0  0  0  0  0  0  0  0  0  0  0  0
    2.1269  -21.5189   15.4586 C   0  0  0  0  0  0  0  0  0  0  0  0
    1.6913  -22.8943   15.5693 C   0  0  0  0  0  0  0  0  0  0  0  0
    1.0043  -23.4034   16.7032 C   0  0  0  0  0  0  0  0  0  0  0  0
    0.5172  -24.7005   16.9068 N   0  0  0  0  0  0  0  0  0  0  0  0
   -0.0709  -24.7720   18.0805 C   0  0  0  0  0  0  0  0  0  0  0  0
   -0.0689  -23.3278   19.0077 S   0  0  0  0  0  0  0  0  0  0  0  0
    0.7896  -22.5006   17.7419 C   0  0  0  0  0  0  0  0  0  0  0  0
    1.2448  -21.1358   17.6374 C   0  0  0  0  0  0  0  0  0  0  0  0
    2.8491  -16.6398   15.9210 H   0  0  0  0  0  0  0  0  0  0  0  0
    2.3026  -15.0743   18.6912 H   0  0  0  0  0  0  0  0  0  0  0  0
    1.5866  -14.3256   17.3176 H   0  0  0  0  0  0  0  0  0  0  0  0
    2.7353   -9.8241   17.6062 H   0  0  0  0  0  0  0  0  0  0  0  0
    4.1230  -11.4727   15.3457 H   0  0  0  0  0  0  0  0  0  0  0  0
    4.3957  -11.7676   18.3774 H   0  0  0  0  0  0  0  0  0  0  0  0
    2.5703  -18.7063   15.6033 H   0  0  0  0  0  0  0  0  0  0  0  0
    2.5816  -21.2009   14.5238 H   0  0  0  0  0  0  0  0  0  0  0  0
    1.8675  -23.5666   14.7329 H   0  0  0  0  0  0  0  0  0  0  0  0
   -0.5282  -25.6817   18.4466 H   0  0  0  0  0  0  0  0  0  0  0  0
    1.0448  -20.4824   18.4848 H   0  0  0  0  0  0  0  0  0  0  0  0
  1  2  2  0
  2  3  1  0
  3  4  1  0
  4  5  1  0
  5  6  2  0
  6  7  1  0
  7  8  2  0
  8  9  1  0
  2 10  1  0
 10 11  1  0
 11 12  2  0
 12 13  1  0
 13 14  2  0
 14 15  1  0
 15 16  2  0
 16 17  1  0
 17 18  1  0
 18 19  2  0
  9  5  1  0
 19 11  1  0
 18 14  1  0
  3 20  1  0
  4 21  1  0
  4 22  1  0
  7 23  1  0
  8 24  1  0
  9 25  1  0
 10 26  1  0
 12 27  1  0
 13 28  1  0
 16 29  1  0
 19 30  1  0
M  END
>  <Energy>  (647) 
363.27752901866927

>  <compound_id>  (647) 
12555

>  <target_id>  (647) 
1

>  <reference_id>  (647) 
80

>  <inspiration_ids>  (647) 
[80, 68]

>  <energy_score>  (647) 
328.4560383344461

>  <distance_score>  (647) 
17.167120869748132

>  <path>  (647) 
/opt/xchem-fragalysis-2/maxwin/BulkDock/SCRATCH/511013/C12555-P80/C12555-P80.minimised.mol

>  <scratch_subdir>  (647) 
/opt/xchem-fragalysis-2/maxwin/BulkDock/SCRATCH/511013/C12555-P80

>  <fragmenstein_runtime>  (647) 
9.927353858947754

>  <fragmenstein_outcome>  (647) 
too moved

>  <fragmenstein_mode>  (647) 
expansion

>  <fragmenstein_error>  (647) 


$$$$
C12555-P68
     RDKit          3D

 30 32  0  0  0  0  0  0  0  0999 V2000
   -1.6800  -12.5325   18.6131 O   0  0  0  0  0  0  0  0  0  0  0  0
   -1.3234  -13.1868   17.6545 C   0  0  0  0  0  0  0  0  0  0  0  0
    0.3640  -13.7284   17.0810 N   0  0  0  0  0  0  0  0  0  0  0  0
    2.0960  -13.5836   17.8418 C   0  0  0  0  0  0  0  0  0  0  0  0
    3.0897  -11.7576   17.6918 C   0  0  0  0  0  0  0  0  0  0  0  0
    3.5846  -10.9631   16.7331 N   0  0  0  0  0  0  0  0  0  0  0  0
    3.7056   -9.6791   17.4787 C   0  0  0  0  0  0  0  0  0  0  0  0
    2.6509   -8.9079   17.7165 C   0  0  0  0  0  0  0  0  0  0  0  0
    2.5012  -10.1229   18.2626 N   0  0  0  0  0  0  0  0  0  0  0  0
   -2.0783  -13.9208   16.6560 N   0  0  0  0  0  0  0  0  0  0  0  0
   -3.8180  -14.2950   16.5090 C   0  0  0  0  0  0  0  0  0  0  0  0
   -3.9043  -15.4765   15.6583 C   0  0  0  0  0  0  0  0  0  0  0  0
   -4.7162  -16.6721   15.6556 C   0  0  0  0  0  0  0  0  0  0  0  0
   -5.7910  -16.7228   16.5078 C   0  0  0  0  0  0  0  0  0  0  0  0
   -6.5684  -17.8316   16.8253 N   0  0  0  0  0  0  0  0  0  0  0  0
   -7.5325  -17.4450   17.6225 C   0  0  0  0  0  0  0  0  0  0  0  0
   -7.6080  -15.7508   17.9386 S   0  0  0  0  0  0  0  0  0  0  0  0
   -6.1268  -15.4791   17.0435 C   0  0  0  0  0  0  0  0  0  0  0  0
   -5.2020  -14.2330   16.9465 C   0  0  0  0  0  0  0  0  0  0  0  0
    0.3182  -14.1840   16.2062 H   0  0  0  0  0  0  0  0  0  0  0  0
    2.3710  -14.3509   18.6185 H   0  0  0  0  0  0  0  0  0  0  0  0
    2.4915  -14.3515   17.1676 H   0  0  0  0  0  0  0  0  0  0  0  0
    4.6380   -9.4368   18.0615 H   0  0  0  0  0  0  0  0  0  0  0  0
    2.4088   -7.9844   18.2207 H   0  0  0  0  0  0  0  0  0  0  0  0
    2.1092   -9.9977   19.1819 H   0  0  0  0  0  0  0  0  0  0  0  0
   -1.4440  -14.2640   15.9547 H   0  0  0  0  0  0  0  0  0  0  0  0
   -3.1499  -15.5607   14.9067 H   0  0  0  0  0  0  0  0  0  0  0  0
   -4.4467  -17.5173   15.0317 H   0  0  0  0  0  0  0  0  0  0  0  0
   -8.2645  -18.1295   18.0301 H   0  0  0  0  0  0  0  0  0  0  0  0
   -5.5978  -13.3610   17.4750 H   0  0  0  0  0  0  0  0  0  0  0  0
  1  2  2  0
  2  3  1  0
  3  4  1  0
  4  5  1  0
  5  6  2  0
  6  7  1  0
  7  8  2  0
  8  9  1  0
  2 10  1  0
 10 11  1  0
 11 12  2  0
 12 13  1  0
 13 14  2  0
 14 15  1  0
 15 16  2  0
 16 17  1  0
 17 18  1  0
 18 19  2  0
  9  5  1  0
 19 11  1  0
 18 14  1  0
  3 20  1  0
  4 21  1  0
  4 22  1  0
  7 23  1  0
  8 24  1  0
  9 25  1  0
 10 26  1  0
 12 27  1  0
 13 28  1  0
 16 29  1  0
 19 30  1  0
M  END
>  <Energy>  (648) 
475.24167179938098

>  <compound_id>  (648) 
12555

>  <target_id>  (648) 
1

>  <reference_id>  (648) 
68

>  <inspiration_ids>  (648) 
[80, 68]

>  <energy_score>  (648) 
440.420181115159

>  <distance_score>  (648) 
19.262821707401294

>  <path>  (648) 
/opt/xchem-fragalysis-2/maxwin/BulkDock/SCRATCH/511013/C12555-P68/C12555-P68.minimised.mol

>  <scratch_subdir>  (648) 
/opt/xchem-fragalysis-2/maxwin/BulkDock/SCRATCH/511013/C12555-P68

>  <fragmenstein_runtime>  (648) 
16.468204498291016

>  <fragmenstein_outcome>  (648) 
too moved

>  <fragmenstein_mode>  (648) 
expansion

>  <fragmenstein_error>  (648) 


$$$$
C12556-P80
     RDKit          3D

 35 37  0  0  0  0  0  0  0  0999 V2000
   -5.1271  -27.9753   18.6784 O   0  0  0  0  0  0  0  0  0  0  0  0
   -4.9459  -27.9498   20.1126 S   0  0  0  0  0  0  0  0  0  0  0  0
   -5.8299  -27.1770   20.9590 O   0  0  0  0  0  0  0  0  0  0  0  0
   -3.3420  -27.3192   20.4324 N   0  0  0  0  0  0  0  0  0  0  0  0
   -2.8078  -26.1581   19.4503 C   0  0  0  0  0  0  0  0  0  0  0  0
   -1.7904  -25.1402   20.1284 C   0  0  0  0  0  0  0  0  0  0  0  0
   -0.8468  -24.1293   19.3278 C   0  0  0  0  0  0  0  0  0  0  0  0
    0.3713  -23.7672   19.7429 N   0  0  0  0  0  0  0  0  0  0  0  0
    0.9114  -22.9215   18.7987 C   0  0  0  0  0  0  0  0  0  0  0  0
   -0.0006  -22.6998   17.8002 C   0  0  0  0  0  0  0  0  0  0  0  0
   -1.1300  -23.3990   18.1811 N   0  0  0  0  0  0  0  0  0  0  0  0
   -2.3858  -23.4126   17.4623 C   0  0  0  0  0  0  0  0  0  0  0  0
   -3.4281  -23.1971   18.3074 F   0  0  0  0  0  0  0  0  0  0  0  0
   -2.5951  -24.6239   16.8858 F   0  0  0  0  0  0  0  0  0  0  0  0
   -5.0876  -29.6680   20.6769 C   0  0  0  0  0  0  0  0  0  0  0  0
   -5.4292  -29.9298   22.0049 C   0  0  0  0  0  0  0  0  0  0  0  0
   -5.9025  -31.1992   22.3879 C   0  0  0  0  0  0  0  0  0  0  0  0
   -6.0484  -32.2347   21.4425 C   0  0  0  0  0  0  0  0  0  0  0  0
   -6.5499  -33.5114   21.6790 N   0  0  0  0  0  0  0  0  0  0  0  0
   -6.5021  -34.2097   20.5713 C   0  0  0  0  0  0  0  0  0  0  0  0
   -5.9262  -33.3938   19.1813 S   0  0  0  0  0  0  0  0  0  0  0  0
   -5.6712  -31.9679   20.1239 C   0  0  0  0  0  0  0  0  0  0  0  0
   -5.1958  -30.6959   19.7186 C   0  0  0  0  0  0  0  0  0  0  0  0
   -3.4085  -26.9157   21.3719 H   0  0  0  0  0  0  0  0  0  0  0  0
   -3.6813  -25.6018   19.0965 H   0  0  0  0  0  0  0  0  0  0  0  0
   -2.3298  -26.6647   18.6060 H   0  0  0  0  0  0  0  0  0  0  0  0
   -2.3605  -24.5229   20.8350 H   0  0  0  0  0  0  0  0  0  0  0  0
   -1.1039  -25.7414   20.7403 H   0  0  0  0  0  0  0  0  0  0  0  0
    1.9162  -22.5306   18.8979 H   0  0  0  0  0  0  0  0  0  0  0  0
    0.0485  -22.1230   16.8885 H   0  0  0  0  0  0  0  0  0  0  0  0
   -2.3844  -22.6381   16.6903 H   0  0  0  0  0  0  0  0  0  0  0  0
   -5.3895  -29.1432   22.7529 H   0  0  0  0  0  0  0  0  0  0  0  0
   -6.1908  -31.3884   23.4136 H   0  0  0  0  0  0  0  0  0  0  0  0
   -6.8188  -35.2427   20.5292 H   0  0  0  0  0  0  0  0  0  0  0  0
   -4.9910  -30.5037   18.6690 H   0  0  0  0  0  0  0  0  0  0  0  0
  1  2  2  0
  2  3  2  0
  2  4  1  0
  4  5  1  0
  5  6  1  0
  6  7  1  0
  7  8  2  0
  8  9  1  0
  9 10  2  0
 10 11  1  0
 11 12  1  0
 12 13  1  0
 12 14  1  0
  2 15  1  0
 15 16  2  0
 16 17  1  0
 17 18  2  0
 18 19  1  0
 19 20  2  0
 20 21  1  0
 21 22  1  0
 22 23  2  0
 11  7  1  0
 23 15  1  0
 22 18  1  0
  4 24  1  0
  5 25  1  0
  5 26  1  0
  6 27  1  0
  6 28  1  0
  9 29  1  0
 10 30  1  0
 12 31  1  0
 16 32  1  0
 17 33  1  0
 20 34  1  0
 23 35  1  0
M  END
>  <Energy>  (649) 
13.207038389022461

>  <compound_id>  (649) 
12556

>  <target_id>  (649) 
1

>  <reference_id>  (649) 
80

>  <inspiration_ids>  (649) 
[80, 68]

>  <energy_score>  (649) 
-237.26894826609436

>  <distance_score>  (649) 
15.148798546291687

>  <path>  (649) 
/opt/xchem-fragalysis-2/maxwin/BulkDock/SCRATCH/511013/C12556-P80/C12556-P80.minimised.mol

>  <scratch_subdir>  (649) 
/opt/xchem-fragalysis-2/maxwin/BulkDock/SCRATCH/511013/C12556-P80

>  <fragmenstein_runtime>  (649) 
8.90977168083191

>  <fragmenstein_outcome>  (649) 
too moved

>  <fragmenstein_mode>  (649) 
expansion

>  <fragmenstein_error>  (649) 


$$$$
C12556-P68
     RDKit          3D

 35 37  0  0  0  0  0  0  0  0999 V2000
   -4.5996  -26.8865   21.8750 O   0  0  0  0  0  0  0  0  0  0  0  0
   -3.8959  -26.5678   23.0968 S   0  0  0  0  0  0  0  0  0  0  0  0
   -4.5742  -25.9497   24.2131 O   0  0  0  0  0  0  0  0  0  0  0  0
   -2.4504  -25.6805   22.7435 N   0  0  0  0  0  0  0  0  0  0  0  0
   -2.3715  -24.1273   22.6768 C   0  0  0  0  0  0  0  0  0  0  0  0
   -1.0900  -23.6588   21.8616 C   0  0  0  0  0  0  0  0  0  0  0  0
   -0.4464  -22.2265   22.0103 C   0  0  0  0  0  0  0  0  0  0  0  0
   -0.9556  -21.1065   22.5089 N   0  0  0  0  0  0  0  0  0  0  0  0
    0.0643  -20.1711   22.5451 C   0  0  0  0  0  0  0  0  0  0  0  0
    1.2167  -20.7057   22.0383 C   0  0  0  0  0  0  0  0  0  0  0  0
    0.8598  -21.9545   21.5923 N   0  0  0  0  0  0  0  0  0  0  0  0
    1.7479  -22.8898   20.9265 C   0  0  0  0  0  0  0  0  0  0  0  0
    2.2541  -23.7823   21.8195 F   0  0  0  0  0  0  0  0  0  0  0  0
    1.0893  -23.6159   19.9850 F   0  0  0  0  0  0  0  0  0  0  0  0
   -3.2294  -28.1374   23.7204 C   0  0  0  0  0  0  0  0  0  0  0  0
   -2.2764  -28.8219   22.9677 C   0  0  0  0  0  0  0  0  0  0  0  0
   -1.7976  -30.0732   23.3946 C   0  0  0  0  0  0  0  0  0  0  0  0
   -2.3205  -30.6795   24.5588 C   0  0  0  0  0  0  0  0  0  0  0  0
   -2.0643  -31.9775   24.9874 N   0  0  0  0  0  0  0  0  0  0  0  0
   -2.7572  -32.2249   26.0731 C   0  0  0  0  0  0  0  0  0  0  0  0
   -3.6999  -30.9320   26.6712 S   0  0  0  0  0  0  0  0  0  0  0  0
   -3.2522  -29.9623   25.3141 C   0  0  0  0  0  0  0  0  0  0  0  0
   -3.6985  -28.6745   24.9299 C   0  0  0  0  0  0  0  0  0  0  0  0
   -1.6548  -26.0627   23.2565 H   0  0  0  0  0  0  0  0  0  0  0  0
   -3.2770  -23.7433   22.1981 H   0  0  0  0  0  0  0  0  0  0  0  0
   -2.3102  -23.7566   23.7048 H   0  0  0  0  0  0  0  0  0  0  0  0
   -1.3122  -23.7969   20.7955 H   0  0  0  0  0  0  0  0  0  0  0  0
   -0.2906  -24.3713   22.1060 H   0  0  0  0  0  0  0  0  0  0  0  0
   -0.0918  -19.1894   22.9730 H   0  0  0  0  0  0  0  0  0  0  0  0
    2.2288  -20.3416   21.9642 H   0  0  0  0  0  0  0  0  0  0  0  0
    2.5643  -22.3514   20.4471 H   0  0  0  0  0  0  0  0  0  0  0  0
   -1.9252  -28.4171   22.0193 H   0  0  0  0  0  0  0  0  0  0  0  0
   -1.0910  -30.6263   22.7794 H   0  0  0  0  0  0  0  0  0  0  0  0
   -2.7179  -33.1803   26.5799 H   0  0  0  0  0  0  0  0  0  0  0  0
   -4.4219  -28.1323   25.5312 H   0  0  0  0  0  0  0  0  0  0  0  0
  1  2  2  0
  2  3  2  0
  2  4  1  0
  4  5  1  0
  5  6  1  0
  6  7  1  0
  7  8  2  0
  8  9  1  0
  9 10  2  0
 10 11  1  0
 11 12  1  0
 12 13  1  0
 12 14  1  0
  2 15  1  0
 15 16  2  0
 16 17  1  0
 17 18  2  0
 18 19  1  0
 19 20  2  0
 20 21  1  0
 21 22  1  0
 22 23  2  0
 11  7  1  0
 23 15  1  0
 22 18  1  0
  4 24  1  0
  5 25  1  0
  5 26  1  0
  6 27  1  0
  6 28  1  0
  9 29  1  0
 10 30  1  0
 12 31  1  0
 16 32  1  0
 17 33  1  0
 20 34  1  0
 23 35  1  0
M  END
>  <Energy>  (650) 
7.1095925488587053

>  <compound_id>  (650) 
12556

>  <target_id>  (650) 
1

>  <reference_id>  (650) 
68

>  <inspiration_ids>  (650) 
[80, 68]

>  <energy_score>  (650) 
-243.36639410625799

>  <distance_score>  (650) 
15.400604626107436

>  <path>  (650) 
/opt/xchem-fragalysis-2/maxwin/BulkDock/SCRATCH/511013/C12556-P68/C12556-P68.minimised.mol

>  <scratch_subdir>  (650) 
/opt/xchem-fragalysis-2/maxwin/BulkDock/SCRATCH/511013/C12556-P68

>  <fragmenstein_runtime>  (650) 
14.100424528121948

>  <fragmenstein_outcome>  (650) 
too moved

>  <fragmenstein_mode>  (650) 
expansion

>  <fragmenstein_error>  (650) 


$$$$
C12557-P80
     RDKit          3D

 30 32  0  0  0  0  0  0  0  0999 V2000
    0.4845  -17.9529   18.9068 O   0  0  0  0  0  0  0  0  0  0  0  0
    0.1787  -17.4099   20.0011 C   0  0  0  0  0  0  0  0  0  0  0  0
    1.0166  -15.9141   20.3329 O   0  0  0  0  0  0  0  0  0  0  0  0
    2.4384  -14.6007   19.8466 C   0  0  0  0  0  0  0  0  0  0  0  0
    3.9035  -13.1972   20.1677 C   0  0  0  0  0  0  0  0  0  0  0  0
    4.4623  -12.7658   19.0494 N   0  0  0  0  0  0  0  0  0  0  0  0
    5.8592  -12.7108   19.2731 C   0  0  0  0  0  0  0  0  0  0  0  0
    6.2116  -13.5691   20.2498 C   0  0  0  0  0  0  0  0  0  0  0  0
    5.2040  -12.7903   20.8291 N   0  0  0  0  0  0  0  0  0  0  0  0
    5.9919  -11.3452   21.1276 C   0  0  0  0  0  0  0  0  0  0  0  0
    5.6334  -10.6308   22.2327 F   0  0  0  0  0  0  0  0  0  0  0  0
    7.3358  -11.5896   21.3538 F   0  0  0  0  0  0  0  0  0  0  0  0
   -0.8371  -18.3904   20.8338 C   0  0  0  0  0  0  0  0  0  0  0  0
   -0.2222  -19.5856   21.3568 C   0  0  0  0  0  0  0  0  0  0  0  0
   -0.8562  -20.8219   21.6982 C   0  0  0  0  0  0  0  0  0  0  0  0
   -2.1980  -21.0231   21.3706 C   0  0  0  0  0  0  0  0  0  0  0  0
   -2.9208  -22.2003   21.5641 N   0  0  0  0  0  0  0  0  0  0  0  0
   -4.1129  -22.0609   21.0372 C   0  0  0  0  0  0  0  0  0  0  0  0
   -4.4389  -20.5351   20.3137 S   0  0  0  0  0  0  0  0  0  0  0  0
   -2.8451  -19.9603   20.7260 C   0  0  0  0  0  0  0  0  0  0  0  0
   -2.1829  -18.6740   20.4480 C   0  0  0  0  0  0  0  0  0  0  0  0
    2.7701  -14.9906   18.8733 H   0  0  0  0  0  0  0  0  0  0  0  0
    2.5538  -14.6623   20.9107 H   0  0  0  0  0  0  0  0  0  0  0  0
    6.5279  -12.0348   18.7607 H   0  0  0  0  0  0  0  0  0  0  0  0
    7.1844  -13.7616   20.6809 H   0  0  0  0  0  0  0  0  0  0  0  0
    5.9738  -10.7388   20.2266 H   0  0  0  0  0  0  0  0  0  0  0  0
    0.8692  -19.6250   21.4320 H   0  0  0  0  0  0  0  0  0  0  0  0
   -0.2714  -21.6388   22.1108 H   0  0  0  0  0  0  0  0  0  0  0  0
   -4.8525  -22.8507   21.0528 H   0  0  0  0  0  0  0  0  0  0  0  0
   -2.7259  -17.9373   19.8596 H   0  0  0  0  0  0  0  0  0  0  0  0
  1  2  2  0
  2  3  1  0
  3  4  1  0
  4  5  1  0
  5  6  2  0
  6  7  1  0
  7  8  2  0
  8  9  1  0
  9 10  1  0
 10 11  1  0
 10 12  1  0
  2 13  1  0
 13 14  2  0
 14 15  1  0
 15 16  2  0
 16 17  1  0
 17 18  2  0
 18 19  1  0
 19 20  1  0
 20 21  2  0
  9  5  1  0
 21 13  1  0
 20 16  1  0
  4 22  1  0
  4 23  1  0
  7 24  1  0
  8 25  1  0
 10 26  1  0
 14 27  1  0
 15 28  1  0
 18 29  1  0
 21 30  1  0
M  END
>  <Energy>  (651) 
581.31471053504015

>  <compound_id>  (651) 
12557

>  <target_id>  (651) 
1

>  <reference_id>  (651) 
80

>  <inspiration_ids>  (651) 
[80, 68]

>  <energy_score>  (651) 
475.76261707873175

>  <distance_score>  (651) 
16.99825575367155

>  <path>  (651) 
/opt/xchem-fragalysis-2/maxwin/BulkDock/SCRATCH/511013/C12557-P80/C12557-P80.minimised.mol

>  <scratch_subdir>  (651) 
/opt/xchem-fragalysis-2/maxwin/BulkDock/SCRATCH/511013/C12557-P80

>  <fragmenstein_runtime>  (651) 
6.33924412727356

>  <fragmenstein_outcome>  (651) 
too moved

>  <fragmenstein_mode>  (651) 
expansion

>  <fragmenstein_error>  (651) 


$$$$
C12557-P68
     RDKit          3D

 30 32  0  0  0  0  0  0  0  0999 V2000
   -0.0455  -23.9021   16.4561 O   0  0  0  0  0  0  0  0  0  0  0  0
    0.0138  -23.7669   17.6755 C   0  0  0  0  0  0  0  0  0  0  0  0
    0.5656  -22.6380   18.2562 O   0  0  0  0  0  0  0  0  0  0  0  0
    0.5032  -21.4007   17.4382 C   0  0  0  0  0  0  0  0  0  0  0  0
    1.7976  -20.5617   17.2333 C   0  0  0  0  0  0  0  0  0  0  0  0
    1.9331  -19.2628   17.5043 N   0  0  0  0  0  0  0  0  0  0  0  0
    2.9994  -18.7970   16.7445 C   0  0  0  0  0  0  0  0  0  0  0  0
    3.5908  -19.8315   16.0762 C   0  0  0  0  0  0  0  0  0  0  0  0
    2.8561  -20.9435   16.4255 N   0  0  0  0  0  0  0  0  0  0  0  0
    3.0542  -22.2876   15.9160 C   0  0  0  0  0  0  0  0  0  0  0  0
    3.2199  -23.1784   16.9285 F   0  0  0  0  0  0  0  0  0  0  0  0
    4.1795  -22.3704   15.1522 F   0  0  0  0  0  0  0  0  0  0  0  0
   -0.5761  -24.8743   18.5818 C   0  0  0  0  0  0  0  0  0  0  0  0
   -0.8671  -24.7198   19.9408 C   0  0  0  0  0  0  0  0  0  0  0  0
   -1.4560  -25.7688   20.7108 C   0  0  0  0  0  0  0  0  0  0  0  0
   -1.7579  -27.0261   20.1351 C   0  0  0  0  0  0  0  0  0  0  0  0
   -2.2717  -28.1469   20.7828 N   0  0  0  0  0  0  0  0  0  0  0  0
   -2.3519  -29.1445   19.9296 C   0  0  0  0  0  0  0  0  0  0  0  0
   -1.9427  -28.7882   18.3055 S   0  0  0  0  0  0  0  0  0  0  0  0
   -1.4946  -27.1808   18.7721 C   0  0  0  0  0  0  0  0  0  0  0  0
   -0.9317  -26.1235   17.9944 C   0  0  0  0  0  0  0  0  0  0  0  0
    0.0723  -21.5985   16.4500 H   0  0  0  0  0  0  0  0  0  0  0  0
   -0.2116  -20.7565   17.9619 H   0  0  0  0  0  0  0  0  0  0  0  0
    3.2640  -17.7472   16.7309 H   0  0  0  0  0  0  0  0  0  0  0  0
    4.4275  -19.8802   15.3944 H   0  0  0  0  0  0  0  0  0  0  0  0
    2.1919  -22.5720   15.3071 H   0  0  0  0  0  0  0  0  0  0  0  0
   -0.6398  -23.7759   20.4349 H   0  0  0  0  0  0  0  0  0  0  0  0
   -1.6544  -25.6143   21.7684 H   0  0  0  0  0  0  0  0  0  0  0  0
   -2.6660  -30.1356   20.2240 H   0  0  0  0  0  0  0  0  0  0  0  0
   -0.7485  -26.2882   16.9335 H   0  0  0  0  0  0  0  0  0  0  0  0
  1  2  2  0
  2  3  1  0
  3  4  1  0
  4  5  1  0
  5  6  2  0
  6  7  1  0
  7  8  2  0
  8  9  1  0
  9 10  1  0
 10 11  1  0
 10 12  1  0
  2 13  1  0
 13 14  2  0
 14 15  1  0
 15 16  2  0
 16 17  1  0
 17 18  2  0
 18 19  1  0
 19 20  1  0
 20 21  2  0
  9  5  1  0
 21 13  1  0
 20 16  1  0
  4 22  1  0
  4 23  1  0
  7 24  1  0
  8 25  1  0
 10 26  1  0
 14 27  1  0
 15 28  1  0
 18 29  1  0
 21 30  1  0
M  END
>  <Energy>  (652) 
62.214629406213774

>  <compound_id>  (652) 
12557

>  <target_id>  (652) 
1

>  <reference_id>  (652) 
68

>  <inspiration_ids>  (652) 
[80, 68]

>  <energy_score>  (652) 
-43.3374640500835

>  <distance_score>  (652) 
16.259966069390675

>  <path>  (652) 
/opt/xchem-fragalysis-2/maxwin/BulkDock/SCRATCH/511013/C12557-P68/C12557-P68.minimised.mol

>  <scratch_subdir>  (652) 
/opt/xchem-fragalysis-2/maxwin/BulkDock/SCRATCH/511013/C12557-P68

>  <fragmenstein_runtime>  (652) 
12.051100969314575

>  <fragmenstein_outcome>  (652) 
too moved

>  <fragmenstein_mode>  (652) 
expansion

>  <fragmenstein_error>  (652) 


$$$$
C12558-P80
     RDKit          3D

 31 33  0  0  0  0  0  0  0  0999 V2000
    3.1330  -15.9104   16.1466 O   0  0  0  0  0  0  0  0  0  0  0  0
    2.6388  -15.8733   17.2089 C   0  0  0  0  0  0  0  0  0  0  0  0
    2.7255  -14.3857   18.2058 N   0  0  0  0  0  0  0  0  0  0  0  0
    3.6592  -12.6761   17.9253 C   0  0  0  0  0  0  0  0  0  0  0  0
    3.4785  -10.9574   16.9388 C   0  0  0  0  0  0  0  0  0  0  0  0
    2.9227   -9.8458   17.6102 N   0  0  0  0  0  0  0  0  0  0  0  0
    3.4904   -8.6186   17.3151 C   0  0  0  0  0  0  0  0  0  0  0  0
    4.2125   -8.7126   16.1892 C   0  0  0  0  0  0  0  0  0  0  0  0
    4.0048  -10.0467   15.7154 N   0  0  0  0  0  0  0  0  0  0  0  0
    4.1766  -10.1460   14.2600 C   0  0  0  0  0  0  0  0  0  0  0  0
    4.4091   -8.9058   13.6965 F   0  0  0  0  0  0  0  0  0  0  0  0
    5.1983  -10.8868   13.7785 F   0  0  0  0  0  0  0  0  0  0  0  0
    1.7553  -17.6392   17.5786 C   0  0  0  0  0  0  0  0  0  0  0  0
    0.7237  -18.2562   18.5212 C   0  0  0  0  0  0  0  0  0  0  0  0
    0.1529  -19.5882   18.6597 C   0  0  0  0  0  0  0  0  0  0  0  0
    0.5653  -20.5927   17.8027 C   0  0  0  0  0  0  0  0  0  0  0  0
    0.1529  -21.9250   17.8388 N   0  0  0  0  0  0  0  0  0  0  0  0
    0.7515  -22.5729   16.8698 C   0  0  0  0  0  0  0  0  0  0  0  0
    1.8088  -21.6401   15.8832 S   0  0  0  0  0  0  0  0  0  0  0  0
    1.4818  -20.2035   16.8210 C   0  0  0  0  0  0  0  0  0  0  0  0
    2.0188  -18.8016   16.6905 C   0  0  0  0  0  0  0  0  0  0  0  0
    2.3292  -14.5760   19.0971 H   0  0  0  0  0  0  0  0  0  0  0  0
    2.9539  -12.0935   18.3626 H   0  0  0  0  0  0  0  0  0  0  0  0
    4.3244  -12.6622   18.8185 H   0  0  0  0  0  0  0  0  0  0  0  0
    3.2464   -7.7246   17.8622 H   0  0  0  0  0  0  0  0  0  0  0  0
    4.7344   -7.9752   15.5964 H   0  0  0  0  0  0  0  0  0  0  0  0
    3.2474  -10.4245   13.8025 H   0  0  0  0  0  0  0  0  0  0  0  0
    0.3206  -17.6767   19.3679 H   0  0  0  0  0  0  0  0  0  0  0  0
   -0.5553  -19.7992   19.4553 H   0  0  0  0  0  0  0  0  0  0  0  0
    0.5940  -23.6276   16.6883 H   0  0  0  0  0  0  0  0  0  0  0  0
    2.7211  -18.6604   15.8678 H   0  0  0  0  0  0  0  0  0  0  0  0
  1  2  2  0
  2  3  1  0
  3  4  1  0
  4  5  1  0
  5  6  2  0
  6  7  1  0
  7  8  2  0
  8  9  1  0
  9 10  1  0
 10 11  1  0
 10 12  1  0
  2 13  1  0
 13 14  2  0
 14 15  1  0
 15 16  2  0
 16 17  1  0
 17 18  2  0
 18 19  1  0
 19 20  1  0
 20 21  2  0
  9  5  1  0
 21 13  1  0
 20 16  1  0
  3 22  1  0
  4 23  1  0
  4 24  1  0
  7 25  1  0
  8 26  1  0
 10 27  1  0
 14 28  1  0
 15 29  1  0
 18 30  1  0
 21 31  1  0
M  END
>  <Energy>  (653) 
455.3020957848168

>  <compound_id>  (653) 
12558

>  <target_id>  (653) 
1

>  <reference_id>  (653) 
80

>  <inspiration_ids>  (653) 
[80, 68]

>  <energy_score>  (653) 
394.7136760024106

>  <distance_score>  (653) 
18.203379909801892

>  <path>  (653) 
/opt/xchem-fragalysis-2/maxwin/BulkDock/SCRATCH/511013/C12558-P80/C12558-P80.minimised.mol

>  <scratch_subdir>  (653) 
/opt/xchem-fragalysis-2/maxwin/BulkDock/SCRATCH/511013/C12558-P80

>  <fragmenstein_runtime>  (653) 
7.862709045410156

>  <fragmenstein_outcome>  (653) 
too moved

>  <fragmenstein_mode>  (653) 
expansion

>  <fragmenstein_error>  (653) 


$$$$
C12558-P68
     RDKit          3D

 31 33  0  0  0  0  0  0  0  0999 V2000
    1.5644  -24.1466   20.5970 O   0  0  0  0  0  0  0  0  0  0  0  0
    1.0281  -23.9286   19.5446 C   0  0  0  0  0  0  0  0  0  0  0  0
    1.1514  -22.7907   18.6298 N   0  0  0  0  0  0  0  0  0  0  0  0
    1.8977  -21.5108   18.7653 C   0  0  0  0  0  0  0  0  0  0  0  0
    2.7426  -20.7712   17.6994 C   0  0  0  0  0  0  0  0  0  0  0  0
    3.9825  -20.3146   17.8996 N   0  0  0  0  0  0  0  0  0  0  0  0
    4.2663  -19.4041   16.9048 C   0  0  0  0  0  0  0  0  0  0  0  0
    3.1998  -19.3013   16.0551 C   0  0  0  0  0  0  0  0  0  0  0  0
    2.2600  -20.1866   16.5420 N   0  0  0  0  0  0  0  0  0  0  0  0
    0.9643  -20.4734   15.9596 C   0  0  0  0  0  0  0  0  0  0  0  0
   -0.0285  -20.1845   16.8488 F   0  0  0  0  0  0  0  0  0  0  0  0
    0.8434  -21.8074   15.7045 F   0  0  0  0  0  0  0  0  0  0  0  0
   -0.0205  -25.0318   19.2466 C   0  0  0  0  0  0  0  0  0  0  0  0
   -1.3898  -24.7464   19.1490 C   0  0  0  0  0  0  0  0  0  0  0  0
   -2.3851  -25.7612   19.2886 C   0  0  0  0  0  0  0  0  0  0  0  0
   -2.0326  -27.1056   19.5550 C   0  0  0  0  0  0  0  0  0  0  0  0
   -2.8974  -28.1782   19.7594 N   0  0  0  0  0  0  0  0  0  0  0  0
   -2.1949  -29.2678   19.9779 C   0  0  0  0  0  0  0  0  0  0  0  0
   -0.4943  -29.0883   19.9855 S   0  0  0  0  0  0  0  0  0  0  0  0
   -0.6707  -27.3993   19.6478 C   0  0  0  0  0  0  0  0  0  0  0  0
    0.3257  -26.3875   19.5047 C   0  0  0  0  0  0  0  0  0  0  0  0
    0.4869  -22.9009   17.8725 H   0  0  0  0  0  0  0  0  0  0  0  0
    2.5610  -21.6655   19.6261 H   0  0  0  0  0  0  0  0  0  0  0  0
    1.1373  -20.7968   19.1038 H   0  0  0  0  0  0  0  0  0  0  0  0
    5.2133  -18.8824   16.8671 H   0  0  0  0  0  0  0  0  0  0  0  0
    3.0246  -18.7056   15.1673 H   0  0  0  0  0  0  0  0  0  0  0  0
    0.8196  -19.9149   15.0314 H   0  0  0  0  0  0  0  0  0  0  0  0
   -1.7184  -23.7142   19.0424 H   0  0  0  0  0  0  0  0  0  0  0  0
   -3.4378  -25.4973   19.2290 H   0  0  0  0  0  0  0  0  0  0  0  0
   -2.6533  -30.2290   20.1521 H   0  0  0  0  0  0  0  0  0  0  0  0
    1.3705  -26.6434   19.6757 H   0  0  0  0  0  0  0  0  0  0  0  0
  1  2  2  0
  2  3  1  0
  3  4  1  0
  4  5  1  0
  5  6  2  0
  6  7  1  0
  7  8  2  0
  8  9  1  0
  9 10  1  0
 10 11  1  0
 10 12  1  0
  2 13  1  0
 13 14  2  0
 14 15  1  0
 15 16  2  0
 16 17  1  0
 17 18  2  0
 18 19  1  0
 19 20  1  0
 20 21  2  0
  9  5  1  0
 21 13  1  0
 20 16  1  0
  3 22  1  0
  4 23  1  0
  4 24  1  0
  7 25  1  0
  8 26  1  0
 10 27  1  0
 14 28  1  0
 15 29  1  0
 18 30  1  0
 21 31  1  0
M  END
>  <Energy>  (654) 
58.30064866596279

>  <compound_id>  (654) 
12558

>  <target_id>  (654) 
1

>  <reference_id>  (654) 
68

>  <inspiration_ids>  (654) 
[80, 68]

>  <energy_score>  (654) 
-2.287771116432282

>  <distance_score>  (654) 
16.09879085981406

>  <path>  (654) 
/opt/xchem-fragalysis-2/maxwin/BulkDock/SCRATCH/511013/C12558-P68/C12558-P68.minimised.mol

>  <scratch_subdir>  (654) 
/opt/xchem-fragalysis-2/maxwin/BulkDock/SCRATCH/511013/C12558-P68

>  <fragmenstein_runtime>  (654) 
13.299266815185547

>  <fragmenstein_outcome>  (654) 
too moved

>  <fragmenstein_mode>  (654) 
expansion

>  <fragmenstein_error>  (654) 


$$$$
C23736-P107
     RDKit          3D

 52 55  0  0  0  0  0  0  0  0999 V2000
  -13.8734  -24.0949   33.4431 C   0  0  0  0  0  0  0  0  0  0  0  0
  -12.6768  -25.0846   33.2090 C   0  0  0  0  0  0  0  0  0  0  0  0
  -12.1340  -25.6625   31.8302 C   0  0  0  0  0  0  0  0  0  0  0  0
  -12.2274  -24.7696   30.7420 N   0  0  0  0  0  0  0  0  0  0  0  0
  -12.6373  -24.9822   29.3687 C   0  0  0  0  0  0  0  0  0  0  0  0
  -12.9263  -25.9862   28.7822 O   0  0  0  0  0  0  0  0  0  0  0  0
  -12.7959  -23.7061   28.6696 C   0  0  0  0  0  0  0  0  0  0  0  0
  -11.7722  -22.8363   28.4440 C   0  0  0  0  0  0  0  0  0  0  0  0
  -11.5723  -21.8434   29.3794 C   0  0  0  0  0  0  0  0  0  0  0  0
  -12.3589  -21.7456   30.5440 C   0  0  0  0  0  0  0  0  0  0  0  0
  -11.9054  -21.1154   31.6780 N   0  0  0  0  0  0  0  0  0  0  0  0
  -12.6213  -20.8173   32.9168 C   0  0  0  0  0  0  0  0  0  0  0  0
  -12.2868  -21.6632   34.0286 C   0  0  0  0  0  0  0  0  0  0  0  0
  -11.4751  -22.7837   33.5157 C   0  0  0  0  0  0  0  0  0  0  0  0
  -10.3292  -22.6137   32.5738 C   0  0  0  0  0  0  0  0  0  0  0  0
  -10.5144  -21.2627   31.9228 C   0  0  0  0  0  0  0  0  0  0  0  0
  -13.6007  -22.3224   30.4871 C   0  0  0  0  0  0  0  0  0  0  0  0
  -13.8064  -23.2582   29.4869 C   0  0  0  0  0  0  0  0  0  0  0  0
  -10.7222  -26.2395   31.6849 C   0  0  0  0  0  0  0  0  0  0  0  0
  -10.5922  -27.4235   30.9542 C   0  0  0  0  0  0  0  0  0  0  0  0
  -10.2938  -26.8658   29.7217 N   0  0  0  0  0  0  0  0  0  0  0  0
  -10.7561  -27.1943   28.4577 C   0  0  0  0  0  0  0  0  0  0  0  0
  -10.5347  -26.3930   27.4142 C   0  0  0  0  0  0  0  0  0  0  0  0
   -9.8189  -25.1636   27.7792 C   0  0  0  0  0  0  0  0  0  0  0  0
   -9.3502  -24.8325   28.9359 N   0  0  0  0  0  0  0  0  0  0  0  0
   -9.6581  -25.6614   29.9671 C   0  0  0  0  0  0  0  0  0  0  0  0
   -9.6911  -25.4147   31.2624 N   0  0  0  0  0  0  0  0  0  0  0  0
  -14.8916  -24.4560   33.5527 H   0  0  0  0  0  0  0  0  0  0  0  0
  -13.9652  -23.2965   32.7303 H   0  0  0  0  0  0  0  0  0  0  0  0
  -13.7701  -23.7108   34.4547 H   0  0  0  0  0  0  0  0  0  0  0  0
  -13.0885  -25.7050   33.9755 H   0  0  0  0  0  0  0  0  0  0  0  0
  -11.7529  -24.9781   33.7701 H   0  0  0  0  0  0  0  0  0  0  0  0
  -12.7141  -26.4690   31.4735 H   0  0  0  0  0  0  0  0  0  0  0  0
  -11.9853  -23.8123   30.8661 H   0  0  0  0  0  0  0  0  0  0  0  0
  -11.1199  -22.9269   27.5923 H   0  0  0  0  0  0  0  0  0  0  0  0
  -10.7237  -21.1993   29.2171 H   0  0  0  0  0  0  0  0  0  0  0  0
  -13.7151  -20.8192   32.7986 H   0  0  0  0  0  0  0  0  0  0  0  0
  -12.2558  -19.8638   33.3309 H   0  0  0  0  0  0  0  0  0  0  0  0
  -11.8725  -21.0895   34.8537 H   0  0  0  0  0  0  0  0  0  0  0  0
  -13.2753  -21.9587   34.3394 H   0  0  0  0  0  0  0  0  0  0  0  0
  -12.1118  -23.1929   32.7745 H   0  0  0  0  0  0  0  0  0  0  0  0
  -11.3588  -23.4582   34.3354 H   0  0  0  0  0  0  0  0  0  0  0  0
   -9.3582  -22.8293   33.0234 H   0  0  0  0  0  0  0  0  0  0  0  0
  -10.3834  -23.3716   31.8074 H   0  0  0  0  0  0  0  0  0  0  0  0
  -10.1626  -20.3931   32.4784 H   0  0  0  0  0  0  0  0  0  0  0  0
  -10.0149  -21.1979   30.9974 H   0  0  0  0  0  0  0  0  0  0  0  0
  -14.3841  -22.1591   31.2142 H   0  0  0  0  0  0  0  0  0  0  0  0
  -14.6442  -23.9130   29.5224 H   0  0  0  0  0  0  0  0  0  0  0  0
  -11.1765  -28.3271   30.9857 H   0  0  0  0  0  0  0  0  0  0  0  0
  -11.4327  -28.0299   28.3797 H   0  0  0  0  0  0  0  0  0  0  0  0
  -10.9458  -26.5321   26.4283 H   0  0  0  0  0  0  0  0  0  0  0  0
   -9.6972  -24.4449   26.9577 H   0  0  0  0  0  0  0  0  0  0  0  0
  1  2  1  0
  2  3  1  0
  3  4  1  0
  4  5  1  0
  5  6  2  0
  5  7  1  0
  7  8  2  0
  8  9  1  0
  9 10  2  0
 10 11  1  0
 11 12  1  0
 12 13  1  0
 13 14  1  0
 14 15  1  0
 15 16  1  0
 10 17  1  0
 17 18  2  0
  3 19  1  0
 19 20  2  0
 20 21  1  0
 21 22  1  0
 22 23  2  0
 23 24  1  0
 24 25  2  0
 25 26  1  0
 26 27  2  0
 18  7  1  0
 27 19  1  0
 16 11  1  0
 26 21  1  0
  1 28  1  0
  1 29  1  0
  1 30  1  0
  2 31  1  0
  2 32  1  0
  3 33  1  0
  4 34  1  0
  8 35  1  0
  9 36  1  0
 12 37  1  0
 12 38  1  0
 13 39  1  0
 13 40  1  0
 14 41  1  0
 14 42  1  0
 15 43  1  0
 15 44  1  0
 16 45  1  0
 16 46  1  0
 17 47  1  0
 18 48  1  0
 20 49  1  0
 22 50  1  0
 23 51  1  0
 24 52  1  0
M  END
>  <Energy>  (655) 
315.25906071844895

>  <compound_id>  (655) 
23736

>  <target_id>  (655) 
1

>  <reference_id>  (655) 
107

>  <inspiration_ids>  (655) 
[107, 46]

>  <energy_score>  (655) 
235.00549048797276

>  <distance_score>  (655) 
2.6955793989774373

>  <path>  (655) 
/opt/xchem-fragalysis-2/maxwin/BulkDock/SCRATCH/511013/C23736-P107/C23736-P107.minimised.mol

>  <scratch_subdir>  (655) 
/opt/xchem-fragalysis-2/maxwin/BulkDock/SCRATCH/511013/C23736-P107

>  <fragmenstein_runtime>  (655) 
14.69882845878601

>  <fragmenstein_outcome>  (655) 
too moved

>  <fragmenstein_mode>  (655) 
expansion

>  <fragmenstein_error>  (655) 


$$$$
C23736-P46
     RDKit          3D

 52 55  0  0  0  0  0  0  0  0999 V2000
  -12.0098  -23.8933   26.5362 C   0  0  0  0  0  0  0  0  0  0  0  0
  -11.5743  -23.1720   27.8091 C   0  0  0  0  0  0  0  0  0  0  0  0
  -11.8003  -24.0468   29.0186 C   0  0  0  0  0  0  0  0  0  0  0  0
  -11.8102  -23.3024   30.2991 N   0  0  0  0  0  0  0  0  0  0  0  0
  -12.7543  -22.4168   30.8425 C   0  0  0  0  0  0  0  0  0  0  0  0
  -13.7520  -21.9731   30.3815 O   0  0  0  0  0  0  0  0  0  0  0  0
  -12.6204  -21.9934   32.2575 C   0  0  0  0  0  0  0  0  0  0  0  0
  -11.6352  -21.1292   32.6193 C   0  0  0  0  0  0  0  0  0  0  0  0
  -11.9305  -20.1847   33.6384 C   0  0  0  0  0  0  0  0  0  0  0  0
  -13.1363  -20.0797   34.3579 C   0  0  0  0  0  0  0  0  0  0  0  0
  -13.3975  -19.0636   35.2783 N   0  0  0  0  0  0  0  0  0  0  0  0
  -12.4801  -17.9100   35.3757 C   0  0  0  0  0  0  0  0  0  0  0  0
  -12.4924  -17.3764   36.8038 C   0  0  0  0  0  0  0  0  0  0  0  0
  -13.8979  -16.9543   37.2013 C   0  0  0  0  0  0  0  0  0  0  0  0
  -14.8914  -18.0862   36.9728 C   0  0  0  0  0  0  0  0  0  0  0  0
  -14.7901  -18.6655   35.5604 C   0  0  0  0  0  0  0  0  0  0  0  0
  -14.0630  -21.0547   34.0288 C   0  0  0  0  0  0  0  0  0  0  0  0
  -13.8146  -21.9755   33.0133 C   0  0  0  0  0  0  0  0  0  0  0  0
  -10.8111  -25.1785   29.1314 C   0  0  0  0  0  0  0  0  0  0  0  0
  -11.0638  -26.4593   29.6041 C   0  0  0  0  0  0  0  0  0  0  0  0
  -10.5708  -26.2437   30.8825 N   0  0  0  0  0  0  0  0  0  0  0  0
  -11.1547  -26.5250   32.0909 C   0  0  0  0  0  0  0  0  0  0  0  0
  -10.8404  -25.7571   33.1450 C   0  0  0  0  0  0  0  0  0  0  0  0
   -9.6743  -24.8938   32.9528 C   0  0  0  0  0  0  0  0  0  0  0  0
   -9.0342  -24.6961   31.8559 N   0  0  0  0  0  0  0  0  0  0  0  0
   -9.5840  -25.2841   30.7699 C   0  0  0  0  0  0  0  0  0  0  0  0
   -9.5562  -24.8581   29.5336 N   0  0  0  0  0  0  0  0  0  0  0  0
  -13.0599  -24.1972   26.5987 H   0  0  0  0  0  0  0  0  0  0  0  0
  -11.4125  -24.7920   26.3628 H   0  0  0  0  0  0  0  0  0  0  0  0
  -11.9101  -23.2509   25.6601 H   0  0  0  0  0  0  0  0  0  0  0  0
  -12.1305  -22.2381   27.9090 H   0  0  0  0  0  0  0  0  0  0  0  0
  -10.5207  -22.9121   27.7688 H   0  0  0  0  0  0  0  0  0  0  0  0
  -12.8070  -24.4618   28.9240 H   0  0  0  0  0  0  0  0  0  0  0  0
  -11.1262  -23.5278   31.0087 H   0  0  0  0  0  0  0  0  0  0  0  0
  -10.7341  -21.0194   32.0252 H   0  0  0  0  0  0  0  0  0  0  0  0
  -11.1833  -19.4080   33.7550 H   0  0  0  0  0  0  0  0  0  0  0  0
  -12.7994  -17.1261   34.6782 H   0  0  0  0  0  0  0  0  0  0  0  0
  -11.4449  -18.1365   35.1520 H   0  0  0  0  0  0  0  0  0  0  0  0
  -11.8125  -16.5213   36.8885 H   0  0  0  0  0  0  0  0  0  0  0  0
  -12.1324  -18.1483   37.4949 H   0  0  0  0  0  0  0  0  0  0  0  0
  -13.9148  -16.6487   38.2533 H   0  0  0  0  0  0  0  0  0  0  0  0
  -14.1990  -16.0810   36.6096 H   0  0  0  0  0  0  0  0  0  0  0  0
  -14.7095  -18.8712   37.7134 H   0  0  0  0  0  0  0  0  0  0  0  0
  -15.9098  -17.7203   37.1470 H   0  0  0  0  0  0  0  0  0  0  0  0
  -15.5143  -19.4793   35.4981 H   0  0  0  0  0  0  0  0  0  0  0  0
  -15.1097  -17.9119   34.8310 H   0  0  0  0  0  0  0  0  0  0  0  0
  -15.0388  -21.1165   34.4947 H   0  0  0  0  0  0  0  0  0  0  0  0
  -14.6702  -22.5768   32.7246 H   0  0  0  0  0  0  0  0  0  0  0  0
  -11.8869  -27.1385   29.4649 H   0  0  0  0  0  0  0  0  0  0  0  0
  -11.9228  -27.2745   32.0775 H   0  0  0  0  0  0  0  0  0  0  0  0
  -11.2477  -25.7720   34.1417 H   0  0  0  0  0  0  0  0  0  0  0  0
   -9.3162  -24.4276   33.8672 H   0  0  0  0  0  0  0  0  0  0  0  0
  1  2  1  0
  2  3  1  0
  3  4  1  0
  4  5  1  0
  5  6  2  0
  5  7  1  0
  7  8  2  0
  8  9  1  0
  9 10  2  0
 10 11  1  0
 11 12  1  0
 12 13  1  0
 13 14  1  0
 14 15  1  0
 15 16  1  0
 10 17  1  0
 17 18  2  0
  3 19  1  0
 19 20  2  0
 20 21  1  0
 21 22  1  0
 22 23  2  0
 23 24  1  0
 24 25  2  0
 25 26  1  0
 26 27  2  0
 18  7  1  0
 27 19  1  0
 16 11  1  0
 26 21  1  0
  1 28  1  0
  1 29  1  0
  1 30  1  0
  2 31  1  0
  2 32  1  0
  3 33  1  0
  4 34  1  0
  8 35  1  0
  9 36  1  0
 12 37  1  0
 12 38  1  0
 13 39  1  0
 13 40  1  0
 14 41  1  0
 14 42  1  0
 15 43  1  0
 15 44  1  0
 16 45  1  0
 16 46  1  0
 17 47  1  0
 18 48  1  0
 20 49  1  0
 22 50  1  0
 23 51  1  0
 24 52  1  0
M  END
>  <Energy>  (656) 
114.16217808971385

>  <compound_id>  (656) 
23736

>  <target_id>  (656) 
1

>  <reference_id>  (656) 
46

>  <inspiration_ids>  (656) 
[107, 46]

>  <energy_score>  (656) 
33.90860785923607

>  <distance_score>  (656) 
4.118545257854495

>  <path>  (656) 
/opt/xchem-fragalysis-2/maxwin/BulkDock/SCRATCH/511013/C23736-P46/C23736-P46.minimised.mol

>  <scratch_subdir>  (656) 
/opt/xchem-fragalysis-2/maxwin/BulkDock/SCRATCH/511013/C23736-P46

>  <fragmenstein_runtime>  (656) 
14.646991491317749

>  <fragmenstein_outcome>  (656) 
too moved

>  <fragmenstein_mode>  (656) 
expansion

>  <fragmenstein_error>  (656) 


$$$$
C23746-P107
     RDKit          3D

 42 45  0  0  0  0  0  0  0  0999 V2000
  -17.1648  -22.0463   33.5020 C   0  0  0  0  0  0  0  0  0  0  0  0
  -16.7652  -22.3973   32.2455 C   0  0  0  0  0  0  0  0  0  0  0  0
  -15.4329  -22.0714   32.1603 N   0  0  0  0  0  0  0  0  0  0  0  0
  -14.4515  -22.2907   31.2060 C   0  0  0  0  0  0  0  0  0  0  0  0
  -13.2053  -21.9004   31.3992 C   0  0  0  0  0  0  0  0  0  0  0  0
  -12.9948  -21.5161   32.8023 C   0  0  0  0  0  0  0  0  0  0  0  0
  -11.9009  -22.3039   33.2923 C   0  0  0  0  0  0  0  0  0  0  0  0
  -10.7334  -22.4199   32.5601 C   0  0  0  0  0  0  0  0  0  0  0  0
  -10.0978  -23.6374   32.5626 C   0  0  0  0  0  0  0  0  0  0  0  0
  -10.8863  -24.7451   32.7514 C   0  0  0  0  0  0  0  0  0  0  0  0
  -10.6885  -25.8325   31.7163 C   0  0  0  0  0  0  0  0  0  0  0  0
  -10.7991  -25.2204   30.3742 N   0  0  0  0  0  0  0  0  0  0  0  0
  -12.1323  -24.8072   29.9878 C   0  0  0  0  0  0  0  0  0  0  0  0
  -12.0545  -23.8957   28.7595 C   0  0  0  0  0  0  0  0  0  0  0  0
  -11.2516  -24.5321   27.6304 C   0  0  0  0  0  0  0  0  0  0  0  0
  -10.8328  -25.9526   27.9857 C   0  0  0  0  0  0  0  0  0  0  0  0
  -10.1404  -25.9999   29.3496 C   0  0  0  0  0  0  0  0  0  0  0  0
  -12.0170  -24.6206   33.5228 C   0  0  0  0  0  0  0  0  0  0  0  0
  -12.4505  -23.3949   33.9245 C   0  0  0  0  0  0  0  0  0  0  0  0
  -13.8563  -21.0294   33.6339 N   0  0  0  0  0  0  0  0  0  0  0  0
  -15.1337  -21.4000   33.3397 C   0  0  0  0  0  0  0  0  0  0  0  0
  -16.1659  -21.3967   34.1515 N   0  0  0  0  0  0  0  0  0  0  0  0
  -18.1297  -22.2077   33.9630 H   0  0  0  0  0  0  0  0  0  0  0  0
  -17.3056  -22.9261   31.4823 H   0  0  0  0  0  0  0  0  0  0  0  0
  -14.6295  -22.8517   30.3217 H   0  0  0  0  0  0  0  0  0  0  0  0
  -12.3975  -22.0466   30.7066 H   0  0  0  0  0  0  0  0  0  0  0  0
  -10.3580  -21.5714   32.0000 H   0  0  0  0  0  0  0  0  0  0  0  0
   -9.1522  -23.8512   32.0979 H   0  0  0  0  0  0  0  0  0  0  0  0
  -11.3762  -26.6721   31.8321 H   0  0  0  0  0  0  0  0  0  0  0  0
   -9.6686  -26.2034   31.8355 H   0  0  0  0  0  0  0  0  0  0  0  0
  -12.6606  -24.3101   30.7922 H   0  0  0  0  0  0  0  0  0  0  0  0
  -12.7148  -25.6900   29.7391 H   0  0  0  0  0  0  0  0  0  0  0  0
  -13.0686  -23.6784   28.4120 H   0  0  0  0  0  0  0  0  0  0  0  0
  -11.5887  -22.9361   29.0052 H   0  0  0  0  0  0  0  0  0  0  0  0
  -10.3546  -23.9315   27.4426 H   0  0  0  0  0  0  0  0  0  0  0  0
  -11.8307  -24.5283   26.7002 H   0  0  0  0  0  0  0  0  0  0  0  0
  -10.1610  -26.3483   27.2188 H   0  0  0  0  0  0  0  0  0  0  0  0
  -11.7111  -26.6108   27.9835 H   0  0  0  0  0  0  0  0  0  0  0  0
   -9.1416  -25.5770   29.2210 H   0  0  0  0  0  0  0  0  0  0  0  0
  -10.0312  -27.0502   29.6386 H   0  0  0  0  0  0  0  0  0  0  0  0
  -12.7503  -25.3804   33.6710 H   0  0  0  0  0  0  0  0  0  0  0  0
  -13.4337  -23.3648   34.3916 H   0  0  0  0  0  0  0  0  0  0  0  0
  1  2  2  0
  2  3  1  0
  3  4  1  0
  4  5  2  0
  5  6  1  0
  6  7  1  0
  7  8  2  0
  8  9  1  0
  9 10  2  0
 10 11  1  0
 11 12  1  0
 12 13  1  0
 13 14  1  0
 14 15  1  0
 15 16  1  0
 16 17  1  0
 10 18  1  0
 18 19  2  0
  6 20  2  0
 20 21  1  0
 21 22  2  0
 22  1  1  0
 21  3  1  0
 19  7  1  0
 17 12  1  0
  1 23  1  0
  2 24  1  0
  4 25  1  0
  5 26  1  0
  8 27  1  0
  9 28  1  0
 11 29  1  0
 11 30  1  0
 13 31  1  0
 13 32  1  0
 14 33  1  0
 14 34  1  0
 15 35  1  0
 15 36  1  0
 16 37  1  0
 16 38  1  0
 17 39  1  0
 17 40  1  0
 18 41  1  0
 19 42  1  0
M  END
>  <Energy>  (657) 
156.67715238631732

>  <compound_id>  (657) 
23746

>  <target_id>  (657) 
1

>  <reference_id>  (657) 
107

>  <inspiration_ids>  (657) 
[107, 46]

>  <energy_score>  (657) 
53.32657509487106

>  <distance_score>  (657) 
3.0674923678507775

>  <path>  (657) 
/opt/xchem-fragalysis-2/maxwin/BulkDock/SCRATCH/511013/C23746-P107/C23746-P107.minimised.mol

>  <scratch_subdir>  (657) 
/opt/xchem-fragalysis-2/maxwin/BulkDock/SCRATCH/511013/C23746-P107

>  <fragmenstein_runtime>  (657) 
4.177815198898315

>  <fragmenstein_outcome>  (657) 
too moved

>  <fragmenstein_mode>  (657) 
expansion

>  <fragmenstein_error>  (657) 


$$$$
C23746-P46
     RDKit          3D

 42 45  0  0  0  0  0  0  0  0999 V2000
  -13.3999  -25.4794   27.3110 C   0  0  0  0  0  0  0  0  0  0  0  0
  -12.3991  -24.6757   26.8172 C   0  0  0  0  0  0  0  0  0  0  0  0
  -12.2568  -23.7073   27.7718 N   0  0  0  0  0  0  0  0  0  0  0  0
  -11.2902  -22.7816   27.9943 C   0  0  0  0  0  0  0  0  0  0  0  0
  -11.3125  -21.9683   29.0568 C   0  0  0  0  0  0  0  0  0  0  0  0
  -12.4122  -22.1966   30.0196 C   0  0  0  0  0  0  0  0  0  0  0  0
  -12.2991  -21.6813   31.4424 C   0  0  0  0  0  0  0  0  0  0  0  0
  -11.0300  -21.5126   31.9039 C   0  0  0  0  0  0  0  0  0  0  0  0
  -10.6252  -22.4422   32.8135 C   0  0  0  0  0  0  0  0  0  0  0  0
  -11.5453  -23.2914   33.3937 C   0  0  0  0  0  0  0  0  0  0  0  0
  -11.1506  -24.7451   33.5375 C   0  0  0  0  0  0  0  0  0  0  0  0
  -10.9655  -25.2860   32.1864 N   0  0  0  0  0  0  0  0  0  0  0  0
   -9.6721  -25.0734   31.5955 C   0  0  0  0  0  0  0  0  0  0  0  0
   -9.8615  -25.1488   30.0876 C   0  0  0  0  0  0  0  0  0  0  0  0
  -10.6585  -26.3430   29.6228 C   0  0  0  0  0  0  0  0  0  0  0  0
  -10.8322  -27.3307   30.7500 C   0  0  0  0  0  0  0  0  0  0  0  0
  -11.2723  -26.6879   32.0556 C   0  0  0  0  0  0  0  0  0  0  0  0
  -12.8598  -22.8754   33.4239 C   0  0  0  0  0  0  0  0  0  0  0  0
  -13.2553  -22.0247   32.3971 C   0  0  0  0  0  0  0  0  0  0  0  0
  -13.4042  -22.9629   29.6968 N   0  0  0  0  0  0  0  0  0  0  0  0
  -13.2535  -23.8416   28.6669 C   0  0  0  0  0  0  0  0  0  0  0  0
  -13.8252  -25.0119   28.5147 N   0  0  0  0  0  0  0  0  0  0  0  0
  -13.8202  -26.3758   26.8741 H   0  0  0  0  0  0  0  0  0  0  0  0
  -11.7902  -24.7181   25.9284 H   0  0  0  0  0  0  0  0  0  0  0  0
  -10.5060  -22.8846   27.3044 H   0  0  0  0  0  0  0  0  0  0  0  0
  -10.5429  -21.2576   29.2560 H   0  0  0  0  0  0  0  0  0  0  0  0
  -10.2954  -20.9581   31.3664 H   0  0  0  0  0  0  0  0  0  0  0  0
   -9.5724  -22.6178   32.9885 H   0  0  0  0  0  0  0  0  0  0  0  0
  -11.9598  -25.2187   34.0880 H   0  0  0  0  0  0  0  0  0  0  0  0
  -10.2473  -24.8943   34.1372 H   0  0  0  0  0  0  0  0  0  0  0  0
   -8.9542  -25.8035   31.9685 H   0  0  0  0  0  0  0  0  0  0  0  0
   -9.2022  -24.1422   31.8533 H   0  0  0  0  0  0  0  0  0  0  0  0
  -10.3845  -24.2688   29.7518 H   0  0  0  0  0  0  0  0  0  0  0  0
   -8.8894  -25.1557   29.6033 H   0  0  0  0  0  0  0  0  0  0  0  0
  -11.6403  -26.0253   29.2970 H   0  0  0  0  0  0  0  0  0  0  0  0
  -10.1851  -26.8074   28.7534 H   0  0  0  0  0  0  0  0  0  0  0  0
   -9.8796  -27.8317   30.9334 H   0  0  0  0  0  0  0  0  0  0  0  0
  -11.5628  -28.0929   30.4650 H   0  0  0  0  0  0  0  0  0  0  0  0
  -10.8924  -27.2846   32.8759 H   0  0  0  0  0  0  0  0  0  0  0  0
  -12.3247  -26.8347   32.1104 H   0  0  0  0  0  0  0  0  0  0  0  0
  -13.6162  -23.4475   33.9517 H   0  0  0  0  0  0  0  0  0  0  0  0
  -14.3154  -21.9956   32.1533 H   0  0  0  0  0  0  0  0  0  0  0  0
  1  2  2  0
  2  3  1  0
  3  4  1  0
  4  5  2  0
  5  6  1  0
  6  7  1  0
  7  8  2  0
  8  9  1  0
  9 10  2  0
 10 11  1  0
 11 12  1  0
 12 13  1  0
 13 14  1  0
 14 15  1  0
 15 16  1  0
 16 17  1  0
 10 18  1  0
 18 19  2  0
  6 20  2  0
 20 21  1  0
 21 22  2  0
 22  1  1  0
 21  3  1  0
 19  7  1  0
 17 12  1  0
  1 23  1  0
  2 24  1  0
  4 25  1  0
  5 26  1  0
  8 27  1  0
  9 28  1  0
 11 29  1  0
 11 30  1  0
 13 31  1  0
 13 32  1  0
 14 33  1  0
 14 34  1  0
 15 35  1  0
 15 36  1  0
 16 37  1  0
 16 38  1  0
 17 39  1  0
 17 40  1  0
 18 41  1  0
 19 42  1  0
M  END
>  <Energy>  (658) 
155.94886440292709

>  <compound_id>  (658) 
23746

>  <target_id>  (658) 
1

>  <reference_id>  (658) 
46

>  <inspiration_ids>  (658) 
[107, 46]

>  <energy_score>  (658) 
52.598287111478214

>  <distance_score>  (658) 
2.833021091322689

>  <path>  (658) 
/opt/xchem-fragalysis-2/maxwin/BulkDock/SCRATCH/511013/C23746-P46/C23746-P46.minimised.mol

>  <scratch_subdir>  (658) 
/opt/xchem-fragalysis-2/maxwin/BulkDock/SCRATCH/511013/C23746-P46

>  <fragmenstein_runtime>  (658) 
3.6213386058807373

>  <fragmenstein_outcome>  (658) 
too moved

>  <fragmenstein_mode>  (658) 
expansion

>  <fragmenstein_error>  (658) 


$$$$
C23736-P107
     RDKit          3D

 52 55  0  0  0  0  0  0  0  0999 V2000
  -13.8734  -24.0949   33.4431 C   0  0  0  0  0  0  0  0  0  0  0  0
  -12.6768  -25.0846   33.2090 C   0  0  0  0  0  0  0  0  0  0  0  0
  -12.1340  -25.6625   31.8302 C   0  0  0  0  0  0  0  0  0  0  0  0
  -12.2274  -24.7696   30.7420 N   0  0  0  0  0  0  0  0  0  0  0  0
  -12.6373  -24.9822   29.3687 C   0  0  0  0  0  0  0  0  0  0  0  0
  -12.9263  -25.9862   28.7822 O   0  0  0  0  0  0  0  0  0  0  0  0
  -12.7959  -23.7061   28.6696 C   0  0  0  0  0  0  0  0  0  0  0  0
  -11.7722  -22.8363   28.4440 C   0  0  0  0  0  0  0  0  0  0  0  0
  -11.5723  -21.8434   29.3794 C   0  0  0  0  0  0  0  0  0  0  0  0
  -12.3589  -21.7456   30.5440 C   0  0  0  0  0  0  0  0  0  0  0  0
  -11.9054  -21.1154   31.6780 N   0  0  0  0  0  0  0  0  0  0  0  0
  -12.6213  -20.8173   32.9168 C   0  0  0  0  0  0  0  0  0  0  0  0
  -12.2868  -21.6632   34.0286 C   0  0  0  0  0  0  0  0  0  0  0  0
  -11.4751  -22.7837   33.5157 C   0  0  0  0  0  0  0  0  0  0  0  0
  -10.3292  -22.6137   32.5738 C   0  0  0  0  0  0  0  0  0  0  0  0
  -10.5144  -21.2627   31.9228 C   0  0  0  0  0  0  0  0  0  0  0  0
  -13.6007  -22.3224   30.4871 C   0  0  0  0  0  0  0  0  0  0  0  0
  -13.8064  -23.2582   29.4869 C   0  0  0  0  0  0  0  0  0  0  0  0
  -10.7222  -26.2395   31.6849 C   0  0  0  0  0  0  0  0  0  0  0  0
  -10.5922  -27.4235   30.9542 C   0  0  0  0  0  0  0  0  0  0  0  0
  -10.2938  -26.8658   29.7217 N   0  0  0  0  0  0  0  0  0  0  0  0
  -10.7561  -27.1943   28.4577 C   0  0  0  0  0  0  0  0  0  0  0  0
  -10.5347  -26.3930   27.4142 C   0  0  0  0  0  0  0  0  0  0  0  0
   -9.8189  -25.1636   27.7792 C   0  0  0  0  0  0  0  0  0  0  0  0
   -9.3502  -24.8325   28.9359 N   0  0  0  0  0  0  0  0  0  0  0  0
   -9.6581  -25.6614   29.9671 C   0  0  0  0  0  0  0  0  0  0  0  0
   -9.6911  -25.4147   31.2624 N   0  0  0  0  0  0  0  0  0  0  0  0
  -14.8916  -24.4560   33.5527 H   0  0  0  0  0  0  0  0  0  0  0  0
  -13.9652  -23.2965   32.7303 H   0  0  0  0  0  0  0  0  0  0  0  0
  -13.7701  -23.7108   34.4547 H   0  0  0  0  0  0  0  0  0  0  0  0
  -13.0885  -25.7050   33.9755 H   0  0  0  0  0  0  0  0  0  0  0  0
  -11.7529  -24.9781   33.7701 H   0  0  0  0  0  0  0  0  0  0  0  0
  -12.7141  -26.4690   31.4735 H   0  0  0  0  0  0  0  0  0  0  0  0
  -11.9853  -23.8123   30.8661 H   0  0  0  0  0  0  0  0  0  0  0  0
  -11.1199  -22.9269   27.5923 H   0  0  0  0  0  0  0  0  0  0  0  0
  -10.7237  -21.1993   29.2171 H   0  0  0  0  0  0  0  0  0  0  0  0
  -13.7151  -20.8192   32.7986 H   0  0  0  0  0  0  0  0  0  0  0  0
  -12.2558  -19.8638   33.3309 H   0  0  0  0  0  0  0  0  0  0  0  0
  -11.8725  -21.0895   34.8537 H   0  0  0  0  0  0  0  0  0  0  0  0
  -13.2753  -21.9587   34.3394 H   0  0  0  0  0  0  0  0  0  0  0  0
  -12.1118  -23.1929   32.7745 H   0  0  0  0  0  0  0  0  0  0  0  0
  -11.3588  -23.4582   34.3354 H   0  0  0  0  0  0  0  0  0  0  0  0
   -9.3582  -22.8293   33.0234 H   0  0  0  0  0  0  0  0  0  0  0  0
  -10.3834  -23.3716   31.8074 H   0  0  0  0  0  0  0  0  0  0  0  0
  -10.1626  -20.3931   32.4784 H   0  0  0  0  0  0  0  0  0  0  0  0
  -10.0149  -21.1979   30.9974 H   0  0  0  0  0  0  0  0  0  0  0  0
  -14.3841  -22.1591   31.2142 H   0  0  0  0  0  0  0  0  0  0  0  0
  -14.6442  -23.9130   29.5224 H   0  0  0  0  0  0  0  0  0  0  0  0
  -11.1765  -28.3271   30.9857 H   0  0  0  0  0  0  0  0  0  0  0  0
  -11.4327  -28.0299   28.3797 H   0  0  0  0  0  0  0  0  0  0  0  0
  -10.9458  -26.5321   26.4283 H   0  0  0  0  0  0  0  0  0  0  0  0
   -9.6972  -24.4449   26.9577 H   0  0  0  0  0  0  0  0  0  0  0  0
  1  2  1  0
  2  3  1  0
  3  4  1  0
  4  5  1  0
  5  6  2  0
  5  7  1  0
  7  8  2  0
  8  9  1  0
  9 10  2  0
 10 11  1  0
 11 12  1  0
 12 13  1  0
 13 14  1  0
 14 15  1  0
 15 16  1  0
 10 17  1  0
 17 18  2  0
  3 19  1  0
 19 20  2  0
 20 21  1  0
 21 22  1  0
 22 23  2  0
 23 24  1  0
 24 25  2  0
 25 26  1  0
 26 27  2  0
 18  7  1  0
 27 19  1  0
 16 11  1  0
 26 21  1  0
  1 28  1  0
  1 29  1  0
  1 30  1  0
  2 31  1  0
  2 32  1  0
  3 33  1  0
  4 34  1  0
  8 35  1  0
  9 36  1  0
 12 37  1  0
 12 38  1  0
 13 39  1  0
 13 40  1  0
 14 41  1  0
 14 42  1  0
 15 43  1  0
 15 44  1  0
 16 45  1  0
 16 46  1  0
 17 47  1  0
 18 48  1  0
 20 49  1  0
 22 50  1  0
 23 51  1  0
 24 52  1  0
M  END
>  <Energy>  (659) 
315.25906071844895

>  <compound_id>  (659) 
23736

>  <target_id>  (659) 
1

>  <reference_id>  (659) 
107

>  <inspiration_ids>  (659) 
[107, 46]

>  <energy_score>  (659) 
235.00549048797276

>  <distance_score>  (659) 
2.6955793989774373

>  <path>  (659) 
/opt/xchem-fragalysis-2/maxwin/BulkDock/SCRATCH/511013/C23736-P107/C23736-P107.minimised.mol

>  <scratch_subdir>  (659) 
/opt/xchem-fragalysis-2/maxwin/BulkDock/SCRATCH/511013/C23736-P107

>  <fragmenstein_runtime>  (659) 
14.824319124221802

>  <fragmenstein_outcome>  (659) 
too moved

>  <fragmenstein_mode>  (659) 
expansion

>  <fragmenstein_error>  (659) 


$$$$
C23736-P46
     RDKit          3D

 52 55  0  0  0  0  0  0  0  0999 V2000
  -12.0098  -23.8933   26.5362 C   0  0  0  0  0  0  0  0  0  0  0  0
  -11.5743  -23.1720   27.8091 C   0  0  0  0  0  0  0  0  0  0  0  0
  -11.8003  -24.0468   29.0186 C   0  0  0  0  0  0  0  0  0  0  0  0
  -11.8102  -23.3024   30.2991 N   0  0  0  0  0  0  0  0  0  0  0  0
  -12.7543  -22.4168   30.8425 C   0  0  0  0  0  0  0  0  0  0  0  0
  -13.7520  -21.9731   30.3815 O   0  0  0  0  0  0  0  0  0  0  0  0
  -12.6204  -21.9934   32.2575 C   0  0  0  0  0  0  0  0  0  0  0  0
  -11.6352  -21.1292   32.6193 C   0  0  0  0  0  0  0  0  0  0  0  0
  -11.9305  -20.1847   33.6384 C   0  0  0  0  0  0  0  0  0  0  0  0
  -13.1363  -20.0797   34.3579 C   0  0  0  0  0  0  0  0  0  0  0  0
  -13.3975  -19.0636   35.2783 N   0  0  0  0  0  0  0  0  0  0  0  0
  -12.4801  -17.9100   35.3757 C   0  0  0  0  0  0  0  0  0  0  0  0
  -12.4924  -17.3764   36.8038 C   0  0  0  0  0  0  0  0  0  0  0  0
  -13.8979  -16.9543   37.2013 C   0  0  0  0  0  0  0  0  0  0  0  0
  -14.8914  -18.0862   36.9728 C   0  0  0  0  0  0  0  0  0  0  0  0
  -14.7901  -18.6655   35.5604 C   0  0  0  0  0  0  0  0  0  0  0  0
  -14.0630  -21.0547   34.0288 C   0  0  0  0  0  0  0  0  0  0  0  0
  -13.8146  -21.9755   33.0133 C   0  0  0  0  0  0  0  0  0  0  0  0
  -10.8111  -25.1785   29.1314 C   0  0  0  0  0  0  0  0  0  0  0  0
  -11.0638  -26.4593   29.6041 C   0  0  0  0  0  0  0  0  0  0  0  0
  -10.5708  -26.2437   30.8825 N   0  0  0  0  0  0  0  0  0  0  0  0
  -11.1547  -26.5250   32.0909 C   0  0  0  0  0  0  0  0  0  0  0  0
  -10.8404  -25.7571   33.1450 C   0  0  0  0  0  0  0  0  0  0  0  0
   -9.6743  -24.8938   32.9528 C   0  0  0  0  0  0  0  0  0  0  0  0
   -9.0342  -24.6961   31.8559 N   0  0  0  0  0  0  0  0  0  0  0  0
   -9.5840  -25.2841   30.7699 C   0  0  0  0  0  0  0  0  0  0  0  0
   -9.5562  -24.8581   29.5336 N   0  0  0  0  0  0  0  0  0  0  0  0
  -13.0599  -24.1972   26.5987 H   0  0  0  0  0  0  0  0  0  0  0  0
  -11.4125  -24.7920   26.3628 H   0  0  0  0  0  0  0  0  0  0  0  0
  -11.9101  -23.2509   25.6601 H   0  0  0  0  0  0  0  0  0  0  0  0
  -12.1305  -22.2381   27.9090 H   0  0  0  0  0  0  0  0  0  0  0  0
  -10.5207  -22.9121   27.7688 H   0  0  0  0  0  0  0  0  0  0  0  0
  -12.8070  -24.4618   28.9240 H   0  0  0  0  0  0  0  0  0  0  0  0
  -11.1262  -23.5278   31.0087 H   0  0  0  0  0  0  0  0  0  0  0  0
  -10.7341  -21.0194   32.0252 H   0  0  0  0  0  0  0  0  0  0  0  0
  -11.1833  -19.4080   33.7550 H   0  0  0  0  0  0  0  0  0  0  0  0
  -12.7994  -17.1261   34.6782 H   0  0  0  0  0  0  0  0  0  0  0  0
  -11.4449  -18.1365   35.1520 H   0  0  0  0  0  0  0  0  0  0  0  0
  -11.8125  -16.5213   36.8885 H   0  0  0  0  0  0  0  0  0  0  0  0
  -12.1324  -18.1483   37.4949 H   0  0  0  0  0  0  0  0  0  0  0  0
  -13.9148  -16.6487   38.2533 H   0  0  0  0  0  0  0  0  0  0  0  0
  -14.1990  -16.0810   36.6096 H   0  0  0  0  0  0  0  0  0  0  0  0
  -14.7095  -18.8712   37.7134 H   0  0  0  0  0  0  0  0  0  0  0  0
  -15.9098  -17.7203   37.1470 H   0  0  0  0  0  0  0  0  0  0  0  0
  -15.5143  -19.4793   35.4981 H   0  0  0  0  0  0  0  0  0  0  0  0
  -15.1097  -17.9119   34.8310 H   0  0  0  0  0  0  0  0  0  0  0  0
  -15.0388  -21.1165   34.4947 H   0  0  0  0  0  0  0  0  0  0  0  0
  -14.6702  -22.5768   32.7246 H   0  0  0  0  0  0  0  0  0  0  0  0
  -11.8869  -27.1385   29.4649 H   0  0  0  0  0  0  0  0  0  0  0  0
  -11.9228  -27.2745   32.0775 H   0  0  0  0  0  0  0  0  0  0  0  0
  -11.2477  -25.7720   34.1417 H   0  0  0  0  0  0  0  0  0  0  0  0
   -9.3162  -24.4276   33.8672 H   0  0  0  0  0  0  0  0  0  0  0  0
  1  2  1  0
  2  3  1  0
  3  4  1  0
  4  5  1  0
  5  6  2  0
  5  7  1  0
  7  8  2  0
  8  9  1  0
  9 10  2  0
 10 11  1  0
 11 12  1  0
 12 13  1  0
 13 14  1  0
 14 15  1  0
 15 16  1  0
 10 17  1  0
 17 18  2  0
  3 19  1  0
 19 20  2  0
 20 21  1  0
 21 22  1  0
 22 23  2  0
 23 24  1  0
 24 25  2  0
 25 26  1  0
 26 27  2  0
 18  7  1  0
 27 19  1  0
 16 11  1  0
 26 21  1  0
  1 28  1  0
  1 29  1  0
  1 30  1  0
  2 31  1  0
  2 32  1  0
  3 33  1  0
  4 34  1  0
  8 35  1  0
  9 36  1  0
 12 37  1  0
 12 38  1  0
 13 39  1  0
 13 40  1  0
 14 41  1  0
 14 42  1  0
 15 43  1  0
 15 44  1  0
 16 45  1  0
 16 46  1  0
 17 47  1  0
 18 48  1  0
 20 49  1  0
 22 50  1  0
 23 51  1  0
 24 52  1  0
M  END
>  <Energy>  (660) 
114.16217808971385

>  <compound_id>  (660) 
23736

>  <target_id>  (660) 
1

>  <reference_id>  (660) 
46

>  <inspiration_ids>  (660) 
[107, 46]

>  <energy_score>  (660) 
33.90860785923607

>  <distance_score>  (660) 
4.118545257854495

>  <path>  (660) 
/opt/xchem-fragalysis-2/maxwin/BulkDock/SCRATCH/511013/C23736-P46/C23736-P46.minimised.mol

>  <scratch_subdir>  (660) 
/opt/xchem-fragalysis-2/maxwin/BulkDock/SCRATCH/511013/C23736-P46

>  <fragmenstein_runtime>  (660) 
14.715043544769287

>  <fragmenstein_outcome>  (660) 
too moved

>  <fragmenstein_mode>  (660) 
expansion

>  <fragmenstein_error>  (660) 


$$$$
C23751-P107
     RDKit          3D

 48 52  0  0  0  0  0  0  0  0999 V2000
  -10.0504  -23.8066   28.3049 O   0  0  0  0  0  0  0  0  0  0  0  0
  -11.0446  -23.2063   28.5761 C   0  0  0  0  0  0  0  0  0  0  0  0
  -12.2641  -23.6290   28.9936 N   0  0  0  0  0  0  0  0  0  0  0  0
  -12.7024  -24.8126   29.3347 C   0  0  0  0  0  0  0  0  0  0  0  0
  -11.8255  -25.9092   29.8680 C   0  0  0  0  0  0  0  0  0  0  0  0
  -10.6634  -26.7732   29.4906 C   0  0  0  0  0  0  0  0  0  0  0  0
  -10.2031  -27.1756   30.9106 C   0  0  0  0  0  0  0  0  0  0  0  0
  -10.4783  -26.0195   31.7546 O   0  0  0  0  0  0  0  0  0  0  0  0
  -11.0598  -25.0188   30.8855 C   0  0  0  0  0  0  0  0  0  0  0  0
  -12.5007  -24.1271   31.2200 C   0  0  0  0  0  0  0  0  0  0  0  0
  -12.7894  -22.3215   32.3598 N   0  0  0  0  0  0  0  0  0  0  0  0
  -12.4806  -21.9410   33.8463 C   0  0  0  0  0  0  0  0  0  0  0  0
  -12.3603  -20.4452   34.1691 C   0  0  0  0  0  0  0  0  0  0  0  0
  -13.6747  -19.7400   34.3371 C   0  0  0  0  0  0  0  0  0  0  0  0
  -14.7769  -20.5496   33.7125 C   0  0  0  0  0  0  0  0  0  0  0  0
  -14.4020  -21.4770   32.5214 C   0  0  0  0  0  0  0  0  0  0  0  0
  -11.2836  -21.7510   28.6812 C   0  0  0  0  0  0  0  0  0  0  0  0
  -10.6973  -21.4259   29.9772 C   0  0  0  0  0  0  0  0  0  0  0  0
  -11.2884  -22.2635   31.0092 N   0  0  0  0  0  0  0  0  0  0  0  0
  -10.8758  -23.2357   32.4041 C   0  0  0  0  0  0  0  0  0  0  0  0
  -12.0106  -24.0720   33.1724 C   0  0  0  0  0  0  0  0  0  0  0  0
  -13.8834  -23.8278   32.5280 C   0  0  0  0  0  0  0  0  0  0  0  0
  -14.1372  -23.0503   31.0824 N   0  0  0  0  0  0  0  0  0  0  0  0
  -12.8511  -22.0464   30.4496 C   0  0  0  0  0  0  0  0  0  0  0  0
  -12.6185  -21.4068   29.2276 N   0  0  0  0  0  0  0  0  0  0  0  0
  -12.8736  -22.8565   29.0318 H   0  0  0  0  0  0  0  0  0  0  0  0
  -13.6975  -25.0092   28.9723 H   0  0  0  0  0  0  0  0  0  0  0  0
  -12.4783  -26.6342   30.3575 H   0  0  0  0  0  0  0  0  0  0  0  0
   -9.8759  -26.2311   28.9591 H   0  0  0  0  0  0  0  0  0  0  0  0
  -10.9784  -27.6129   28.8763 H   0  0  0  0  0  0  0  0  0  0  0  0
  -10.7942  -28.0109   31.2996 H   0  0  0  0  0  0  0  0  0  0  0  0
   -9.1480  -27.4303   30.9392 H   0  0  0  0  0  0  0  0  0  0  0  0
  -10.2243  -24.4844   30.4515 H   0  0  0  0  0  0  0  0  0  0  0  0
  -12.9454  -25.0663   31.6740 H   0  0  0  0  0  0  0  0  0  0  0  0
  -13.3147  -22.4040   34.3683 H   0  0  0  0  0  0  0  0  0  0  0  0
  -11.6023  -22.3553   34.3069 H   0  0  0  0  0  0  0  0  0  0  0  0
  -11.7138  -19.9610   33.4351 H   0  0  0  0  0  0  0  0  0  0  0  0
  -11.8671  -20.3177   35.1327 H   0  0  0  0  0  0  0  0  0  0  0  0
  -13.8950  -19.5638   35.3929 H   0  0  0  0  0  0  0  0  0  0  0  0
  -13.6153  -18.7116   33.9793 H   0  0  0  0  0  0  0  0  0  0  0  0
  -15.2291  -21.1802   34.4890 H   0  0  0  0  0  0  0  0  0  0  0  0
  -15.5867  -19.8789   33.3986 H   0  0  0  0  0  0  0  0  0  0  0  0
  -14.6263  -20.9385   31.6025 H   0  0  0  0  0  0  0  0  0  0  0  0
  -15.2310  -22.1977   32.6218 H   0  0  0  0  0  0  0  0  0  0  0  0
  -10.5276  -20.5087   30.4534 H   0  0  0  0  0  0  0  0  0  0  0  0
   -9.8246  -23.2830   32.6404 H   0  0  0  0  0  0  0  0  0  0  0  0
  -11.8996  -24.7524   34.0028 H   0  0  0  0  0  0  0  0  0  0  0  0
  -14.6859  -24.1593   33.2106 H   0  0  0  0  0  0  0  0  0  0  0  0
  1  2  2  0
  2  3  1  0
  3  4  1  0
  4  5  1  0
  5  6  1  0
  6  7  1  0
  7  8  1  0
  8  9  1  0
  9 10  1  0
 10 11  1  0
 11 12  1  0
 12 13  1  0
 13 14  1  0
 14 15  1  0
 15 16  1  0
  2 17  1  0
 17 18  2  0
 18 19  1  0
 19 20  1  0
 20 21  2  0
 21 22  1  0
 22 23  2  0
 23 24  1  0
 24 25  2  0
 10  4  1  0
 16 11  1  0
 25 17  1  0
  9  5  1  0
 24 19  1  0
  3 26  1  0
  4 27  1  0
  5 28  1  0
  6 29  1  0
  6 30  1  0
  7 31  1  0
  7 32  1  0
  9 33  1  0
 10 34  1  0
 12 35  1  0
 12 36  1  0
 13 37  1  0
 13 38  1  0
 14 39  1  0
 14 40  1  0
 15 41  1  0
 15 42  1  0
 16 43  1  0
 16 44  1  0
 18 45  1  0
 20 46  1  0
 21 47  1  0
 22 48  1  0
M  END
>  <Energy>  (661) 
1504.688475076882

>  <compound_id>  (661) 
23751

>  <target_id>  (661) 
1

>  <reference_id>  (661) 
107

>  <inspiration_ids>  (661) 
[107, 46]

>  <energy_score>  (661) 
1367.2529122936544

>  <distance_score>  (661) 
3.107520549770842

>  <path>  (661) 
/opt/xchem-fragalysis-2/maxwin/BulkDock/SCRATCH/511013/C23751-P107/C23751-P107.minimised.mol

>  <scratch_subdir>  (661) 
/opt/xchem-fragalysis-2/maxwin/BulkDock/SCRATCH/511013/C23751-P107

>  <fragmenstein_runtime>  (661) 
9.614062786102295

>  <fragmenstein_outcome>  (661) 
too moved

>  <fragmenstein_mode>  (661) 
expansion

>  <fragmenstein_error>  (661) 


$$$$
C23751-P46
     RDKit          3D

 48 52  0  0  0  0  0  0  0  0999 V2000
  -13.5934  -27.0503   24.1228 O   0  0  0  0  0  0  0  0  0  0  0  0
  -13.0874  -26.1801   24.7260 C   0  0  0  0  0  0  0  0  0  0  0  0
  -13.5356  -25.4261   25.7026 N   0  0  0  0  0  0  0  0  0  0  0  0
  -14.6329  -25.4648   26.3880 C   0  0  0  0  0  0  0  0  0  0  0  0
  -15.0862  -26.8832   26.7978 C   0  0  0  0  0  0  0  0  0  0  0  0
  -16.3104  -27.6172   27.3283 C   0  0  0  0  0  0  0  0  0  0  0  0
  -15.6613  -28.6455   28.2966 C   0  0  0  0  0  0  0  0  0  0  0  0
  -14.4226  -28.0309   28.7417 O   0  0  0  0  0  0  0  0  0  0  0  0
  -14.4378  -26.6929   28.1788 C   0  0  0  0  0  0  0  0  0  0  0  0
  -12.9881  -25.8943   27.5165 C   0  0  0  0  0  0  0  0  0  0  0  0
  -11.4038  -24.7367   28.4279 N   0  0  0  0  0  0  0  0  0  0  0  0
  -11.2391  -23.0261   28.5832 C   0  0  0  0  0  0  0  0  0  0  0  0
  -11.7826  -22.3746   29.8663 C   0  0  0  0  0  0  0  0  0  0  0  0
  -11.3887  -22.9978   31.1933 C   0  0  0  0  0  0  0  0  0  0  0  0
  -10.8851  -24.4303   31.1304 C   0  0  0  0  0  0  0  0  0  0  0  0
  -10.4071  -24.9691   29.7600 C   0  0  0  0  0  0  0  0  0  0  0  0
  -11.6859  -25.6791   24.6945 C   0  0  0  0  0  0  0  0  0  0  0  0
  -10.9995  -26.6034   25.5194 C   0  0  0  0  0  0  0  0  0  0  0  0
  -10.8991  -26.0111   26.8118 N   0  0  0  0  0  0  0  0  0  0  0  0
  -11.1369  -26.8492   28.2318 C   0  0  0  0  0  0  0  0  0  0  0  0
  -12.1264  -26.3507   29.2310 C   0  0  0  0  0  0  0  0  0  0  0  0
  -13.1626  -24.6053   28.8129 C   0  0  0  0  0  0  0  0  0  0  0  0
  -12.8663  -23.8879   27.3825 N   0  0  0  0  0  0  0  0  0  0  0  0
  -11.4471  -24.4395   26.4817 C   0  0  0  0  0  0  0  0  0  0  0  0
  -11.3772  -24.3641   25.1527 N   0  0  0  0  0  0  0  0  0  0  0  0
  -12.8882  -24.7591   25.8971 H   0  0  0  0  0  0  0  0  0  0  0  0
  -15.2375  -24.6042   26.2031 H   0  0  0  0  0  0  0  0  0  0  0  0
  -14.5904  -27.6483   26.2017 H   0  0  0  0  0  0  0  0  0  0  0  0
  -16.9899  -26.9509   27.8718 H   0  0  0  0  0  0  0  0  0  0  0  0
  -16.8859  -28.1147   26.5422 H   0  0  0  0  0  0  0  0  0  0  0  0
  -15.4027  -29.5725   27.7760 H   0  0  0  0  0  0  0  0  0  0  0  0
  -16.3007  -28.8636   29.1560 H   0  0  0  0  0  0  0  0  0  0  0  0
  -15.1327  -26.1039   28.7827 H   0  0  0  0  0  0  0  0  0  0  0  0
  -12.6764  -26.8790   27.0642 H   0  0  0  0  0  0  0  0  0  0  0  0
  -11.5515  -22.4090   27.7249 H   0  0  0  0  0  0  0  0  0  0  0  0
  -10.1588  -22.8789   28.5058 H   0  0  0  0  0  0  0  0  0  0  0  0
  -12.8710  -22.3067   29.8143 H   0  0  0  0  0  0  0  0  0  0  0  0
  -11.4446  -21.3334   29.8727 H   0  0  0  0  0  0  0  0  0  0  0  0
  -12.2285  -22.9319   31.8945 H   0  0  0  0  0  0  0  0  0  0  0  0
  -10.6349  -22.3661   31.6762 H   0  0  0  0  0  0  0  0  0  0  0  0
  -10.0466  -24.5262   31.8338 H   0  0  0  0  0  0  0  0  0  0  0  0
  -11.6514  -25.0841   31.5488 H   0  0  0  0  0  0  0  0  0  0  0  0
  -10.0048  -25.9805   29.9189 H   0  0  0  0  0  0  0  0  0  0  0  0
   -9.4742  -24.4926   29.4626 H   0  0  0  0  0  0  0  0  0  0  0  0
  -10.8214  -27.6557   25.4489 H   0  0  0  0  0  0  0  0  0  0  0  0
  -10.4288  -27.5999   28.4318 H   0  0  0  0  0  0  0  0  0  0  0  0
  -12.0343  -26.7554   30.2376 H   0  0  0  0  0  0  0  0  0  0  0  0
  -14.2086  -24.4753   29.0586 H   0  0  0  0  0  0  0  0  0  0  0  0
  1  2  2  0
  2  3  1  0
  3  4  1  0
  4  5  1  0
  5  6  1  0
  6  7  1  0
  7  8  1  0
  8  9  1  0
  9 10  1  0
 10 11  1  0
 11 12  1  0
 12 13  1  0
 13 14  1  0
 14 15  1  0
 15 16  1  0
  2 17  1  0
 17 18  2  0
 18 19  1  0
 19 20  1  0
 20 21  2  0
 21 22  1  0
 22 23  2  0
 23 24  1  0
 24 25  2  0
 10  4  1  0
 16 11  1  0
 25 17  1  0
  9  5  1  0
 24 19  1  0
  3 26  1  0
  4 27  1  0
  5 28  1  0
  6 29  1  0
  6 30  1  0
  7 31  1  0
  7 32  1  0
  9 33  1  0
 10 34  1  0
 12 35  1  0
 12 36  1  0
 13 37  1  0
 13 38  1  0
 14 39  1  0
 14 40  1  0
 15 41  1  0
 15 42  1  0
 16 43  1  0
 16 44  1  0
 18 45  1  0
 20 46  1  0
 21 47  1  0
 22 48  1  0
M  END
>  <Energy>  (662) 
1545.9189266259623

>  <compound_id>  (662) 
23751

>  <target_id>  (662) 
1

>  <reference_id>  (662) 
46

>  <inspiration_ids>  (662) 
[107, 46]

>  <energy_score>  (662) 
1408.4833638427174

>  <distance_score>  (662) 
4.835225999836692

>  <path>  (662) 
/opt/xchem-fragalysis-2/maxwin/BulkDock/SCRATCH/511013/C23751-P46/C23751-P46.minimised.mol

>  <scratch_subdir>  (662) 
/opt/xchem-fragalysis-2/maxwin/BulkDock/SCRATCH/511013/C23751-P46

>  <fragmenstein_runtime>  (662) 
7.5215935707092285

>  <fragmenstein_outcome>  (662) 
too moved

>  <fragmenstein_mode>  (662) 
expansion

>  <fragmenstein_error>  (662) 


$$$$
C23765-P107
     RDKit          3D

 42 45  0  0  0  0  0  0  0  0999 V2000
  -14.1049  -18.7359   37.3648 O   0  0  0  0  0  0  0  0  0  0  0  0
  -13.6136  -18.0733   36.1756 S   0  0  0  0  0  0  0  0  0  0  0  0
  -12.3610  -17.3463   36.2247 O   0  0  0  0  0  0  0  0  0  0  0  0
  -13.4461  -19.3135   34.8964 C   0  0  0  0  0  0  0  0  0  0  0  0
  -14.5131  -20.0931   34.4242 C   0  0  0  0  0  0  0  0  0  0  0  0
  -14.2935  -21.2120   33.5903 C   0  0  0  0  0  0  0  0  0  0  0  0
  -13.0114  -21.5022   33.1642 C   0  0  0  0  0  0  0  0  0  0  0  0
  -12.7070  -22.4832   32.1631 C   0  0  0  0  0  0  0  0  0  0  0  0
  -12.2090  -23.7450   32.3817 C   0  0  0  0  0  0  0  0  0  0  0  0
  -11.8655  -24.1954   31.1344 N   0  0  0  0  0  0  0  0  0  0  0  0
  -11.2536  -25.3777   30.7447 C   0  0  0  0  0  0  0  0  0  0  0  0
  -10.9697  -25.5690   29.4486 C   0  0  0  0  0  0  0  0  0  0  0  0
  -11.3659  -24.4542   28.5408 C   0  0  0  0  0  0  0  0  0  0  0  0
  -11.9321  -23.3408   28.8844 N   0  0  0  0  0  0  0  0  0  0  0  0
  -12.1810  -23.1925   30.2180 C   0  0  0  0  0  0  0  0  0  0  0  0
  -12.6626  -22.1436   30.8389 N   0  0  0  0  0  0  0  0  0  0  0  0
  -11.9966  -20.6253   33.5161 C   0  0  0  0  0  0  0  0  0  0  0  0
  -12.1804  -19.5792   34.4196 C   0  0  0  0  0  0  0  0  0  0  0  0
  -14.8382  -16.9871   35.6582 N   0  0  0  0  0  0  0  0  0  0  0  0
  -16.2227  -17.3416   36.1012 C   0  0  0  0  0  0  0  0  0  0  0  0
  -16.5964  -16.6327   37.3980 C   0  0  0  0  0  0  0  0  0  0  0  0
  -16.5531  -15.1118   37.2703 C   0  0  0  0  0  0  0  0  0  0  0  0
  -15.6662  -14.6405   36.1235 C   0  0  0  0  0  0  0  0  0  0  0  0
  -14.4698  -15.5561   35.9311 C   0  0  0  0  0  0  0  0  0  0  0  0
  -15.5268  -19.8979   34.7626 H   0  0  0  0  0  0  0  0  0  0  0  0
  -15.1314  -21.8244   33.2607 H   0  0  0  0  0  0  0  0  0  0  0  0
  -12.0495  -24.3209   33.2820 H   0  0  0  0  0  0  0  0  0  0  0  0
  -11.0181  -26.0957   31.5207 H   0  0  0  0  0  0  0  0  0  0  0  0
  -10.4825  -26.4474   29.0516 H   0  0  0  0  0  0  0  0  0  0  0  0
  -11.1388  -24.6228   27.4748 H   0  0  0  0  0  0  0  0  0  0  0  0
  -11.0861  -20.6548   32.9268 H   0  0  0  0  0  0  0  0  0  0  0  0
  -11.3619  -18.9051   34.6467 H   0  0  0  0  0  0  0  0  0  0  0  0
  -16.9225  -17.0835   35.3071 H   0  0  0  0  0  0  0  0  0  0  0  0
  -16.3291  -18.4221   36.2341 H   0  0  0  0  0  0  0  0  0  0  0  0
  -15.9078  -16.9379   38.1953 H   0  0  0  0  0  0  0  0  0  0  0  0
  -17.5966  -16.9438   37.7206 H   0  0  0  0  0  0  0  0  0  0  0  0
  -17.5648  -14.7141   37.1305 H   0  0  0  0  0  0  0  0  0  0  0  0
  -16.1922  -14.6893   38.2162 H   0  0  0  0  0  0  0  0  0  0  0  0
  -15.3256  -13.6182   36.3253 H   0  0  0  0  0  0  0  0  0  0  0  0
  -16.2475  -14.5827   35.2021 H   0  0  0  0  0  0  0  0  0  0  0  0
  -13.8545  -15.1957   35.0998 H   0  0  0  0  0  0  0  0  0  0  0  0
  -13.8829  -15.5066   36.8509 H   0  0  0  0  0  0  0  0  0  0  0  0
  1  2  2  0
  2  3  2  0
  2  4  1  0
  4  5  2  0
  5  6  1  0
  6  7  2  0
  7  8  1  0
  8  9  2  0
  9 10  1  0
 10 11  1  0
 11 12  2  0
 12 13  1  0
 13 14  2  0
 14 15  1  0
 15 16  2  0
  7 17  1  0
 17 18  2  0
  2 19  1  0
 19 20  1  0
 20 21  1  0
 21 22  1  0
 22 23  1  0
 23 24  1  0
 18  4  1  0
 24 19  1  0
 16  8  1  0
 15 10  1  0
  5 25  1  0
  6 26  1  0
  9 27  1  0
 11 28  1  0
 12 29  1  0
 13 30  1  0
 17 31  1  0
 18 32  1  0
 20 33  1  0
 20 34  1  0
 21 35  1  0
 21 36  1  0
 22 37  1  0
 22 38  1  0
 23 39  1  0
 23 40  1  0
 24 41  1  0
 24 42  1  0
M  END
>  <Energy>  (663) 
27.944897941150728

>  <compound_id>  (663) 
23765

>  <target_id>  (663) 
1

>  <reference_id>  (663) 
107

>  <inspiration_ids>  (663) 
[107, 46]

>  <energy_score>  (663) 
-32.11698473627601

>  <distance_score>  (663) 
1.9092450016679137

>  <path>  (663) 
/opt/xchem-fragalysis-2/maxwin/BulkDock/SCRATCH/511013/C23765-P107/C23765-P107.minimised.mol

>  <scratch_subdir>  (663) 
/opt/xchem-fragalysis-2/maxwin/BulkDock/SCRATCH/511013/C23765-P107

>  <fragmenstein_runtime>  (663) 
4.6364357471466064

>  <fragmenstein_outcome>  (663) 
too moved

>  <fragmenstein_mode>  (663) 
expansion

>  <fragmenstein_error>  (663) 


$$$$
C23765-P46
     RDKit          3D

 42 45  0  0  0  0  0  0  0  0999 V2000
  -13.2403  -18.0995   36.8128 O   0  0  0  0  0  0  0  0  0  0  0  0
  -14.1440  -18.2530   35.6911 S   0  0  0  0  0  0  0  0  0  0  0  0
  -14.3916  -17.1972   34.7338 O   0  0  0  0  0  0  0  0  0  0  0  0
  -13.5426  -19.6348   34.7479 C   0  0  0  0  0  0  0  0  0  0  0  0
  -12.2568  -19.5410   34.2537 C   0  0  0  0  0  0  0  0  0  0  0  0
  -11.8253  -20.4890   33.3305 C   0  0  0  0  0  0  0  0  0  0  0  0
  -12.5597  -21.6260   33.0601 C   0  0  0  0  0  0  0  0  0  0  0  0
  -12.0742  -22.4887   32.0352 C   0  0  0  0  0  0  0  0  0  0  0  0
  -11.4531  -23.7012   32.2032 C   0  0  0  0  0  0  0  0  0  0  0  0
  -11.2857  -24.1609   30.9260 N   0  0  0  0  0  0  0  0  0  0  0  0
  -10.7785  -25.3671   30.4703 C   0  0  0  0  0  0  0  0  0  0  0  0
  -10.7572  -25.6045   29.1519 C   0  0  0  0  0  0  0  0  0  0  0  0
  -11.2914  -24.5045   28.2965 C   0  0  0  0  0  0  0  0  0  0  0  0
  -11.7512  -23.3648   28.7035 N   0  0  0  0  0  0  0  0  0  0  0  0
  -11.7500  -23.1746   30.0509 C   0  0  0  0  0  0  0  0  0  0  0  0
  -12.1828  -22.1338   30.7182 N   0  0  0  0  0  0  0  0  0  0  0  0
  -13.8228  -21.7590   33.6030 C   0  0  0  0  0  0  0  0  0  0  0  0
  -14.3370  -20.7245   34.3875 C   0  0  0  0  0  0  0  0  0  0  0  0
  -15.6655  -18.7225   36.3174 N   0  0  0  0  0  0  0  0  0  0  0  0
  -16.8203  -18.5871   35.3998 C   0  0  0  0  0  0  0  0  0  0  0  0
  -17.9470  -19.4947   35.8930 C   0  0  0  0  0  0  0  0  0  0  0  0
  -18.0748  -19.5074   37.4184 C   0  0  0  0  0  0  0  0  0  0  0  0
  -17.4352  -18.2725   38.0391 C   0  0  0  0  0  0  0  0  0  0  0  0
  -15.9537  -18.1537   37.6697 C   0  0  0  0  0  0  0  0  0  0  0  0
  -11.6538  -18.6603   34.4610 H   0  0  0  0  0  0  0  0  0  0  0  0
  -10.9260  -20.2966   32.7483 H   0  0  0  0  0  0  0  0  0  0  0  0
  -11.2054  -24.2858   33.0765 H   0  0  0  0  0  0  0  0  0  0  0  0
  -10.4323  -26.0750   31.2144 H   0  0  0  0  0  0  0  0  0  0  0  0
  -10.3849  -26.5119   28.6995 H   0  0  0  0  0  0  0  0  0  0  0  0
  -11.2787  -24.7110   27.2134 H   0  0  0  0  0  0  0  0  0  0  0  0
  -14.4473  -22.6107   33.3479 H   0  0  0  0  0  0  0  0  0  0  0  0
  -15.3623  -20.8154   34.7293 H   0  0  0  0  0  0  0  0  0  0  0  0
  -16.5601  -18.8663   34.3748 H   0  0  0  0  0  0  0  0  0  0  0  0
  -17.1549  -17.5432   35.3802 H   0  0  0  0  0  0  0  0  0  0  0  0
  -17.7819  -20.5222   35.5465 H   0  0  0  0  0  0  0  0  0  0  0  0
  -18.8895  -19.1647   35.4400 H   0  0  0  0  0  0  0  0  0  0  0  0
  -19.1303  -19.5776   37.7035 H   0  0  0  0  0  0  0  0  0  0  0  0
  -17.5825  -20.4043   37.8155 H   0  0  0  0  0  0  0  0  0  0  0  0
  -17.5429  -18.2913   39.1294 H   0  0  0  0  0  0  0  0  0  0  0  0
  -17.9704  -17.3792   37.6919 H   0  0  0  0  0  0  0  0  0  0  0  0
  -15.6547  -17.1007   37.7228 H   0  0  0  0  0  0  0  0  0  0  0  0
  -15.3626  -18.7184   38.4002 H   0  0  0  0  0  0  0  0  0  0  0  0
  1  2  2  0
  2  3  2  0
  2  4  1  0
  4  5  2  0
  5  6  1  0
  6  7  2  0
  7  8  1  0
  8  9  2  0
  9 10  1  0
 10 11  1  0
 11 12  2  0
 12 13  1  0
 13 14  2  0
 14 15  1  0
 15 16  2  0
  7 17  1  0
 17 18  2  0
  2 19  1  0
 19 20  1  0
 20 21  1  0
 21 22  1  0
 22 23  1  0
 23 24  1  0
 18  4  1  0
 24 19  1  0
 16  8  1  0
 15 10  1  0
  5 25  1  0
  6 26  1  0
  9 27  1  0
 11 28  1  0
 12 29  1  0
 13 30  1  0
 17 31  1  0
 18 32  1  0
 20 33  1  0
 20 34  1  0
 21 35  1  0
 21 36  1  0
 22 37  1  0
 22 38  1  0
 23 39  1  0
 23 40  1  0
 24 41  1  0
 24 42  1  0
M  END
>  <Energy>  (664) 
23.37099477197204

>  <compound_id>  (664) 
23765

>  <target_id>  (664) 
1

>  <reference_id>  (664) 
46

>  <inspiration_ids>  (664) 
[107, 46]

>  <energy_score>  (664) 
-36.690887905462375

>  <distance_score>  (664) 
1.8390937058438133

>  <path>  (664) 
/opt/xchem-fragalysis-2/maxwin/BulkDock/SCRATCH/511013/C23765-P46/C23765-P46.minimised.mol

>  <scratch_subdir>  (664) 
/opt/xchem-fragalysis-2/maxwin/BulkDock/SCRATCH/511013/C23765-P46

>  <fragmenstein_runtime>  (664) 
6.139098167419434

>  <fragmenstein_outcome>  (664) 
too moved

>  <fragmenstein_mode>  (664) 
expansion

>  <fragmenstein_error>  (664) 


$$$$
C23766-P107
     RDKit          3D

 42 45  0  0  0  0  0  0  0  0999 V2000
  -10.2906  -21.2929   36.4915 O   0  0  0  0  0  0  0  0  0  0  0  0
   -8.1262  -21.4325   36.2961 S   0  0  0  0  0  0  0  0  0  0  0  0
   -7.2275  -20.5145   37.1632 O   0  0  0  0  0  0  0  0  0  0  0  0
   -7.6129  -20.5615   34.1543 C   0  0  0  0  0  0  0  0  0  0  0  0
   -7.5466  -19.1467   34.2040 C   0  0  0  0  0  0  0  0  0  0  0  0
   -8.7030  -18.5956   33.6986 C   0  0  0  0  0  0  0  0  0  0  0  0
   -9.7426  -19.4789   33.0757 C   0  0  0  0  0  0  0  0  0  0  0  0
   -9.4819  -20.7154   32.4375 C   0  0  0  0  0  0  0  0  0  0  0  0
  -10.5873  -21.5389   31.8467 C   0  0  0  0  0  0  0  0  0  0  0  0
  -11.0201  -22.7768   32.2818 C   0  0  0  0  0  0  0  0  0  0  0  0
  -11.5768  -23.3631   31.1741 N   0  0  0  0  0  0  0  0  0  0  0  0
  -11.8003  -24.7050   30.9130 C   0  0  0  0  0  0  0  0  0  0  0  0
  -12.1215  -25.0751   29.6668 C   0  0  0  0  0  0  0  0  0  0  0  0
  -12.3265  -23.9565   28.7077 C   0  0  0  0  0  0  0  0  0  0  0  0
  -12.1439  -22.6944   28.9409 N   0  0  0  0  0  0  0  0  0  0  0  0
  -11.6837  -22.3876   30.1889 C   0  0  0  0  0  0  0  0  0  0  0  0
  -11.0986  -21.2809   30.5951 N   0  0  0  0  0  0  0  0  0  0  0  0
   -8.2011  -21.3220   33.0899 C   0  0  0  0  0  0  0  0  0  0  0  0
   -7.4876  -23.3326   36.3322 N   0  0  0  0  0  0  0  0  0  0  0  0
   -8.3324  -24.3511   35.7384 C   0  0  0  0  0  0  0  0  0  0  0  0
   -7.9409  -25.6398   35.4060 C   0  0  0  0  0  0  0  0  0  0  0  0
   -7.1106  -25.9201   36.5631 C   0  0  0  0  0  0  0  0  0  0  0  0
   -7.0513  -24.6996   38.0047 C   0  0  0  0  0  0  0  0  0  0  0  0
   -6.6845  -23.4755   37.4508 C   0  0  0  0  0  0  0  0  0  0  0  0
   -7.0261  -18.6064   34.9926 H   0  0  0  0  0  0  0  0  0  0  0  0
   -9.0030  -17.5975   34.0483 H   0  0  0  0  0  0  0  0  0  0  0  0
  -10.7873  -19.2851   33.3287 H   0  0  0  0  0  0  0  0  0  0  0  0
  -10.8313  -23.3572   33.1671 H   0  0  0  0  0  0  0  0  0  0  0  0
  -11.6416  -25.4064   31.7218 H   0  0  0  0  0  0  0  0  0  0  0  0
  -12.2621  -26.0953   29.3488 H   0  0  0  0  0  0  0  0  0  0  0  0
  -12.6769  -24.2617   27.7079 H   0  0  0  0  0  0  0  0  0  0  0  0
   -8.1327  -22.4066   33.1997 H   0  0  0  0  0  0  0  0  0  0  0  0
   -8.5381  -24.0259   34.7335 H   0  0  0  0  0  0  0  0  0  0  0  0
   -9.2305  -24.6451   36.2709 H   0  0  0  0  0  0  0  0  0  0  0  0
   -7.4546  -26.0482   34.5202 H   0  0  0  0  0  0  0  0  0  0  0  0
   -8.9278  -25.7815   34.9438 H   0  0  0  0  0  0  0  0  0  0  0  0
   -7.0774  -26.9563   36.8682 H   0  0  0  0  0  0  0  0  0  0  0  0
   -6.1351  -26.0111   36.0441 H   0  0  0  0  0  0  0  0  0  0  0  0
   -6.4417  -24.9727   38.8770 H   0  0  0  0  0  0  0  0  0  0  0  0
   -7.8476  -24.3253   38.6453 H   0  0  0  0  0  0  0  0  0  0  0  0
   -7.1258  -22.8264   38.1701 H   0  0  0  0  0  0  0  0  0  0  0  0
   -5.6210  -23.4113   37.2915 H   0  0  0  0  0  0  0  0  0  0  0  0
  1  2  2  0
  2  3  2  0
  2  4  1  0
  4  5  2  0
  5  6  1  0
  6  7  2  0
  7  8  1  0
  8  9  1  0
  9 10  2  0
 10 11  1  0
 11 12  1  0
 12 13  2  0
 13 14  1  0
 14 15  2  0
 15 16  1  0
 16 17  2  0
  8 18  2  0
  2 19  1  0
 19 20  1  0
 20 21  1  0
 21 22  1  0
 22 23  1  0
 23 24  1  0
 18  4  1  0
 24 19  1  0
 17  9  1  0
 16 11  1  0
  5 25  1  0
  6 26  1  0
  7 27  1  0
 10 28  1  0
 12 29  1  0
 13 30  1  0
 14 31  1  0
 18 32  1  0
 20 33  1  0
 20 34  1  0
 21 35  1  0
 21 36  1  0
 22 37  1  0
 22 38  1  0
 23 39  1  0
 23 40  1  0
 24 41  1  0
 24 42  1  0
M  END
>  <Energy>  (665) 
629.49890809356896

>  <compound_id>  (665) 
23766

>  <target_id>  (665) 
1

>  <reference_id>  (665) 
107

>  <inspiration_ids>  (665) 
[107, 46]

>  <energy_score>  (665) 
585.4970278560213

>  <distance_score>  (665) 
2.482023309300104

>  <path>  (665) 
/opt/xchem-fragalysis-2/maxwin/BulkDock/SCRATCH/511013/C23766-P107/C23766-P107.minimised.mol

>  <scratch_subdir>  (665) 
/opt/xchem-fragalysis-2/maxwin/BulkDock/SCRATCH/511013/C23766-P107

>  <fragmenstein_runtime>  (665) 
4.767056703567505

>  <fragmenstein_outcome>  (665) 
too moved

>  <fragmenstein_mode>  (665) 
expansion

>  <fragmenstein_error>  (665) 


$$$$
C23766-P46
     RDKit          3D

 42 45  0  0  0  0  0  0  0  0999 V2000
  -11.6316  -22.5386   36.8235 O   0  0  0  0  0  0  0  0  0  0  0  0
  -10.8595  -21.1781   36.5624 S   0  0  0  0  0  0  0  0  0  0  0  0
   -8.6999  -21.1931   36.5173 O   0  0  0  0  0  0  0  0  0  0  0  0
  -11.8585  -21.5010   34.5484 C   0  0  0  0  0  0  0  0  0  0  0  0
  -12.6380  -22.6643   34.4781 C   0  0  0  0  0  0  0  0  0  0  0  0
  -13.7831  -22.6306   33.7197 C   0  0  0  0  0  0  0  0  0  0  0  0
  -13.7620  -21.8163   32.6299 C   0  0  0  0  0  0  0  0  0  0  0  0
  -12.5085  -21.3166   32.3340 C   0  0  0  0  0  0  0  0  0  0  0  0
  -11.8945  -21.9589   31.1707 C   0  0  0  0  0  0  0  0  0  0  0  0
  -11.5661  -23.3020   31.1780 C   0  0  0  0  0  0  0  0  0  0  0  0
  -11.4803  -23.6755   29.8752 N   0  0  0  0  0  0  0  0  0  0  0  0
  -11.2590  -24.9303   29.3301 C   0  0  0  0  0  0  0  0  0  0  0  0
  -11.3497  -25.0863   28.0042 C   0  0  0  0  0  0  0  0  0  0  0  0
  -11.6492  -23.8349   27.2526 C   0  0  0  0  0  0  0  0  0  0  0  0
  -11.8122  -22.6528   27.7585 N   0  0  0  0  0  0  0  0  0  0  0  0
  -11.7479  -22.5495   29.1111 C   0  0  0  0  0  0  0  0  0  0  0  0
  -11.9829  -21.5039   29.8826 N   0  0  0  0  0  0  0  0  0  0  0  0
  -11.8036  -20.7489   33.3929 C   0  0  0  0  0  0  0  0  0  0  0  0
   -8.3653  -21.8583   36.1611 N   0  0  0  0  0  0  0  0  0  0  0  0
   -8.4426  -22.3343   34.1241 C   0  0  0  0  0  0  0  0  0  0  0  0
   -9.2104  -23.5821   33.5328 C   0  0  0  0  0  0  0  0  0  0  0  0
   -9.2640  -24.8119   34.4942 C   0  0  0  0  0  0  0  0  0  0  0  0
   -8.5812  -24.7250   35.9387 C   0  0  0  0  0  0  0  0  0  0  0  0
   -7.8642  -23.5616   36.7168 C   0  0  0  0  0  0  0  0  0  0  0  0
  -12.4871  -23.4997   35.1295 H   0  0  0  0  0  0  0  0  0  0  0  0
  -14.5905  -23.3267   33.8824 H   0  0  0  0  0  0  0  0  0  0  0  0
  -14.5212  -21.9481   31.8648 H   0  0  0  0  0  0  0  0  0  0  0  0
  -11.5654  -24.0440   31.9628 H   0  0  0  0  0  0  0  0  0  0  0  0
  -11.0447  -25.7401   30.0176 H   0  0  0  0  0  0  0  0  0  0  0  0
  -11.2109  -26.0193   27.4798 H   0  0  0  0  0  0  0  0  0  0  0  0
  -11.7209  -23.9549   26.1586 H   0  0  0  0  0  0  0  0  0  0  0  0
  -11.1338  -19.9191   33.2267 H   0  0  0  0  0  0  0  0  0  0  0  0
   -7.4944  -22.5763   33.8084 H   0  0  0  0  0  0  0  0  0  0  0  0
   -8.3837  -21.4000   33.5298 H   0  0  0  0  0  0  0  0  0  0  0  0
  -10.2150  -23.2852   33.2568 H   0  0  0  0  0  0  0  0  0  0  0  0
   -8.7741  -23.9117   32.5833 H   0  0  0  0  0  0  0  0  0  0  0  0
  -10.3057  -25.1524   34.5952 H   0  0  0  0  0  0  0  0  0  0  0  0
   -8.7880  -25.5984   33.9313 H   0  0  0  0  0  0  0  0  0  0  0  0
   -7.9048  -25.5650   36.0751 H   0  0  0  0  0  0  0  0  0  0  0  0
   -9.4318  -24.9605   36.5394 H   0  0  0  0  0  0  0  0  0  0  0  0
   -7.9488  -23.6141   37.8147 H   0  0  0  0  0  0  0  0  0  0  0  0
   -6.7806  -23.5496   36.7611 H   0  0  0  0  0  0  0  0  0  0  0  0
  1  2  2  0
  2  3  2  0
  2  4  1  0
  4  5  2  0
  5  6  1  0
  6  7  2  0
  7  8  1  0
  8  9  1  0
  9 10  2  0
 10 11  1  0
 11 12  1  0
 12 13  2  0
 13 14  1  0
 14 15  2  0
 15 16  1  0
 16 17  2  0
  8 18  2  0
  2 19  1  0
 19 20  1  0
 20 21  1  0
 21 22  1  0
 22 23  1  0
 23 24  1  0
 18  4  1  0
 24 19  1  0
 17  9  1  0
 16 11  1  0
  5 25  1  0
  6 26  1  0
  7 27  1  0
 10 28  1  0
 12 29  1  0
 13 30  1  0
 14 31  1  0
 18 32  1  0
 20 33  1  0
 20 34  1  0
 21 35  1  0
 21 36  1  0
 22 37  1  0
 22 38  1  0
 23 39  1  0
 23 40  1  0
 24 41  1  0
 24 42  1  0
M  END
>  <Energy>  (666) 
1154.8211993425955

>  <compound_id>  (666) 
23766

>  <target_id>  (666) 
1

>  <reference_id>  (666) 
46

>  <inspiration_ids>  (666) 
[107, 46]

>  <energy_score>  (666) 
1110.8193191050354

>  <distance_score>  (666) 
1.619059098043788

>  <path>  (666) 
/opt/xchem-fragalysis-2/maxwin/BulkDock/SCRATCH/511013/C23766-P46/C23766-P46.minimised.mol

>  <scratch_subdir>  (666) 
/opt/xchem-fragalysis-2/maxwin/BulkDock/SCRATCH/511013/C23766-P46

>  <fragmenstein_runtime>  (666) 
4.726569414138794

>  <fragmenstein_outcome>  (666) 
too moved

>  <fragmenstein_mode>  (666) 
expansion

>  <fragmenstein_error>  (666) 


$$$$
C23767-P107
     RDKit          3D

 45 48  0  0  0  0  0  0  0  0999 V2000
  -11.0191  -25.6265   29.1917 C   0  0  0  0  0  0  0  0  0  0  0  0
  -11.2743  -24.4174   28.3567 C   0  0  0  0  0  0  0  0  0  0  0  0
  -11.6704  -23.2575   28.7754 N   0  0  0  0  0  0  0  0  0  0  0  0
  -11.8740  -23.1544   30.1206 C   0  0  0  0  0  0  0  0  0  0  0  0
  -12.1798  -22.0855   30.8136 N   0  0  0  0  0  0  0  0  0  0  0  0
  -12.3239  -22.5191   32.1032 C   0  0  0  0  0  0  0  0  0  0  0  0
  -12.7819  -21.6332   33.1283 C   0  0  0  0  0  0  0  0  0  0  0  0
  -11.9788  -20.5649   33.5134 C   0  0  0  0  0  0  0  0  0  0  0  0
  -12.4271  -19.5634   34.3765 C   0  0  0  0  0  0  0  0  0  0  0  0
  -13.7742  -19.5197   34.6954 C   0  0  0  0  0  0  0  0  0  0  0  0
  -14.4117  -18.3464   35.4091 C   0  0  0  0  0  0  0  0  0  0  0  0
  -13.7872  -17.9640   36.7587 C   0  0  0  0  0  0  0  0  0  0  0  0
  -14.7900  -17.3929   37.6789 N   0  0  0  0  0  0  0  0  0  0  0  0
  -15.2530  -16.0681   37.2338 C   0  0  0  0  0  0  0  0  0  0  0  0
  -16.3339  -15.5112   38.1609 C   0  0  0  0  0  0  0  0  0  0  0  0
  -15.8606  -15.4695   39.6079 C   0  0  0  0  0  0  0  0  0  0  0  0
  -15.3355  -16.8347   40.0324 C   0  0  0  0  0  0  0  0  0  0  0  0
  -14.2832  -17.3606   39.0558 C   0  0  0  0  0  0  0  0  0  0  0  0
  -14.6013  -20.5690   34.2424 C   0  0  0  0  0  0  0  0  0  0  0  0
  -14.1031  -21.6559   33.5252 C   0  0  0  0  0  0  0  0  0  0  0  0
  -12.0095  -23.8474   32.2396 C   0  0  0  0  0  0  0  0  0  0  0  0
  -11.7025  -24.2493   30.9688 N   0  0  0  0  0  0  0  0  0  0  0  0
  -11.2639  -25.4781   30.5009 C   0  0  0  0  0  0  0  0  0  0  0  0
  -10.6608  -26.5365   28.7343 H   0  0  0  0  0  0  0  0  0  0  0  0
  -11.0944  -24.5543   27.2773 H   0  0  0  0  0  0  0  0  0  0  0  0
  -11.0394  -20.4053   32.9958 H   0  0  0  0  0  0  0  0  0  0  0  0
  -11.7676  -18.7407   34.6382 H   0  0  0  0  0  0  0  0  0  0  0  0
  -15.4742  -18.5797   35.5621 H   0  0  0  0  0  0  0  0  0  0  0  0
  -14.3876  -17.4759   34.7440 H   0  0  0  0  0  0  0  0  0  0  0  0
  -12.9449  -17.2759   36.6091 H   0  0  0  0  0  0  0  0  0  0  0  0
  -13.3696  -18.8618   37.2143 H   0  0  0  0  0  0  0  0  0  0  0  0
  -14.4156  -15.3635   37.1802 H   0  0  0  0  0  0  0  0  0  0  0  0
  -15.6846  -16.1311   36.2286 H   0  0  0  0  0  0  0  0  0  0  0  0
  -17.2346  -16.1341   38.0887 H   0  0  0  0  0  0  0  0  0  0  0  0
  -16.6163  -14.5035   37.8354 H   0  0  0  0  0  0  0  0  0  0  0  0
  -16.6830  -15.1628   40.2635 H   0  0  0  0  0  0  0  0  0  0  0  0
  -15.0678  -14.7199   39.7142 H   0  0  0  0  0  0  0  0  0  0  0  0
  -14.9058  -16.7690   41.0385 H   0  0  0  0  0  0  0  0  0  0  0  0
  -16.1703  -17.5451   40.0879 H   0  0  0  0  0  0  0  0  0  0  0  0
  -14.0110  -18.3735   39.3754 H   0  0  0  0  0  0  0  0  0  0  0  0
  -13.3767  -16.7513   39.1247 H   0  0  0  0  0  0  0  0  0  0  0  0
  -15.6688  -20.5542   34.4623 H   0  0  0  0  0  0  0  0  0  0  0  0
  -14.7770  -22.4383   33.1795 H   0  0  0  0  0  0  0  0  0  0  0  0
  -12.0117  -24.5151   33.0889 H   0  0  0  0  0  0  0  0  0  0  0  0
  -11.1271  -26.2668   31.2300 H   0  0  0  0  0  0  0  0  0  0  0  0
  1  2  1  0
  2  3  2  0
  3  4  1  0
  4  5  2  0
  5  6  1  0
  6  7  1  0
  7  8  2  0
  8  9  1  0
  9 10  2  0
 10 11  1  0
 11 12  1  0
 12 13  1  0
 13 14  1  0
 14 15  1  0
 15 16  1  0
 16 17  1  0
 17 18  1  0
 10 19  1  0
 19 20  2  0
  6 21  2  0
 21 22  1  0
 22 23  1  0
 23  1  2  0
 22  4  1  0
 20  7  1  0
 18 13  1  0
  1 24  1  0
  2 25  1  0
  8 26  1  0
  9 27  1  0
 11 28  1  0
 11 29  1  0
 12 30  1  0
 12 31  1  0
 14 32  1  0
 14 33  1  0
 15 34  1  0
 15 35  1  0
 16 36  1  0
 16 37  1  0
 17 38  1  0
 17 39  1  0
 18 40  1  0
 18 41  1  0
 19 42  1  0
 20 43  1  0
 21 44  1  0
 23 45  1  0
M  END
>  <Energy>  (667) 
66.828799481112767

>  <compound_id>  (667) 
23767

>  <target_id>  (667) 
1

>  <reference_id>  (667) 
107

>  <inspiration_ids>  (667) 
[107, 46]

>  <energy_score>  (667) 
-19.21442417063446

>  <distance_score>  (667) 
1.927070027599835

>  <path>  (667) 
/opt/xchem-fragalysis-2/maxwin/BulkDock/SCRATCH/511013/C23767-P107/C23767-P107.minimised.mol

>  <scratch_subdir>  (667) 
/opt/xchem-fragalysis-2/maxwin/BulkDock/SCRATCH/511013/C23767-P107

>  <fragmenstein_runtime>  (667) 
5.386284589767456

>  <fragmenstein_outcome>  (667) 
too moved

>  <fragmenstein_mode>  (667) 
expansion

>  <fragmenstein_error>  (667) 


$$$$
C23767-P46
     RDKit          3D

 45 48  0  0  0  0  0  0  0  0999 V2000
  -10.7351  -25.4856   29.3947 C   0  0  0  0  0  0  0  0  0  0  0  0
  -11.2383  -24.3913   28.5139 C   0  0  0  0  0  0  0  0  0  0  0  0
  -11.7112  -23.2482   28.8966 N   0  0  0  0  0  0  0  0  0  0  0  0
  -11.7647  -23.0508   30.2439 C   0  0  0  0  0  0  0  0  0  0  0  0
  -12.2101  -22.0017   30.8900 N   0  0  0  0  0  0  0  0  0  0  0  0
  -12.1740  -22.3502   32.2157 C   0  0  0  0  0  0  0  0  0  0  0  0
  -12.6600  -21.4569   33.2234 C   0  0  0  0  0  0  0  0  0  0  0  0
  -11.8943  -20.3424   33.5034 C   0  0  0  0  0  0  0  0  0  0  0  0
  -12.3082  -19.3491   34.3903 C   0  0  0  0  0  0  0  0  0  0  0  0
  -13.6089  -19.3455   34.8642 C   0  0  0  0  0  0  0  0  0  0  0  0
  -14.1300  -18.0965   35.5507 C   0  0  0  0  0  0  0  0  0  0  0  0
  -14.9334  -18.2245   36.8595 C   0  0  0  0  0  0  0  0  0  0  0  0
  -16.2609  -18.8625   36.7745 N   0  0  0  0  0  0  0  0  0  0  0  0
  -17.2062  -18.0819   35.9650 C   0  0  0  0  0  0  0  0  0  0  0  0
  -18.5614  -18.7835   35.8541 C   0  0  0  0  0  0  0  0  0  0  0  0
  -19.1470  -19.0885   37.2264 C   0  0  0  0  0  0  0  0  0  0  0  0
  -18.1305  -19.8354   38.0801 C   0  0  0  0  0  0  0  0  0  0  0  0
  -16.7959  -19.0919   38.1273 C   0  0  0  0  0  0  0  0  0  0  0  0
  -14.4270  -20.4193   34.4809 C   0  0  0  0  0  0  0  0  0  0  0  0
  -13.9453  -21.5038   33.7236 C   0  0  0  0  0  0  0  0  0  0  0  0
  -11.5702  -23.5691   32.4096 C   0  0  0  0  0  0  0  0  0  0  0  0
  -11.3419  -24.0343   31.1419 N   0  0  0  0  0  0  0  0  0  0  0  0
  -10.8138  -25.2425   30.7107 C   0  0  0  0  0  0  0  0  0  0  0  0
  -10.3451  -26.3957   28.9628 H   0  0  0  0  0  0  0  0  0  0  0  0
  -11.1855  -24.6042   27.4332 H   0  0  0  0  0  0  0  0  0  0  0  0
  -10.9921  -20.1735   32.9207 H   0  0  0  0  0  0  0  0  0  0  0  0
  -11.6599  -18.4943   34.5648 H   0  0  0  0  0  0  0  0  0  0  0  0
  -14.6939  -17.5126   34.8166 H   0  0  0  0  0  0  0  0  0  0  0  0
  -13.2645  -17.4656   35.7999 H   0  0  0  0  0  0  0  0  0  0  0  0
  -15.0475  -17.2174   37.2842 H   0  0  0  0  0  0  0  0  0  0  0  0
  -14.3085  -18.7784   37.5676 H   0  0  0  0  0  0  0  0  0  0  0  0
  -17.3423  -17.0759   36.3823 H   0  0  0  0  0  0  0  0  0  0  0  0
  -16.8228  -17.9675   34.9480 H   0  0  0  0  0  0  0  0  0  0  0  0
  -19.2573  -18.1558   35.2863 H   0  0  0  0  0  0  0  0  0  0  0  0
  -18.4437  -19.7186   35.2915 H   0  0  0  0  0  0  0  0  0  0  0  0
  -20.0613  -19.6828   37.1225 H   0  0  0  0  0  0  0  0  0  0  0  0
  -19.4254  -18.1509   37.7230 H   0  0  0  0  0  0  0  0  0  0  0  0
  -18.5213  -19.9598   39.0963 H   0  0  0  0  0  0  0  0  0  0  0  0
  -17.9760  -20.8421   37.6711 H   0  0  0  0  0  0  0  0  0  0  0  0
  -16.0929  -19.7012   38.7084 H   0  0  0  0  0  0  0  0  0  0  0  0
  -16.9210  -18.1410   38.6620 H   0  0  0  0  0  0  0  0  0  0  0  0
  -15.4783  -20.4296   34.7650 H   0  0  0  0  0  0  0  0  0  0  0  0
  -14.6130  -22.3168   33.4481 H   0  0  0  0  0  0  0  0  0  0  0  0
  -11.3664  -24.1531   33.2941 H   0  0  0  0  0  0  0  0  0  0  0  0
  -10.5005  -25.9478   31.4714 H   0  0  0  0  0  0  0  0  0  0  0  0
  1  2  1  0
  2  3  2  0
  3  4  1  0
  4  5  2  0
  5  6  1  0
  6  7  1  0
  7  8  2  0
  8  9  1  0
  9 10  2  0
 10 11  1  0
 11 12  1  0
 12 13  1  0
 13 14  1  0
 14 15  1  0
 15 16  1  0
 16 17  1  0
 17 18  1  0
 10 19  1  0
 19 20  2  0
  6 21  2  0
 21 22  1  0
 22 23  1  0
 23  1  2  0
 22  4  1  0
 20  7  1  0
 18 13  1  0
  1 24  1  0
  2 25  1  0
  8 26  1  0
  9 27  1  0
 11 28  1  0
 11 29  1  0
 12 30  1  0
 12 31  1  0
 14 32  1  0
 14 33  1  0
 15 34  1  0
 15 35  1  0
 16 36  1  0
 16 37  1  0
 17 38  1  0
 17 39  1  0
 18 40  1  0
 18 41  1  0
 19 42  1  0
 20 43  1  0
 21 44  1  0
 23 45  1  0
M  END
>  <Energy>  (668) 
68.518470137002538

>  <compound_id>  (668) 
23767

>  <target_id>  (668) 
1

>  <reference_id>  (668) 
46

>  <inspiration_ids>  (668) 
[107, 46]

>  <energy_score>  (668) 
-17.524753514743793

>  <distance_score>  (668) 
1.8675798596504611

>  <path>  (668) 
/opt/xchem-fragalysis-2/maxwin/BulkDock/SCRATCH/511013/C23767-P46/C23767-P46.minimised.mol

>  <scratch_subdir>  (668) 
/opt/xchem-fragalysis-2/maxwin/BulkDock/SCRATCH/511013/C23767-P46

>  <fragmenstein_runtime>  (668) 
5.322443723678589

>  <fragmenstein_outcome>  (668) 
too moved

>  <fragmenstein_mode>  (668) 
expansion

>  <fragmenstein_error>  (668) 


$$$$
C8765-P107
     RDKit          3D

 48 51  0  0  0  0  0  0  0  0999 V2000
  -10.8300  -21.9065   28.3465 C   0  0  0  0  0  0  0  0  0  0  0  0
  -11.2028  -21.5750   29.7136 C   0  0  0  0  0  0  0  0  0  0  0  0
  -12.1898  -22.2766   30.2427 C   0  0  0  0  0  0  0  0  0  0  0  0
  -12.6139  -22.0242   31.5493 N   0  0  0  0  0  0  0  0  0  0  0  0
  -11.7818  -21.3101   32.5299 C   0  0  0  0  0  0  0  0  0  0  0  0
  -12.6389  -21.2889   33.7779 C   0  0  0  0  0  0  0  0  0  0  0  0
  -13.0160  -22.7519   33.7734 C   0  0  0  0  0  0  0  0  0  0  0  0
  -11.7924  -23.3788   34.1455 O   0  0  0  0  0  0  0  0  0  0  0  0
  -11.5696  -24.6853   33.6460 C   0  0  0  0  0  0  0  0  0  0  0  0
  -10.4952  -24.6423   32.5593 C   0  0  0  0  0  0  0  0  0  0  0  0
  -10.4637  -25.8121   31.6988 N   0  0  0  0  0  0  0  0  0  0  0  0
   -9.3066  -25.8033   30.8267 C   0  0  0  0  0  0  0  0  0  0  0  0
   -9.6182  -25.3558   29.4053 C   0  0  0  0  0  0  0  0  0  0  0  0
  -10.5280  -26.3507   28.7380 C   0  0  0  0  0  0  0  0  0  0  0  0
  -11.5551  -26.8747   29.7239 C   0  0  0  0  0  0  0  0  0  0  0  0
  -11.6856  -25.9759   30.9454 C   0  0  0  0  0  0  0  0  0  0  0  0
  -13.4840  -22.9096   32.3316 C   0  0  0  0  0  0  0  0  0  0  0  0
  -12.7270  -23.2234   29.3665 N   0  0  0  0  0  0  0  0  0  0  0  0
  -13.8914  -23.8777   29.4068 C   0  0  0  0  0  0  0  0  0  0  0  0
  -13.9854  -24.6698   28.3042 C   0  0  0  0  0  0  0  0  0  0  0  0
  -12.8883  -24.5375   27.5554 N   0  0  0  0  0  0  0  0  0  0  0  0
  -12.2272  -23.5613   28.1232 C   0  0  0  0  0  0  0  0  0  0  0  0
  -11.2264  -22.8633   27.5936 N   0  0  0  0  0  0  0  0  0  0  0  0
  -10.0853  -21.2438   27.9512 H   0  0  0  0  0  0  0  0  0  0  0  0
  -10.6524  -20.8402   30.2487 H   0  0  0  0  0  0  0  0  0  0  0  0
  -10.8604  -21.8753   32.6281 H   0  0  0  0  0  0  0  0  0  0  0  0
  -11.4549  -20.3206   32.2771 H   0  0  0  0  0  0  0  0  0  0  0  0
  -12.0815  -20.9430   34.6454 H   0  0  0  0  0  0  0  0  0  0  0  0
  -13.5310  -20.6630   33.6727 H   0  0  0  0  0  0  0  0  0  0  0  0
  -13.8220  -23.0569   34.4424 H   0  0  0  0  0  0  0  0  0  0  0  0
  -12.5156  -25.1188   33.3411 H   0  0  0  0  0  0  0  0  0  0  0  0
  -11.1775  -25.3018   34.4596 H   0  0  0  0  0  0  0  0  0  0  0  0
  -10.5825  -23.7512   31.9440 H   0  0  0  0  0  0  0  0  0  0  0  0
   -9.5319  -24.5382   33.0729 H   0  0  0  0  0  0  0  0  0  0  0  0
   -8.9457  -26.8366   30.7917 H   0  0  0  0  0  0  0  0  0  0  0  0
   -8.4907  -25.2371   31.2694 H   0  0  0  0  0  0  0  0  0  0  0  0
  -10.1006  -24.3910   29.4119 H   0  0  0  0  0  0  0  0  0  0  0  0
   -8.7106  -25.2694   28.8187 H   0  0  0  0  0  0  0  0  0  0  0  0
   -9.9225  -27.1759   28.3760 H   0  0  0  0  0  0  0  0  0  0  0  0
  -10.9792  -25.9383   27.8366 H   0  0  0  0  0  0  0  0  0  0  0  0
  -11.2661  -27.8695   30.0735 H   0  0  0  0  0  0  0  0  0  0  0  0
  -12.4996  -27.0090   29.1978 H   0  0  0  0  0  0  0  0  0  0  0  0
  -12.4113  -26.3884   31.6104 H   0  0  0  0  0  0  0  0  0  0  0  0
  -12.0519  -25.0164   30.6398 H   0  0  0  0  0  0  0  0  0  0  0  0
  -13.3997  -23.9371   32.0080 H   0  0  0  0  0  0  0  0  0  0  0  0
  -14.5177  -22.5605   32.2328 H   0  0  0  0  0  0  0  0  0  0  0  0
  -14.5213  -23.5425   30.1815 H   0  0  0  0  0  0  0  0  0  0  0  0
  -14.8154  -25.2275   27.8919 H   0  0  0  0  0  0  0  0  0  0  0  0
  1  2  1  0
  2  3  2  0
  3  4  1  0
  4  5  1  0
  5  6  1  0
  6  7  1  0
  7  8  1  0
  8  9  1  0
  9 10  1  0
 10 11  1  0
 11 12  1  0
 12 13  1  0
 13 14  1  0
 14 15  1  0
 15 16  1  0
  7 17  1  0
  3 18  1  0
 18 19  1  0
 19 20  2  0
 20 21  1  0
 21 22  2  0
 22 23  1  0
 23  1  2  0
 17  4  1  0
 22 18  1  0
 16 11  1  0
  1 24  1  0
  2 25  1  0
  5 26  1  0
  5 27  1  0
  6 28  1  0
  6 29  1  0
  7 30  1  0
  9 31  1  0
  9 32  1  0
 10 33  1  0
 10 34  1  0
 12 35  1  0
 12 36  1  0
 13 37  1  0
 13 38  1  0
 14 39  1  0
 14 40  1  0
 15 41  1  0
 15 42  1  0
 16 43  1  0
 16 44  1  0
 17 45  1  0
 17 46  1  0
 19 47  1  0
 20 48  1  0
M  END
>  <Energy>  (669) 
145.18371364879792

>  <compound_id>  (669) 
8765

>  <target_id>  (669) 
1

>  <reference_id>  (669) 
107

>  <inspiration_ids>  (669) 
[107, 46]

>  <energy_score>  (669) 
-6.985963388291367

>  <distance_score>  (669) 
2.7391583140392695

>  <path>  (669) 
/opt/xchem-fragalysis-2/maxwin/BulkDock/SCRATCH/511013/C8765-P107/C8765-P107.minimised.mol

>  <scratch_subdir>  (669) 
/opt/xchem-fragalysis-2/maxwin/BulkDock/SCRATCH/511013/C8765-P107

>  <fragmenstein_runtime>  (669) 
3.104281187057495

>  <fragmenstein_outcome>  (669) 
too moved

>  <fragmenstein_mode>  (669) 
expansion

>  <fragmenstein_error>  (669) 


$$$$
C8765-P46
     RDKit          3D

 48 51  0  0  0  0  0  0  0  0999 V2000
  -17.5244  -20.8909   31.2711 C   0  0  0  0  0  0  0  0  0  0  0  0
  -16.1199  -21.3330   31.4014 C   0  0  0  0  0  0  0  0  0  0  0  0
  -15.4462  -20.9081   32.4629 C   0  0  0  0  0  0  0  0  0  0  0  0
  -14.1511  -21.3007   32.7389 N   0  0  0  0  0  0  0  0  0  0  0  0
  -13.0390  -21.7439   31.9031 C   0  0  0  0  0  0  0  0  0  0  0  0
  -11.8617  -21.4874   32.7963 C   0  0  0  0  0  0  0  0  0  0  0  0
  -12.4247  -22.0228   34.0991 C   0  0  0  0  0  0  0  0  0  0  0  0
  -11.8370  -23.2451   34.4606 O   0  0  0  0  0  0  0  0  0  0  0  0
  -11.9699  -24.3782   33.6480 C   0  0  0  0  0  0  0  0  0  0  0  0
  -10.7235  -24.9186   32.9306 C   0  0  0  0  0  0  0  0  0  0  0  0
  -10.2942  -24.5284   31.5584 N   0  0  0  0  0  0  0  0  0  0  0  0
  -11.3145  -24.1302   30.5977 C   0  0  0  0  0  0  0  0  0  0  0  0
  -11.1470  -24.5486   29.1313 C   0  0  0  0  0  0  0  0  0  0  0  0
  -10.9852  -26.0566   29.0020 C   0  0  0  0  0  0  0  0  0  0  0  0
  -10.4200  -26.6550   30.2833 C   0  0  0  0  0  0  0  0  0  0  0  0
   -9.5330  -25.6421   31.0016 C   0  0  0  0  0  0  0  0  0  0  0  0
  -13.9428  -22.0689   33.9481 C   0  0  0  0  0  0  0  0  0  0  0  0
  -16.1358  -20.0691   33.3613 N   0  0  0  0  0  0  0  0  0  0  0  0
  -15.7026  -19.3878   34.4772 C   0  0  0  0  0  0  0  0  0  0  0  0
  -16.8191  -18.7922   35.0008 C   0  0  0  0  0  0  0  0  0  0  0  0
  -17.9023  -19.0029   34.1981 N   0  0  0  0  0  0  0  0  0  0  0  0
  -17.4782  -19.7375   33.1935 C   0  0  0  0  0  0  0  0  0  0  0  0
  -18.1752  -20.1454   32.1011 N   0  0  0  0  0  0  0  0  0  0  0  0
  -18.0639  -21.2213   30.3729 H   0  0  0  0  0  0  0  0  0  0  0  0
  -15.6483  -22.0215   30.7357 H   0  0  0  0  0  0  0  0  0  0  0  0
  -13.0757  -22.7938   31.7795 H   0  0  0  0  0  0  0  0  0  0  0  0
  -12.9079  -21.4187   30.8774 H   0  0  0  0  0  0  0  0  0  0  0  0
  -10.9441  -21.9746   32.4668 H   0  0  0  0  0  0  0  0  0  0  0  0
  -11.6634  -20.4180   32.8908 H   0  0  0  0  0  0  0  0  0  0  0  0
  -12.2063  -21.2925   34.8810 H   0  0  0  0  0  0  0  0  0  0  0  0
  -12.7998  -24.2902   32.9925 H   0  0  0  0  0  0  0  0  0  0  0  0
  -12.2433  -25.1427   34.3687 H   0  0  0  0  0  0  0  0  0  0  0  0
   -9.8577  -24.7651   33.5838 H   0  0  0  0  0  0  0  0  0  0  0  0
  -10.9013  -26.0003   32.9133 H   0  0  0  0  0  0  0  0  0  0  0  0
  -11.3848  -23.0472   30.5861 H   0  0  0  0  0  0  0  0  0  0  0  0
  -12.2355  -24.5688   30.9086 H   0  0  0  0  0  0  0  0  0  0  0  0
  -12.0120  -24.2178   28.5442 H   0  0  0  0  0  0  0  0  0  0  0  0
  -10.2777  -24.0422   28.7006 H   0  0  0  0  0  0  0  0  0  0  0  0
  -10.3230  -26.2781   28.1598 H   0  0  0  0  0  0  0  0  0  0  0  0
  -11.9359  -26.5389   28.7559 H   0  0  0  0  0  0  0  0  0  0  0  0
   -9.8399  -27.5369   30.0436 H   0  0  0  0  0  0  0  0  0  0  0  0
  -11.2310  -27.0000   30.9337 H   0  0  0  0  0  0  0  0  0  0  0  0
   -8.8377  -25.2251   30.2735 H   0  0  0  0  0  0  0  0  0  0  0  0
   -8.9270  -26.1161   31.7726 H   0  0  0  0  0  0  0  0  0  0  0  0
  -14.3494  -23.0814   33.8755 H   0  0  0  0  0  0  0  0  0  0  0  0
  -14.4861  -21.5870   34.7457 H   0  0  0  0  0  0  0  0  0  0  0  0
  -14.6713  -19.3983   34.7976 H   0  0  0  0  0  0  0  0  0  0  0  0
  -16.8955  -18.1946   35.9004 H   0  0  0  0  0  0  0  0  0  0  0  0
  1  2  1  0
  2  3  2  0
  3  4  1  0
  4  5  1  0
  5  6  1  0
  6  7  1  0
  7  8  1  0
  8  9  1  0
  9 10  1  0
 10 11  1  0
 11 12  1  0
 12 13  1  0
 13 14  1  0
 14 15  1  0
 15 16  1  0
  7 17  1  0
  3 18  1  0
 18 19  1  0
 19 20  2  0
 20 21  1  0
 21 22  2  0
 22 23  1  0
 23  1  2  0
 17  4  1  0
 22 18  1  0
 16 11  1  0
  1 24  1  0
  2 25  1  0
  5 26  1  0
  5 27  1  0
  6 28  1  0
  6 29  1  0
  7 30  1  0
  9 31  1  0
  9 32  1  0
 10 33  1  0
 10 34  1  0
 12 35  1  0
 12 36  1  0
 13 37  1  0
 13 38  1  0
 14 39  1  0
 14 40  1  0
 15 41  1  0
 15 42  1  0
 16 43  1  0
 16 44  1  0
 17 45  1  0
 17 46  1  0
 19 47  1  0
 20 48  1  0
M  END
>  <Energy>  (670) 
152.62126700343671

>  <compound_id>  (670) 
8765

>  <target_id>  (670) 
1

>  <reference_id>  (670) 
46

>  <inspiration_ids>  (670) 
[107, 46]

>  <energy_score>  (670) 
-7.0559014736176096

>  <distance_score>  (670) 
4.109106944878039

>  <path>  (670) 
/opt/xchem-fragalysis-2/maxwin/BulkDock/SCRATCH/511013/C8765-P46/C8765-P46.minimised.mol

>  <scratch_subdir>  (670) 
/opt/xchem-fragalysis-2/maxwin/BulkDock/SCRATCH/511013/C8765-P46

>  <fragmenstein_runtime>  (670) 
4.809010744094849

>  <fragmenstein_outcome>  (670) 
too moved

>  <fragmenstein_mode>  (670) 
expansion

>  <fragmenstein_error>  (670) 


$$$$
C23751-P107
     RDKit          3D

 48 52  0  0  0  0  0  0  0  0999 V2000
  -10.0504  -23.8066   28.3049 O   0  0  0  0  0  0  0  0  0  0  0  0
  -11.0446  -23.2063   28.5761 C   0  0  0  0  0  0  0  0  0  0  0  0
  -12.2641  -23.6290   28.9936 N   0  0  0  0  0  0  0  0  0  0  0  0
  -12.7024  -24.8126   29.3347 C   0  0  0  0  0  0  0  0  0  0  0  0
  -11.8255  -25.9092   29.8680 C   0  0  0  0  0  0  0  0  0  0  0  0
  -10.6634  -26.7732   29.4906 C   0  0  0  0  0  0  0  0  0  0  0  0
  -10.2031  -27.1756   30.9106 C   0  0  0  0  0  0  0  0  0  0  0  0
  -10.4783  -26.0195   31.7546 O   0  0  0  0  0  0  0  0  0  0  0  0
  -11.0598  -25.0188   30.8855 C   0  0  0  0  0  0  0  0  0  0  0  0
  -12.5007  -24.1271   31.2200 C   0  0  0  0  0  0  0  0  0  0  0  0
  -12.7894  -22.3215   32.3598 N   0  0  0  0  0  0  0  0  0  0  0  0
  -12.4806  -21.9410   33.8463 C   0  0  0  0  0  0  0  0  0  0  0  0
  -12.3603  -20.4452   34.1691 C   0  0  0  0  0  0  0  0  0  0  0  0
  -13.6747  -19.7400   34.3371 C   0  0  0  0  0  0  0  0  0  0  0  0
  -14.7769  -20.5496   33.7125 C   0  0  0  0  0  0  0  0  0  0  0  0
  -14.4020  -21.4770   32.5214 C   0  0  0  0  0  0  0  0  0  0  0  0
  -11.2836  -21.7510   28.6812 C   0  0  0  0  0  0  0  0  0  0  0  0
  -10.6973  -21.4259   29.9772 C   0  0  0  0  0  0  0  0  0  0  0  0
  -11.2884  -22.2635   31.0092 N   0  0  0  0  0  0  0  0  0  0  0  0
  -10.8758  -23.2357   32.4041 C   0  0  0  0  0  0  0  0  0  0  0  0
  -12.0106  -24.0720   33.1724 C   0  0  0  0  0  0  0  0  0  0  0  0
  -13.8834  -23.8278   32.5280 C   0  0  0  0  0  0  0  0  0  0  0  0
  -14.1372  -23.0503   31.0824 N   0  0  0  0  0  0  0  0  0  0  0  0
  -12.8511  -22.0464   30.4496 C   0  0  0  0  0  0  0  0  0  0  0  0
  -12.6185  -21.4068   29.2276 N   0  0  0  0  0  0  0  0  0  0  0  0
  -12.8736  -22.8565   29.0318 H   0  0  0  0  0  0  0  0  0  0  0  0
  -13.6975  -25.0092   28.9723 H   0  0  0  0  0  0  0  0  0  0  0  0
  -12.4783  -26.6342   30.3575 H   0  0  0  0  0  0  0  0  0  0  0  0
   -9.8759  -26.2311   28.9591 H   0  0  0  0  0  0  0  0  0  0  0  0
  -10.9784  -27.6129   28.8763 H   0  0  0  0  0  0  0  0  0  0  0  0
  -10.7942  -28.0109   31.2996 H   0  0  0  0  0  0  0  0  0  0  0  0
   -9.1480  -27.4303   30.9392 H   0  0  0  0  0  0  0  0  0  0  0  0
  -10.2243  -24.4844   30.4515 H   0  0  0  0  0  0  0  0  0  0  0  0
  -12.9454  -25.0663   31.6740 H   0  0  0  0  0  0  0  0  0  0  0  0
  -13.3147  -22.4040   34.3683 H   0  0  0  0  0  0  0  0  0  0  0  0
  -11.6023  -22.3553   34.3069 H   0  0  0  0  0  0  0  0  0  0  0  0
  -11.7138  -19.9610   33.4351 H   0  0  0  0  0  0  0  0  0  0  0  0
  -11.8671  -20.3177   35.1327 H   0  0  0  0  0  0  0  0  0  0  0  0
  -13.8950  -19.5638   35.3929 H   0  0  0  0  0  0  0  0  0  0  0  0
  -13.6153  -18.7116   33.9793 H   0  0  0  0  0  0  0  0  0  0  0  0
  -15.2291  -21.1802   34.4890 H   0  0  0  0  0  0  0  0  0  0  0  0
  -15.5867  -19.8789   33.3986 H   0  0  0  0  0  0  0  0  0  0  0  0
  -14.6263  -20.9385   31.6025 H   0  0  0  0  0  0  0  0  0  0  0  0
  -15.2310  -22.1977   32.6218 H   0  0  0  0  0  0  0  0  0  0  0  0
  -10.5276  -20.5087   30.4534 H   0  0  0  0  0  0  0  0  0  0  0  0
   -9.8246  -23.2830   32.6404 H   0  0  0  0  0  0  0  0  0  0  0  0
  -11.8996  -24.7524   34.0028 H   0  0  0  0  0  0  0  0  0  0  0  0
  -14.6859  -24.1593   33.2106 H   0  0  0  0  0  0  0  0  0  0  0  0
  1  2  2  0
  2  3  1  0
  3  4  1  0
  4  5  1  0
  5  6  1  0
  6  7  1  0
  7  8  1  0
  8  9  1  0
  9 10  1  0
 10 11  1  0
 11 12  1  0
 12 13  1  0
 13 14  1  0
 14 15  1  0
 15 16  1  0
  2 17  1  0
 17 18  2  0
 18 19  1  0
 19 20  1  0
 20 21  2  0
 21 22  1  0
 22 23  2  0
 23 24  1  0
 24 25  2  0
 10  4  1  0
 16 11  1  0
 25 17  1  0
  9  5  1  0
 24 19  1  0
  3 26  1  0
  4 27  1  0
  5 28  1  0
  6 29  1  0
  6 30  1  0
  7 31  1  0
  7 32  1  0
  9 33  1  0
 10 34  1  0
 12 35  1  0
 12 36  1  0
 13 37  1  0
 13 38  1  0
 14 39  1  0
 14 40  1  0
 15 41  1  0
 15 42  1  0
 16 43  1  0
 16 44  1  0
 18 45  1  0
 20 46  1  0
 21 47  1  0
 22 48  1  0
M  END
>  <Energy>  (671) 
1504.688475076882

>  <compound_id>  (671) 
23751

>  <target_id>  (671) 
1

>  <reference_id>  (671) 
107

>  <inspiration_ids>  (671) 
[107, 46]

>  <energy_score>  (671) 
1367.2529122936544

>  <distance_score>  (671) 
3.107520549770842

>  <path>  (671) 
/opt/xchem-fragalysis-2/maxwin/BulkDock/SCRATCH/511013/C23751-P107/C23751-P107.minimised.mol

>  <scratch_subdir>  (671) 
/opt/xchem-fragalysis-2/maxwin/BulkDock/SCRATCH/511013/C23751-P107

>  <fragmenstein_runtime>  (671) 
9.419055700302124

>  <fragmenstein_outcome>  (671) 
too moved

>  <fragmenstein_mode>  (671) 
expansion

>  <fragmenstein_error>  (671) 


$$$$
C23751-P46
     RDKit          3D

 48 52  0  0  0  0  0  0  0  0999 V2000
  -13.5934  -27.0503   24.1228 O   0  0  0  0  0  0  0  0  0  0  0  0
  -13.0874  -26.1801   24.7260 C   0  0  0  0  0  0  0  0  0  0  0  0
  -13.5356  -25.4261   25.7026 N   0  0  0  0  0  0  0  0  0  0  0  0
  -14.6329  -25.4648   26.3880 C   0  0  0  0  0  0  0  0  0  0  0  0
  -15.0862  -26.8832   26.7978 C   0  0  0  0  0  0  0  0  0  0  0  0
  -16.3104  -27.6172   27.3283 C   0  0  0  0  0  0  0  0  0  0  0  0
  -15.6613  -28.6455   28.2966 C   0  0  0  0  0  0  0  0  0  0  0  0
  -14.4226  -28.0309   28.7417 O   0  0  0  0  0  0  0  0  0  0  0  0
  -14.4378  -26.6929   28.1788 C   0  0  0  0  0  0  0  0  0  0  0  0
  -12.9881  -25.8943   27.5165 C   0  0  0  0  0  0  0  0  0  0  0  0
  -11.4038  -24.7367   28.4279 N   0  0  0  0  0  0  0  0  0  0  0  0
  -11.2391  -23.0261   28.5832 C   0  0  0  0  0  0  0  0  0  0  0  0
  -11.7826  -22.3746   29.8663 C   0  0  0  0  0  0  0  0  0  0  0  0
  -11.3887  -22.9978   31.1933 C   0  0  0  0  0  0  0  0  0  0  0  0
  -10.8851  -24.4303   31.1304 C   0  0  0  0  0  0  0  0  0  0  0  0
  -10.4071  -24.9691   29.7600 C   0  0  0  0  0  0  0  0  0  0  0  0
  -11.6859  -25.6791   24.6945 C   0  0  0  0  0  0  0  0  0  0  0  0
  -10.9995  -26.6034   25.5194 C   0  0  0  0  0  0  0  0  0  0  0  0
  -10.8991  -26.0111   26.8118 N   0  0  0  0  0  0  0  0  0  0  0  0
  -11.1369  -26.8492   28.2318 C   0  0  0  0  0  0  0  0  0  0  0  0
  -12.1264  -26.3507   29.2310 C   0  0  0  0  0  0  0  0  0  0  0  0
  -13.1626  -24.6053   28.8129 C   0  0  0  0  0  0  0  0  0  0  0  0
  -12.8663  -23.8879   27.3825 N   0  0  0  0  0  0  0  0  0  0  0  0
  -11.4471  -24.4395   26.4817 C   0  0  0  0  0  0  0  0  0  0  0  0
  -11.3772  -24.3641   25.1527 N   0  0  0  0  0  0  0  0  0  0  0  0
  -12.8882  -24.7591   25.8971 H   0  0  0  0  0  0  0  0  0  0  0  0
  -15.2375  -24.6042   26.2031 H   0  0  0  0  0  0  0  0  0  0  0  0
  -14.5904  -27.6483   26.2017 H   0  0  0  0  0  0  0  0  0  0  0  0
  -16.9899  -26.9509   27.8718 H   0  0  0  0  0  0  0  0  0  0  0  0
  -16.8859  -28.1147   26.5422 H   0  0  0  0  0  0  0  0  0  0  0  0
  -15.4027  -29.5725   27.7760 H   0  0  0  0  0  0  0  0  0  0  0  0
  -16.3007  -28.8636   29.1560 H   0  0  0  0  0  0  0  0  0  0  0  0
  -15.1327  -26.1039   28.7827 H   0  0  0  0  0  0  0  0  0  0  0  0
  -12.6764  -26.8790   27.0642 H   0  0  0  0  0  0  0  0  0  0  0  0
  -11.5515  -22.4090   27.7249 H   0  0  0  0  0  0  0  0  0  0  0  0
  -10.1588  -22.8789   28.5058 H   0  0  0  0  0  0  0  0  0  0  0  0
  -12.8710  -22.3067   29.8143 H   0  0  0  0  0  0  0  0  0  0  0  0
  -11.4446  -21.3334   29.8727 H   0  0  0  0  0  0  0  0  0  0  0  0
  -12.2285  -22.9319   31.8945 H   0  0  0  0  0  0  0  0  0  0  0  0
  -10.6349  -22.3661   31.6762 H   0  0  0  0  0  0  0  0  0  0  0  0
  -10.0466  -24.5262   31.8338 H   0  0  0  0  0  0  0  0  0  0  0  0
  -11.6514  -25.0841   31.5488 H   0  0  0  0  0  0  0  0  0  0  0  0
  -10.0048  -25.9805   29.9189 H   0  0  0  0  0  0  0  0  0  0  0  0
   -9.4742  -24.4926   29.4626 H   0  0  0  0  0  0  0  0  0  0  0  0
  -10.8214  -27.6557   25.4489 H   0  0  0  0  0  0  0  0  0  0  0  0
  -10.4288  -27.5999   28.4318 H   0  0  0  0  0  0  0  0  0  0  0  0
  -12.0343  -26.7554   30.2376 H   0  0  0  0  0  0  0  0  0  0  0  0
  -14.2086  -24.4753   29.0586 H   0  0  0  0  0  0  0  0  0  0  0  0
  1  2  2  0
  2  3  1  0
  3  4  1  0
  4  5  1  0
  5  6  1  0
  6  7  1  0
  7  8  1  0
  8  9  1  0
  9 10  1  0
 10 11  1  0
 11 12  1  0
 12 13  1  0
 13 14  1  0
 14 15  1  0
 15 16  1  0
  2 17  1  0
 17 18  2  0
 18 19  1  0
 19 20  1  0
 20 21  2  0
 21 22  1  0
 22 23  2  0
 23 24  1  0
 24 25  2  0
 10  4  1  0
 16 11  1  0
 25 17  1  0
  9  5  1  0
 24 19  1  0
  3 26  1  0
  4 27  1  0
  5 28  1  0
  6 29  1  0
  6 30  1  0
  7 31  1  0
  7 32  1  0
  9 33  1  0
 10 34  1  0
 12 35  1  0
 12 36  1  0
 13 37  1  0
 13 38  1  0
 14 39  1  0
 14 40  1  0
 15 41  1  0
 15 42  1  0
 16 43  1  0
 16 44  1  0
 18 45  1  0
 20 46  1  0
 21 47  1  0
 22 48  1  0
M  END
>  <Energy>  (672) 
1545.9189266259623

>  <compound_id>  (672) 
23751

>  <target_id>  (672) 
1

>  <reference_id>  (672) 
46

>  <inspiration_ids>  (672) 
[107, 46]

>  <energy_score>  (672) 
1408.4833638427174

>  <distance_score>  (672) 
4.835225999836692

>  <path>  (672) 
/opt/xchem-fragalysis-2/maxwin/BulkDock/SCRATCH/511013/C23751-P46/C23751-P46.minimised.mol

>  <scratch_subdir>  (672) 
/opt/xchem-fragalysis-2/maxwin/BulkDock/SCRATCH/511013/C23751-P46

>  <fragmenstein_runtime>  (672) 
8.068130731582642

>  <fragmenstein_outcome>  (672) 
too moved

>  <fragmenstein_mode>  (672) 
expansion

>  <fragmenstein_error>  (672) 


$$$$
C35601-P44
     RDKit          3D

 52 53  0  0  0  0  0  0  0  0999 V2000
   -0.0901   -8.5381   38.4416 C   0  0  0  0  0  0  0  0  0  0  0  0
   -0.1705   -9.0876   37.0244 C   0  0  0  0  0  0  0  0  0  0  0  0
   -1.4466   -8.6556   36.2843 C   0  0  0  0  0  0  0  0  0  0  0  0
   -1.4994   -7.1547   36.0007 C   0  0  0  0  0  0  0  0  0  0  0  0
   -1.6497   -9.4860   34.9989 C   0  0  0  0  0  0  0  0  0  0  0  0
   -2.5909  -10.2251   34.9442 O   0  0  0  0  0  0  0  0  0  0  0  0
   -0.5969   -9.2403   34.0584 N   0  0  0  0  0  0  0  0  0  0  0  0
   -0.3913   -9.7333   32.7148 C   0  0  0  0  0  0  0  0  0  0  0  0
   -1.2736   -8.9868   31.6829 C   0  0  0  0  0  0  0  0  0  0  0  0
   -2.3390   -8.5309   31.9967 O   0  0  0  0  0  0  0  0  0  0  0  0
   -0.6263   -9.0470   30.4006 N   0  0  0  0  0  0  0  0  0  0  0  0
    0.2046   -7.8627   30.2049 C   0  0  0  0  0  0  0  0  0  0  0  0
   -0.7001   -6.6639   30.2993 C   0  0  0  0  0  0  0  0  0  0  0  0
   -2.0433   -6.9384   29.4931 C   0  0  0  0  0  0  0  0  0  0  0  0
   -2.8511   -7.5928   28.3232 C   0  0  0  0  0  0  0  0  0  0  0  0
   -4.8662   -8.1751   27.7336 C   0  0  0  0  0  0  0  0  0  0  0  0
   -6.1976   -9.6784   27.1292 N   0  0  0  0  0  0  0  0  0  0  0  0
   -5.9020  -11.6187   26.7930 C   0  0  0  0  0  0  0  0  0  0  0  0
   -4.8028  -11.9915   26.8325 O   0  0  0  0  0  0  0  0  0  0  0  0
   -7.0284  -13.0506   26.6328 C   0  0  0  0  0  0  0  0  0  0  0  0
   -7.5062  -14.4819   26.0064 C   0  0  0  0  0  0  0  0  0  0  0  0
   -8.2601  -15.2298   26.8759 C   0  0  0  0  0  0  0  0  0  0  0  0
   -8.1037  -14.5372   27.9982 N   0  0  0  0  0  0  0  0  0  0  0  0
   -7.2039  -13.5571   27.9102 N   0  0  0  0  0  0  0  0  0  0  0  0
   -1.1664   -8.6244   28.8889 C   0  0  0  0  0  0  0  0  0  0  0  0
    0.7991   -8.9294   38.9462 H   0  0  0  0  0  0  0  0  0  0  0  0
   -0.0202   -7.4463   38.4437 H   0  0  0  0  0  0  0  0  0  0  0  0
   -0.9673   -8.8307   39.0272 H   0  0  0  0  0  0  0  0  0  0  0  0
    0.7237   -8.7734   36.4732 H   0  0  0  0  0  0  0  0  0  0  0  0
   -0.1337  -10.1833   37.0728 H   0  0  0  0  0  0  0  0  0  0  0  0
   -2.3078   -8.8920   36.9256 H   0  0  0  0  0  0  0  0  0  0  0  0
   -1.6650   -6.5898   36.9237 H   0  0  0  0  0  0  0  0  0  0  0  0
   -2.3179   -6.9181   35.3146 H   0  0  0  0  0  0  0  0  0  0  0  0
   -0.5718   -6.7870   35.5502 H   0  0  0  0  0  0  0  0  0  0  0  0
   -0.0171   -8.4887   34.4027 H   0  0  0  0  0  0  0  0  0  0  0  0
   -0.6549  -10.7933   32.6919 H   0  0  0  0  0  0  0  0  0  0  0  0
    0.6713   -9.6214   32.4843 H   0  0  0  0  0  0  0  0  0  0  0  0
    0.8730   -7.8028   31.0771 H   0  0  0  0  0  0  0  0  0  0  0  0
    0.9339   -7.9194   29.3855 H   0  0  0  0  0  0  0  0  0  0  0  0
   -0.1904   -5.7258   30.0332 H   0  0  0  0  0  0  0  0  0  0  0  0
   -0.9689   -6.4611   31.3474 H   0  0  0  0  0  0  0  0  0  0  0  0
   -2.6680   -7.1219   30.3358 H   0  0  0  0  0  0  0  0  0  0  0  0
   -1.8081   -6.1137   28.8151 H   0  0  0  0  0  0  0  0  0  0  0  0
   -2.5505   -7.1684   27.3519 H   0  0  0  0  0  0  0  0  0  0  0  0
   -5.3430   -7.8703   28.6518 H   0  0  0  0  0  0  0  0  0  0  0  0
   -4.2656   -8.0988   26.9147 H   0  0  0  0  0  0  0  0  0  0  0  0
   -7.2064   -9.4948   27.1517 H   0  0  0  0  0  0  0  0  0  0  0  0
   -7.3919  -14.8807   25.0034 H   0  0  0  0  0  0  0  0  0  0  0  0
   -8.8001  -16.1606   26.7962 H   0  0  0  0  0  0  0  0  0  0  0  0
   -8.4765  -14.7417   28.9184 H   0  0  0  0  0  0  0  0  0  0  0  0
   -1.1909   -9.7295   28.6916 H   0  0  0  0  0  0  0  0  0  0  0  0
   -0.3525   -8.5206   28.1600 H   0  0  0  0  0  0  0  0  0  0  0  0
  1  2  1  0
  2  3  1  0
  3  4  1  0
  3  5  1  0
  5  6  2  0
  5  7  1  0
  7  8  1  0
  8  9  1  0
  9 10  2  0
  9 11  1  0
 11 12  1  0
 12 13  1  0
 13 14  1  0
 14 15  1  0
 15 16  1  0
 16 17  1  0
 17 18  1  0
 18 19  2  0
 18 20  1  0
 20 21  1  0
 21 22  2  0
 22 23  1  0
 23 24  1  0
 15 25  1  0
 25 11  1  0
 24 20  2  0
  1 26  1  0
  1 27  1  0
  1 28  1  0
  2 29  1  0
  2 30  1  0
  3 31  1  0
  4 32  1  0
  4 33  1  0
  4 34  1  0
  7 35  1  0
  8 36  1  0
  8 37  1  0
 12 38  1  0
 12 39  1  0
 13 40  1  0
 13 41  1  0
 14 42  1  0
 14 43  1  0
 15 44  1  0
 16 45  1  0
 16 46  1  0
 17 47  1  0
 21 48  1  0
 22 49  1  0
 23 50  1  0
 25 51  1  0
 25 52  1  0
M  END
>  <Energy>  (673) 
886.11475739769082

>  <compound_id>  (673) 
35601

>  <target_id>  (673) 
1

>  <reference_id>  (673) 
44

>  <inspiration_ids>  (673) 
[44, 96]

>  <energy_score>  (673) 
790.677301166967

>  <distance_score>  (673) 
10.652962601756629

>  <path>  (673) 
/opt/xchem-fragalysis-2/maxwin/BulkDock/SCRATCH/511013/C35601-P44/C35601-P44.minimised.mol

>  <scratch_subdir>  (673) 
/opt/xchem-fragalysis-2/maxwin/BulkDock/SCRATCH/511013/C35601-P44

>  <fragmenstein_runtime>  (673) 
50.12788510322571

>  <fragmenstein_outcome>  (673) 
too moved

>  <fragmenstein_mode>  (673) 
expansion

>  <fragmenstein_error>  (673) 


$$$$
C35601-P96
     RDKit          3D

 52 53  0  0  0  0  0  0  0  0999 V2000
   -9.9599    4.2371   32.3833 C   0  0  0  0  0  0  0  0  0  0  0  0
   -8.8654    3.7106   31.4662 C   0  0  0  0  0  0  0  0  0  0  0  0
   -9.2557    2.4199   30.7208 C   0  0  0  0  0  0  0  0  0  0  0  0
  -10.4146    2.6564   29.7488 C   0  0  0  0  0  0  0  0  0  0  0  0
   -8.0338    1.8334   29.9712 C   0  0  0  0  0  0  0  0  0  0  0  0
   -7.0518    2.4996   29.8075 O   0  0  0  0  0  0  0  0  0  0  0  0
   -8.3319    0.4901   29.5675 N   0  0  0  0  0  0  0  0  0  0  0  0
   -7.5118   -0.5116   28.9225 C   0  0  0  0  0  0  0  0  0  0  0  0
   -8.3474   -1.2783   27.7909 C   0  0  0  0  0  0  0  0  0  0  0  0
   -9.5403   -1.0888   27.6690 O   0  0  0  0  0  0  0  0  0  0  0  0
   -7.4415   -2.2439   27.0880 N   0  0  0  0  0  0  0  0  0  0  0  0
   -6.8879   -1.6575   25.9150 C   0  0  0  0  0  0  0  0  0  0  0  0
   -7.7043   -1.5903   24.7344 C   0  0  0  0  0  0  0  0  0  0  0  0
   -9.4209   -2.3142   24.6951 C   0  0  0  0  0  0  0  0  0  0  0  0
   -9.0501   -4.1056   25.0398 C   0  0  0  0  0  0  0  0  0  0  0  0
   -8.4025   -5.7100   23.9634 C   0  0  0  0  0  0  0  0  0  0  0  0
   -8.4247   -7.7182   24.7684 N   0  0  0  0  0  0  0  0  0  0  0  0
   -8.3128   -9.4406   23.9303 C   0  0  0  0  0  0  0  0  0  0  0  0
   -8.1068   -9.5483   22.7591 O   0  0  0  0  0  0  0  0  0  0  0  0
   -8.6314  -10.9786   24.5623 C   0  0  0  0  0  0  0  0  0  0  0  0
   -8.0807  -12.0846   25.3165 C   0  0  0  0  0  0  0  0  0  0  0  0
   -8.8846  -13.1950   25.2053 C   0  0  0  0  0  0  0  0  0  0  0  0
   -9.8548  -12.8008   24.3618 N   0  0  0  0  0  0  0  0  0  0  0  0
   -9.7250  -11.5405   23.9329 N   0  0  0  0  0  0  0  0  0  0  0  0
   -7.7520   -3.3717   26.0734 C   0  0  0  0  0  0  0  0  0  0  0  0
  -10.2805    3.4691   33.0942 H   0  0  0  0  0  0  0  0  0  0  0  0
   -9.5895    5.0940   32.9553 H   0  0  0  0  0  0  0  0  0  0  0  0
  -10.8331    4.5721   31.8161 H   0  0  0  0  0  0  0  0  0  0  0  0
   -8.5889    4.4940   30.7493 H   0  0  0  0  0  0  0  0  0  0  0  0
   -7.9725    3.5190   32.0749 H   0  0  0  0  0  0  0  0  0  0  0  0
   -9.5635    1.6787   31.4708 H   0  0  0  0  0  0  0  0  0  0  0  0
  -10.6231    1.7754   29.1335 H   0  0  0  0  0  0  0  0  0  0  0  0
  -10.1916    3.4838   29.0672 H   0  0  0  0  0  0  0  0  0  0  0  0
  -11.3360    2.9001   30.2865 H   0  0  0  0  0  0  0  0  0  0  0  0
   -9.2329    0.2211   29.9514 H   0  0  0  0  0  0  0  0  0  0  0  0
   -7.2296   -1.2000   29.7188 H   0  0  0  0  0  0  0  0  0  0  0  0
   -6.5559   -0.1077   28.5917 H   0  0  0  0  0  0  0  0  0  0  0  0
   -6.0196   -1.0405   25.9663 H   0  0  0  0  0  0  0  0  0  0  0  0
   -6.1830   -2.2764   25.5592 H   0  0  0  0  0  0  0  0  0  0  0  0
   -7.3238   -1.3085   23.6549 H   0  0  0  0  0  0  0  0  0  0  0  0
   -6.8303   -2.0255   24.2232 H   0  0  0  0  0  0  0  0  0  0  0  0
  -10.0400   -2.1633   23.7949 H   0  0  0  0  0  0  0  0  0  0  0  0
  -10.0183   -1.8553   25.4935 H   0  0  0  0  0  0  0  0  0  0  0  0
  -10.1191   -4.2963   25.1590 H   0  0  0  0  0  0  0  0  0  0  0  0
   -8.0579   -5.6798   22.8771 H   0  0  0  0  0  0  0  0  0  0  0  0
   -9.3639   -5.3449   23.5944 H   0  0  0  0  0  0  0  0  0  0  0  0
   -8.5186   -7.8431   25.7698 H   0  0  0  0  0  0  0  0  0  0  0  0
   -7.2602  -12.0508   25.9856 H   0  0  0  0  0  0  0  0  0  0  0  0
   -8.8479  -14.1760   25.6549 H   0  0  0  0  0  0  0  0  0  0  0  0
  -10.6439  -13.3359   24.0179 H   0  0  0  0  0  0  0  0  0  0  0  0
   -7.4053   -4.2527   26.6180 H   0  0  0  0  0  0  0  0  0  0  0  0
   -8.6300   -2.7561   26.2385 H   0  0  0  0  0  0  0  0  0  0  0  0
  1  2  1  0
  2  3  1  0
  3  4  1  0
  3  5  1  0
  5  6  2  0
  5  7  1  0
  7  8  1  0
  8  9  1  0
  9 10  2  0
  9 11  1  0
 11 12  1  0
 12 13  1  0
 13 14  1  0
 14 15  1  0
 15 16  1  0
 16 17  1  0
 17 18  1  0
 18 19  2  0
 18 20  1  0
 20 21  1  0
 21 22  2  0
 22 23  1  0
 23 24  1  0
 15 25  1  0
 25 11  1  0
 24 20  2  0
  1 26  1  0
  1 27  1  0
  1 28  1  0
  2 29  1  0
  2 30  1  0
  3 31  1  0
  4 32  1  0
  4 33  1  0
  4 34  1  0
  7 35  1  0
  8 36  1  0
  8 37  1  0
 12 38  1  0
 12 39  1  0
 13 40  1  0
 13 41  1  0
 14 42  1  0
 14 43  1  0
 15 44  1  0
 16 45  1  0
 16 46  1  0
 17 47  1  0
 21 48  1  0
 22 49  1  0
 23 50  1  0
 25 51  1  0
 25 52  1  0
M  END
>  <Energy>  (674) 
831.23472747504229

>  <compound_id>  (674) 
35601

>  <target_id>  (674) 
1

>  <reference_id>  (674) 
96

>  <inspiration_ids>  (674) 
[44, 96]

>  <energy_score>  (674) 
735.7972712443013

>  <distance_score>  (674) 
10.695570106021167

>  <path>  (674) 
/opt/xchem-fragalysis-2/maxwin/BulkDock/SCRATCH/511013/C35601-P96/C35601-P96.minimised.mol

>  <scratch_subdir>  (674) 
/opt/xchem-fragalysis-2/maxwin/BulkDock/SCRATCH/511013/C35601-P96

>  <fragmenstein_runtime>  (674) 
34.008161544799805

>  <fragmenstein_outcome>  (674) 
too moved

>  <fragmenstein_mode>  (674) 
expansion

>  <fragmenstein_error>  (674) 


$$$$
C35602-P44
     RDKit          3D

 52 53  0  0  0  0  0  0  0  0999 V2000
   -0.0403   -2.2068   30.7142 C   0  0  0  0  0  0  0  0  0  0  0  0
   -1.5498   -2.0521   30.8180 C   0  0  0  0  0  0  0  0  0  0  0  0
   -2.0701   -2.0541   32.2643 C   0  0  0  0  0  0  0  0  0  0  0  0
   -1.5551   -0.8726   33.0795 C   0  0  0  0  0  0  0  0  0  0  0  0
   -3.5664   -2.0958   32.2323 C   0  0  0  0  0  0  0  0  0  0  0  0
   -4.3138   -0.7235   32.6422 O   0  0  0  0  0  0  0  0  0  0  0  0
   -4.3899   -2.7299   31.9315 N   0  0  0  0  0  0  0  0  0  0  0  0
   -5.9110   -2.8015   31.8568 C   0  0  0  0  0  0  0  0  0  0  0  0
   -6.7538   -3.5179   30.6685 C   0  0  0  0  0  0  0  0  0  0  0  0
   -7.9446   -3.2812   30.5754 O   0  0  0  0  0  0  0  0  0  0  0  0
   -5.8296   -4.5526   29.8460 N   0  0  0  0  0  0  0  0  0  0  0  0
   -5.2907   -3.9155   28.7158 C   0  0  0  0  0  0  0  0  0  0  0  0
   -5.4494   -2.9526   27.7102 C   0  0  0  0  0  0  0  0  0  0  0  0
   -7.2768   -2.9102   27.6464 C   0  0  0  0  0  0  0  0  0  0  0  0
   -7.6559   -4.6723   27.8194 C   0  0  0  0  0  0  0  0  0  0  0  0
   -6.2901   -5.8874   28.5213 C   0  0  0  0  0  0  0  0  0  0  0  0
   -5.4697   -7.9046   27.9735 C   0  0  0  0  0  0  0  0  0  0  0  0
   -6.4264   -9.5921   27.2951 N   0  0  0  0  0  0  0  0  0  0  0  0
   -5.7351  -11.4744   26.9227 C   0  0  0  0  0  0  0  0  0  0  0  0
   -4.5618  -11.8409   26.9521 O   0  0  0  0  0  0  0  0  0  0  0  0
   -6.8913  -12.8997   26.7020 C   0  0  0  0  0  0  0  0  0  0  0  0
   -7.2058  -13.7466   27.9961 C   0  0  0  0  0  0  0  0  0  0  0  0
   -8.0216  -14.8382   27.8361 C   0  0  0  0  0  0  0  0  0  0  0  0
   -8.0577  -14.8721   26.5128 N   0  0  0  0  0  0  0  0  0  0  0  0
   -7.2129  -13.9927   25.9535 N   0  0  0  0  0  0  0  0  0  0  0  0
    0.4820   -1.3448   31.1391 H   0  0  0  0  0  0  0  0  0  0  0  0
    0.2981   -3.1094   31.2325 H   0  0  0  0  0  0  0  0  0  0  0  0
    0.2565   -2.2884   29.6635 H   0  0  0  0  0  0  0  0  0  0  0  0
   -1.8552   -1.1279   30.3108 H   0  0  0  0  0  0  0  0  0  0  0  0
   -2.0147   -2.8726   30.2588 H   0  0  0  0  0  0  0  0  0  0  0  0
   -1.7468   -2.9792   32.7590 H   0  0  0  0  0  0  0  0  0  0  0  0
   -1.7646    0.0797   32.5807 H   0  0  0  0  0  0  0  0  0  0  0  0
   -2.0280   -0.8428   34.0674 H   0  0  0  0  0  0  0  0  0  0  0  0
   -0.4743   -0.9412   33.2369 H   0  0  0  0  0  0  0  0  0  0  0  0
   -4.7989   -3.5488   31.5423 H   0  0  0  0  0  0  0  0  0  0  0  0
   -6.3251   -1.7924   31.9709 H   0  0  0  0  0  0  0  0  0  0  0  0
   -6.1903   -3.2821   32.8044 H   0  0  0  0  0  0  0  0  0  0  0  0
   -4.4144   -3.3517   28.9195 H   0  0  0  0  0  0  0  0  0  0  0  0
   -6.1706   -3.4860   28.9452 H   0  0  0  0  0  0  0  0  0  0  0  0
   -4.6470   -2.2039   27.7146 H   0  0  0  0  0  0  0  0  0  0  0  0
   -4.9835   -3.0931   26.7726 H   0  0  0  0  0  0  0  0  0  0  0  0
   -7.7345   -2.3910   26.8013 H   0  0  0  0  0  0  0  0  0  0  0  0
   -7.7395   -2.3436   28.4694 H   0  0  0  0  0  0  0  0  0  0  0  0
   -8.3621   -5.0713   27.0894 H   0  0  0  0  0  0  0  0  0  0  0  0
   -8.2252   -4.1331   28.5326 H   0  0  0  0  0  0  0  0  0  0  0  0
   -6.5359   -6.4539   29.3883 H   0  0  0  0  0  0  0  0  0  0  0  0
   -5.5561   -8.1621   29.0051 H   0  0  0  0  0  0  0  0  0  0  0  0
   -4.4311   -7.8642   27.6718 H   0  0  0  0  0  0  0  0  0  0  0  0
   -7.4484   -9.5751   27.2848 H   0  0  0  0  0  0  0  0  0  0  0  0
   -6.6985  -13.6058   28.9319 H   0  0  0  0  0  0  0  0  0  0  0  0
   -8.4213  -15.5901   28.4986 H   0  0  0  0  0  0  0  0  0  0  0  0
   -8.4878  -15.5634   25.9089 H   0  0  0  0  0  0  0  0  0  0  0  0
  1  2  1  0
  2  3  1  0
  3  4  1  0
  3  5  1  0
  5  6  2  0
  5  7  1  0
  7  8  1  0
  8  9  1  0
  9 10  2  0
  9 11  1  0
 11 12  1  0
 12 13  1  0
 13 14  1  0
 14 15  1  0
 15 16  1  0
 16 17  1  0
 17 18  1  0
 18 19  1  0
 19 20  2  0
 19 21  1  0
 21 22  1  0
 22 23  2  0
 23 24  1  0
 24 25  1  0
 16 11  1  0
 25 21  2  0
  1 26  1  0
  1 27  1  0
  1 28  1  0
  2 29  1  0
  2 30  1  0
  3 31  1  0
  4 32  1  0
  4 33  1  0
  4 34  1  0
  7 35  1  0
  8 36  1  0
  8 37  1  0
 12 38  1  0
 12 39  1  0
 13 40  1  0
 13 41  1  0
 14 42  1  0
 14 43  1  0
 15 44  1  0
 15 45  1  0
 16 46  1  0
 17 47  1  0
 17 48  1  0
 18 49  1  0
 22 50  1  0
 23 51  1  0
 24 52  1  0
M  END
>  <Energy>  (675) 
1191.6589145709006

>  <compound_id>  (675) 
35602

>  <target_id>  (675) 
1

>  <reference_id>  (675) 
44

>  <inspiration_ids>  (675) 
[44, 96]

>  <energy_score>  (675) 
1087.790281466955

>  <distance_score>  (675) 
9.477018522918117

>  <path>  (675) 
/opt/xchem-fragalysis-2/maxwin/BulkDock/SCRATCH/511013/C35602-P44/C35602-P44.minimised.mol

>  <scratch_subdir>  (675) 
/opt/xchem-fragalysis-2/maxwin/BulkDock/SCRATCH/511013/C35602-P44

>  <fragmenstein_runtime>  (675) 
43.92323350906372

>  <fragmenstein_outcome>  (675) 
too moved

>  <fragmenstein_mode>  (675) 
expansion

>  <fragmenstein_error>  (675) 


$$$$
C35602-P96
     RDKit          3D

 52 53  0  0  0  0  0  0  0  0999 V2000
    0.5651   -5.2163   35.7021 C   0  0  0  0  0  0  0  0  0  0  0  0
    0.4395   -6.4686   36.5603 C   0  0  0  0  0  0  0  0  0  0  0  0
   -0.7699   -6.4242   37.5099 C   0  0  0  0  0  0  0  0  0  0  0  0
   -0.8128   -7.6560   38.4149 C   0  0  0  0  0  0  0  0  0  0  0  0
   -2.1117   -6.2235   36.7741 C   0  0  0  0  0  0  0  0  0  0  0  0
   -2.7256   -5.2177   36.9846 O   0  0  0  0  0  0  0  0  0  0  0  0
   -2.3896   -7.3204   35.9045 N   0  0  0  0  0  0  0  0  0  0  0  0
   -3.4413   -7.5197   34.9397 C   0  0  0  0  0  0  0  0  0  0  0  0
   -2.8058   -7.4989   33.5373 C   0  0  0  0  0  0  0  0  0  0  0  0
   -1.7335   -8.0094   33.3507 O   0  0  0  0  0  0  0  0  0  0  0  0
   -3.7306   -6.8950   32.6116 N   0  0  0  0  0  0  0  0  0  0  0  0
   -3.4527   -5.4526   32.4949 C   0  0  0  0  0  0  0  0  0  0  0  0
   -2.2147   -4.7646   31.9632 C   0  0  0  0  0  0  0  0  0  0  0  0
   -2.3443   -4.5723   30.4942 C   0  0  0  0  0  0  0  0  0  0  0  0
   -3.1138   -5.7387   29.9458 C   0  0  0  0  0  0  0  0  0  0  0  0
   -3.6989   -6.8055   30.9257 C   0  0  0  0  0  0  0  0  0  0  0  0
   -5.2297   -7.5837   30.2842 C   0  0  0  0  0  0  0  0  0  0  0  0
   -5.9537   -9.2408   29.7604 N   0  0  0  0  0  0  0  0  0  0  0  0
   -5.3869  -10.3958   28.6944 C   0  0  0  0  0  0  0  0  0  0  0  0
   -4.3932  -10.3619   27.9963 O   0  0  0  0  0  0  0  0  0  0  0  0
   -6.4027  -11.9081   28.4168 C   0  0  0  0  0  0  0  0  0  0  0  0
   -7.4055  -12.3450   27.1342 C   0  0  0  0  0  0  0  0  0  0  0  0
   -7.5987  -13.6817   26.9771 C   0  0  0  0  0  0  0  0  0  0  0  0
   -6.5136  -14.0684   27.6881 N   0  0  0  0  0  0  0  0  0  0  0  0
   -6.0992  -13.1545   28.8424 N   0  0  0  0  0  0  0  0  0  0  0  0
    0.6156   -4.3172   36.3242 H   0  0  0  0  0  0  0  0  0  0  0  0
    1.4782   -5.2636   35.1001 H   0  0  0  0  0  0  0  0  0  0  0  0
   -0.2806   -5.1148   35.0148 H   0  0  0  0  0  0  0  0  0  0  0  0
    0.3981   -7.3443   35.9028 H   0  0  0  0  0  0  0  0  0  0  0  0
    1.3552   -6.5722   37.1558 H   0  0  0  0  0  0  0  0  0  0  0  0
   -0.6478   -5.5507   38.1661 H   0  0  0  0  0  0  0  0  0  0  0  0
    0.0610   -7.6776   39.0749 H   0  0  0  0  0  0  0  0  0  0  0  0
   -1.7105   -7.6463   39.0425 H   0  0  0  0  0  0  0  0  0  0  0  0
   -0.8182   -8.5890   37.8421 H   0  0  0  0  0  0  0  0  0  0  0  0
   -1.6055   -7.9612   35.9206 H   0  0  0  0  0  0  0  0  0  0  0  0
   -3.8862   -8.5042   35.1077 H   0  0  0  0  0  0  0  0  0  0  0  0
   -4.1984   -6.7410   35.0623 H   0  0  0  0  0  0  0  0  0  0  0  0
   -4.3852   -4.9261   32.3889 H   0  0  0  0  0  0  0  0  0  0  0  0
   -3.3224   -5.1978   33.5639 H   0  0  0  0  0  0  0  0  0  0  0  0
   -2.0878   -3.7842   32.4396 H   0  0  0  0  0  0  0  0  0  0  0  0
   -1.3401   -5.3382   32.2279 H   0  0  0  0  0  0  0  0  0  0  0  0
   -2.8720   -3.6375   30.2848 H   0  0  0  0  0  0  0  0  0  0  0  0
   -1.3685   -4.4705   30.0133 H   0  0  0  0  0  0  0  0  0  0  0  0
   -3.8925   -5.3852   29.2862 H   0  0  0  0  0  0  0  0  0  0  0  0
   -2.4472   -6.2546   29.2512 H   0  0  0  0  0  0  0  0  0  0  0  0
   -2.9358   -7.5665   30.7524 H   0  0  0  0  0  0  0  0  0  0  0  0
   -5.8314   -7.4642   31.1913 H   0  0  0  0  0  0  0  0  0  0  0  0
   -5.6178   -6.7903   29.6463 H   0  0  0  0  0  0  0  0  0  0  0  0
   -6.7548   -9.6013   30.2482 H   0  0  0  0  0  0  0  0  0  0  0  0
   -7.5904  -11.7486   26.2627 H   0  0  0  0  0  0  0  0  0  0  0  0
   -8.0859  -14.2945   26.2335 H   0  0  0  0  0  0  0  0  0  0  0  0
   -6.0179  -14.9565   27.6331 H   0  0  0  0  0  0  0  0  0  0  0  0
  1  2  1  0
  2  3  1  0
  3  4  1  0
  3  5  1  0
  5  6  2  0
  5  7  1  0
  7  8  1  0
  8  9  1  0
  9 10  2  0
  9 11  1  0
 11 12  1  0
 12 13  1  0
 13 14  1  0
 14 15  1  0
 15 16  1  0
 16 17  1  0
 17 18  1  0
 18 19  1  0
 19 20  2  0
 19 21  1  0
 21 22  1  0
 22 23  2  0
 23 24  1  0
 24 25  1  0
 16 11  1  0
 25 21  2  0
  1 26  1  0
  1 27  1  0
  1 28  1  0
  2 29  1  0
  2 30  1  0
  3 31  1  0
  4 32  1  0
  4 33  1  0
  4 34  1  0
  7 35  1  0
  8 36  1  0
  8 37  1  0
 12 38  1  0
 12 39  1  0
 13 40  1  0
 13 41  1  0
 14 42  1  0
 14 43  1  0
 15 44  1  0
 15 45  1  0
 16 46  1  0
 17 47  1  0
 17 48  1  0
 18 49  1  0
 22 50  1  0
 23 51  1  0
 24 52  1  0
M  END
>  <Energy>  (676) 
365.47919215673681

>  <compound_id>  (676) 
35602

>  <target_id>  (676) 
1

>  <reference_id>  (676) 
96

>  <inspiration_ids>  (676) 
[44, 96]

>  <energy_score>  (676) 
261.61055905280205

>  <distance_score>  (676) 
10.697773124328046

>  <path>  (676) 
/opt/xchem-fragalysis-2/maxwin/BulkDock/SCRATCH/511013/C35602-P96/C35602-P96.minimised.mol

>  <scratch_subdir>  (676) 
/opt/xchem-fragalysis-2/maxwin/BulkDock/SCRATCH/511013/C35602-P96

>  <fragmenstein_runtime>  (676) 
22.763813972473145

>  <fragmenstein_outcome>  (676) 
too moved

>  <fragmenstein_mode>  (676) 
expansion

>  <fragmenstein_error>  (676) 


$$$$
C35605-P44
     RDKit          3D

 48 49  0  0  0  0  0  0  0  0999 V2000
   -2.2735   -7.6402   33.8208 C   0  0  0  0  0  0  0  0  0  0  0  0
   -2.6799   -7.3859   32.2990 C   0  0  0  0  0  0  0  0  0  0  0  0
   -3.7143   -8.5421   31.3514 C   0  0  0  0  0  0  0  0  0  0  0  0
   -3.0433   -9.4881   31.0781 O   0  0  0  0  0  0  0  0  0  0  0  0
   -5.5443   -8.7093   30.6795 N   0  0  0  0  0  0  0  0  0  0  0  0
   -5.6676   -7.9986   29.0186 C   0  0  0  0  0  0  0  0  0  0  0  0
   -6.5299  -10.3196   29.7135 C   0  0  0  0  0  0  0  0  0  0  0  0
   -6.2860  -12.2411   28.6083 C   0  0  0  0  0  0  0  0  0  0  0  0
   -6.9117  -14.1816   29.0240 N   0  0  0  0  0  0  0  0  0  0  0  0
   -8.1586  -15.4562   28.0895 C   0  0  0  0  0  0  0  0  0  0  0  0
   -8.7350  -14.9963   27.1188 O   0  0  0  0  0  0  0  0  0  0  0  0
   -8.8744  -17.4028   28.4738 C   0  0  0  0  0  0  0  0  0  0  0  0
  -10.7546  -18.2624   29.1876 C   0  0  0  0  0  0  0  0  0  0  0  0
  -10.7343  -20.0763   29.5023 C   0  0  0  0  0  0  0  0  0  0  0  0
   -9.4144  -19.8729   28.3288 N   0  0  0  0  0  0  0  0  0  0  0  0
   -8.5385  -18.6146   28.2711 N   0  0  0  0  0  0  0  0  0  0  0  0
   -1.6396   -6.3426   31.6289 N   0  0  0  0  0  0  0  0  0  0  0  0
   -0.4944   -6.9209   30.9029 C   0  0  0  0  0  0  0  0  0  0  0  0
    0.6008   -5.8589   30.5865 C   0  0  0  0  0  0  0  0  0  0  0  0
    0.0340   -4.4445   30.4436 C   0  0  0  0  0  0  0  0  0  0  0  0
   -0.6974   -4.0531   31.7350 C   0  0  0  0  0  0  0  0  0  0  0  0
   -1.8820   -3.3070   31.4363 O   0  0  0  0  0  0  0  0  0  0  0  0
   -1.0920   -5.3061   32.5617 C   0  0  0  0  0  0  0  0  0  0  0  0
   -2.8676   -8.4504   34.2572 H   0  0  0  0  0  0  0  0  0  0  0  0
   -2.3683   -6.7619   34.4622 H   0  0  0  0  0  0  0  0  0  0  0  0
   -1.2182   -7.9374   33.9104 H   0  0  0  0  0  0  0  0  0  0  0  0
   -1.9188   -8.1600   32.0968 H   0  0  0  0  0  0  0  0  0  0  0  0
   -6.4002   -8.7067   28.6573 H   0  0  0  0  0  0  0  0  0  0  0  0
   -4.6133   -7.7474   29.0413 H   0  0  0  0  0  0  0  0  0  0  0  0
   -5.2341   -8.2054   28.0215 H   0  0  0  0  0  0  0  0  0  0  0  0
   -6.2504  -10.8739   30.6077 H   0  0  0  0  0  0  0  0  0  0  0  0
   -7.5391   -9.9411   29.6513 H   0  0  0  0  0  0  0  0  0  0  0  0
   -6.2749  -12.3194   27.4657 H   0  0  0  0  0  0  0  0  0  0  0  0
   -5.2818  -12.2342   29.1323 H   0  0  0  0  0  0  0  0  0  0  0  0
   -6.4217  -14.6891   29.7589 H   0  0  0  0  0  0  0  0  0  0  0  0
  -11.7410  -17.7443   29.0913 H   0  0  0  0  0  0  0  0  0  0  0  0
  -11.4777  -20.8463   29.2487 H   0  0  0  0  0  0  0  0  0  0  0  0
   -9.6871  -20.5119   27.6087 H   0  0  0  0  0  0  0  0  0  0  0  0
   -0.0054   -7.7120   31.4865 H   0  0  0  0  0  0  0  0  0  0  0  0
   -0.8725   -7.3922   29.9943 H   0  0  0  0  0  0  0  0  0  0  0  0
    1.3297   -5.8540   31.4094 H   0  0  0  0  0  0  0  0  0  0  0  0
    1.1830   -6.1453   29.7068 H   0  0  0  0  0  0  0  0  0  0  0  0
    0.8475   -3.7344   30.2553 H   0  0  0  0  0  0  0  0  0  0  0  0
   -0.6289   -4.3847   29.5738 H   0  0  0  0  0  0  0  0  0  0  0  0
   -0.0565   -3.4125   32.3510 H   0  0  0  0  0  0  0  0  0  0  0  0
   -1.6630   -2.6872   30.7154 H   0  0  0  0  0  0  0  0  0  0  0  0
   -0.2284   -5.7033   33.1114 H   0  0  0  0  0  0  0  0  0  0  0  0
   -1.8073   -4.9914   33.3277 H   0  0  0  0  0  0  0  0  0  0  0  0
  1  2  1  0
  2  3  1  0
  3  4  2  0
  3  5  1  0
  5  6  1  0
  5  7  1  0
  7  8  1  0
  8  9  1  0
  9 10  1  0
 10 11  2  0
 10 12  1  0
 12 13  1  0
 13 14  2  0
 14 15  1  0
 15 16  1  0
  2 17  1  0
 17 18  1  0
 18 19  1  0
 19 20  1  0
 20 21  1  0
 21 22  1  0
 21 23  1  0
 16 12  2  0
 23 17  1  0
  1 24  1  0
  1 25  1  0
  1 26  1  0
  2 27  1  0
  6 28  1  0
  6 29  1  0
  6 30  1  0
  7 31  1  0
  7 32  1  0
  8 33  1  0
  8 34  1  0
  9 35  1  0
 13 36  1  0
 14 37  1  0
 15 38  1  0
 18 39  1  0
 18 40  1  0
 19 41  1  0
 19 42  1  0
 20 43  1  0
 20 44  1  0
 21 45  1  0
 22 46  1  0
 23 47  1  0
 23 48  1  0
M  END
>  <Energy>  (677) 
1528.3542765850916

>  <compound_id>  (677) 
35605

>  <target_id>  (677) 
1

>  <reference_id>  (677) 
44

>  <inspiration_ids>  (677) 
[44, 96]

>  <energy_score>  (677) 
1386.4581700448832

>  <distance_score>  (677) 
7.9782152819378584

>  <path>  (677) 
/opt/xchem-fragalysis-2/maxwin/BulkDock/SCRATCH/511013/C35605-P44/C35605-P44.minimised.mol

>  <scratch_subdir>  (677) 
/opt/xchem-fragalysis-2/maxwin/BulkDock/SCRATCH/511013/C35605-P44

>  <fragmenstein_runtime>  (677) 
19.641448736190796

>  <fragmenstein_outcome>  (677) 
too moved

>  <fragmenstein_mode>  (677) 
expansion

>  <fragmenstein_error>  (677) 


$$$$
C35605-P96
     RDKit          3D

 48 49  0  0  0  0  0  0  0  0999 V2000
   -2.8338   -6.8508   31.1375 C   0  0  0  0  0  0  0  0  0  0  0  0
   -3.8792   -6.6572   29.9144 C   0  0  0  0  0  0  0  0  0  0  0  0
   -5.2665   -7.7139   30.5544 C   0  0  0  0  0  0  0  0  0  0  0  0
   -5.6923   -7.3710   31.6483 O   0  0  0  0  0  0  0  0  0  0  0  0
   -5.6483   -9.1260   29.5788 N   0  0  0  0  0  0  0  0  0  0  0  0
   -7.0623   -8.7130   28.4429 C   0  0  0  0  0  0  0  0  0  0  0  0
   -6.6645  -10.5904   29.9379 C   0  0  0  0  0  0  0  0  0  0  0  0
   -6.3500  -12.1171   28.5364 C   0  0  0  0  0  0  0  0  0  0  0  0
   -6.3805  -14.0927   28.3317 N   0  0  0  0  0  0  0  0  0  0  0  0
   -7.6524  -15.2710   27.4492 C   0  0  0  0  0  0  0  0  0  0  0  0
   -8.5491  -14.7891   26.7947 O   0  0  0  0  0  0  0  0  0  0  0  0
   -7.9258  -17.2673   27.5935 C   0  0  0  0  0  0  0  0  0  0  0  0
   -7.4775  -19.2080   27.4856 C   0  0  0  0  0  0  0  0  0  0  0  0
   -9.1152  -20.0427   27.9398 C   0  0  0  0  0  0  0  0  0  0  0  0
   -9.6262  -19.1431   28.9029 N   0  0  0  0  0  0  0  0  0  0  0  0
   -9.1099  -17.5867   28.0235 N   0  0  0  0  0  0  0  0  0  0  0  0
   -3.4316   -5.1666   29.6062 N   0  0  0  0  0  0  0  0  0  0  0  0
   -2.3154   -5.0284   28.5980 C   0  0  0  0  0  0  0  0  0  0  0  0
   -1.6686   -3.6230   28.4355 C   0  0  0  0  0  0  0  0  0  0  0  0
   -1.0906   -3.0013   29.6958 C   0  0  0  0  0  0  0  0  0  0  0  0
   -1.5153   -3.7685   30.9348 C   0  0  0  0  0  0  0  0  0  0  0  0
   -1.4217   -2.9021   32.0723 O   0  0  0  0  0  0  0  0  0  0  0  0
   -2.9628   -4.2717   30.7589 C   0  0  0  0  0  0  0  0  0  0  0  0
   -1.8813   -6.3499   30.9895 H   0  0  0  0  0  0  0  0  0  0  0  0
   -2.4732   -7.8641   31.2523 H   0  0  0  0  0  0  0  0  0  0  0  0
   -3.2663   -6.5563   32.0998 H   0  0  0  0  0  0  0  0  0  0  0  0
   -3.3657   -7.3386   29.2438 H   0  0  0  0  0  0  0  0  0  0  0  0
   -7.1818   -8.3629   27.4285 H   0  0  0  0  0  0  0  0  0  0  0  0
   -6.9998   -7.6376   28.6689 H   0  0  0  0  0  0  0  0  0  0  0  0
   -8.1103   -8.6803   28.7075 H   0  0  0  0  0  0  0  0  0  0  0  0
   -7.2017  -11.0839   30.7363 H   0  0  0  0  0  0  0  0  0  0  0  0
   -7.4891   -9.9411   30.2071 H   0  0  0  0  0  0  0  0  0  0  0  0
   -5.3275  -11.7682   28.4881 H   0  0  0  0  0  0  0  0  0  0  0  0
   -7.0119  -11.9391   27.6943 H   0  0  0  0  0  0  0  0  0  0  0  0
   -5.6533  -14.6583   28.7620 H   0  0  0  0  0  0  0  0  0  0  0  0
   -6.5413  -19.7304   27.4781 H   0  0  0  0  0  0  0  0  0  0  0  0
   -9.2343  -21.0910   28.2675 H   0  0  0  0  0  0  0  0  0  0  0  0
  -10.5554  -19.0859   29.3112 H   0  0  0  0  0  0  0  0  0  0  0  0
   -1.5245   -5.7565   28.8103 H   0  0  0  0  0  0  0  0  0  0  0  0
   -2.6981   -5.2303   27.5986 H   0  0  0  0  0  0  0  0  0  0  0  0
   -0.8881   -3.6769   27.6672 H   0  0  0  0  0  0  0  0  0  0  0  0
   -2.4074   -2.9178   28.0504 H   0  0  0  0  0  0  0  0  0  0  0  0
    0.0008   -2.9360   29.6390 H   0  0  0  0  0  0  0  0  0  0  0  0
   -1.4177   -1.9548   29.7641 H   0  0  0  0  0  0  0  0  0  0  0  0
   -0.8590   -4.6051   31.1487 H   0  0  0  0  0  0  0  0  0  0  0  0
   -2.1721   -2.2794   32.0475 H   0  0  0  0  0  0  0  0  0  0  0  0
   -3.3746   -4.5507   31.7339 H   0  0  0  0  0  0  0  0  0  0  0  0
   -3.4149   -3.3199   30.5262 H   0  0  0  0  0  0  0  0  0  0  0  0
  1  2  1  0
  2  3  1  0
  3  4  2  0
  3  5  1  0
  5  6  1  0
  5  7  1  0
  7  8  1  0
  8  9  1  0
  9 10  1  0
 10 11  2  0
 10 12  1  0
 12 13  1  0
 13 14  2  0
 14 15  1  0
 15 16  1  0
  2 17  1  0
 17 18  1  0
 18 19  1  0
 19 20  1  0
 20 21  1  0
 21 22  1  0
 21 23  1  0
 16 12  2  0
 23 17  1  0
  1 24  1  0
  1 25  1  0
  1 26  1  0
  2 27  1  0
  6 28  1  0
  6 29  1  0
  6 30  1  0
  7 31  1  0
  7 32  1  0
  8 33  1  0
  8 34  1  0
  9 35  1  0
 13 36  1  0
 14 37  1  0
 15 38  1  0
 18 39  1  0
 18 40  1  0
 19 41  1  0
 19 42  1  0
 20 43  1  0
 20 44  1  0
 21 45  1  0
 22 46  1  0
 23 47  1  0
 23 48  1  0
M  END
>  <Energy>  (678) 
1125.9677554356156

>  <compound_id>  (678) 
35605

>  <target_id>  (678) 
1

>  <reference_id>  (678) 
96

>  <inspiration_ids>  (678) 
[44, 96]

>  <energy_score>  (678) 
984.0716488953967

>  <distance_score>  (678) 
7.104056934629975

>  <path>  (678) 
/opt/xchem-fragalysis-2/maxwin/BulkDock/SCRATCH/511013/C35605-P96/C35605-P96.minimised.mol

>  <scratch_subdir>  (678) 
/opt/xchem-fragalysis-2/maxwin/BulkDock/SCRATCH/511013/C35605-P96

>  <fragmenstein_runtime>  (678) 
13.968415975570679

>  <fragmenstein_outcome>  (678) 
too moved

>  <fragmenstein_mode>  (678) 
expansion

>  <fragmenstein_error>  (678) 


$$$$
C35607-P44
     RDKit          3D

 47 48  0  0  0  0  0  0  0  0999 V2000
  -11.8924  -13.3714   26.8716 C   0  0  0  0  0  0  0  0  0  0  0  0
  -10.7097  -14.0882   27.5130 C   0  0  0  0  0  0  0  0  0  0  0  0
   -8.6999  -14.0213   27.2362 S   0  0  0  0  0  0  0  0  0  0  0  0
   -8.5501  -15.2536   26.0945 O   0  0  0  0  0  0  0  0  0  0  0  0
   -7.3283  -12.3729   26.4939 C   0  0  0  0  0  0  0  0  0  0  0  0
   -7.2409  -10.5096   25.7314 C   0  0  0  0  0  0  0  0  0  0  0  0
   -7.1507  -10.5769   24.5289 O   0  0  0  0  0  0  0  0  0  0  0  0
   -7.1158   -8.8503   26.6703 N   0  0  0  0  0  0  0  0  0  0  0  0
   -6.6479   -6.8965   25.9963 C   0  0  0  0  0  0  0  0  0  0  0  0
   -6.8511   -5.4267   27.2525 C   0  0  0  0  0  0  0  0  0  0  0  0
   -7.7514   -5.8531   24.7419 C   0  0  0  0  0  0  0  0  0  0  0  0
   -8.8452   -5.0375   25.5881 C   0  0  0  0  0  0  0  0  0  0  0  0
   -8.2426   -3.6800   25.8849 C   0  0  0  0  0  0  0  0  0  0  0  0
   -7.2201   -3.2295   24.8818 N   0  0  0  0  0  0  0  0  0  0  0  0
   -6.5771   -2.1226   25.3327 C   0  0  0  0  0  0  0  0  0  0  0  0
   -6.8383   -0.9652   25.1803 O   0  0  0  0  0  0  0  0  0  0  0  0
   -4.8988   -2.4432   26.2145 C   0  0  0  0  0  0  0  0  0  0  0  0
   -3.5372   -2.1434   25.5987 C   0  0  0  0  0  0  0  0  0  0  0  0
   -2.7627   -1.5464   26.5635 C   0  0  0  0  0  0  0  0  0  0  0  0
   -3.3142   -2.0362   27.6699 N   0  0  0  0  0  0  0  0  0  0  0  0
   -4.5995   -2.6583   27.5120 N   0  0  0  0  0  0  0  0  0  0  0  0
   -8.3465   -3.3861   23.9904 C   0  0  0  0  0  0  0  0  0  0  0  0
   -7.7886   -4.8181   23.4994 C   0  0  0  0  0  0  0  0  0  0  0  0
  -12.4363  -14.0353   26.1895 H   0  0  0  0  0  0  0  0  0  0  0  0
  -12.6869  -13.1870   27.6050 H   0  0  0  0  0  0  0  0  0  0  0  0
  -11.6522  -12.4300   26.3726 H   0  0  0  0  0  0  0  0  0  0  0  0
  -10.8826  -15.1300   27.1866 H   0  0  0  0  0  0  0  0  0  0  0  0
  -10.9198  -14.1207   28.5697 H   0  0  0  0  0  0  0  0  0  0  0  0
   -6.8082  -12.9403   25.7593 H   0  0  0  0  0  0  0  0  0  0  0  0
   -6.5624  -12.5627   27.2367 H   0  0  0  0  0  0  0  0  0  0  0  0
   -7.1318   -9.0298   27.6665 H   0  0  0  0  0  0  0  0  0  0  0  0
   -5.6346   -6.6688   26.1069 H   0  0  0  0  0  0  0  0  0  0  0  0
   -6.5374   -4.4919   26.9020 H   0  0  0  0  0  0  0  0  0  0  0  0
   -6.3378   -5.5042   28.2097 H   0  0  0  0  0  0  0  0  0  0  0  0
   -7.8616   -5.2632   27.6219 H   0  0  0  0  0  0  0  0  0  0  0  0
   -8.0193   -6.6546   24.0214 H   0  0  0  0  0  0  0  0  0  0  0  0
   -9.7621   -4.9536   24.9776 H   0  0  0  0  0  0  0  0  0  0  0  0
   -9.2961   -5.4031   26.5010 H   0  0  0  0  0  0  0  0  0  0  0  0
   -9.0650   -2.9308   25.9695 H   0  0  0  0  0  0  0  0  0  0  0  0
   -7.9153   -3.4522   26.9059 H   0  0  0  0  0  0  0  0  0  0  0  0
   -3.2770   -2.2065   24.5588 H   0  0  0  0  0  0  0  0  0  0  0  0
   -1.8258   -1.0169   26.5857 H   0  0  0  0  0  0  0  0  0  0  0  0
   -2.8077   -2.2229   28.5240 H   0  0  0  0  0  0  0  0  0  0  0  0
   -8.2445   -2.7654   23.1066 H   0  0  0  0  0  0  0  0  0  0  0  0
   -9.4228   -3.2271   24.1806 H   0  0  0  0  0  0  0  0  0  0  0  0
   -6.8188   -4.7505   22.9892 H   0  0  0  0  0  0  0  0  0  0  0  0
   -8.5074   -5.1731   22.7457 H   0  0  0  0  0  0  0  0  0  0  0  0
  1  2  1  0
  2  3  1  0
  3  4  1  0
  3  5  1  0
  5  6  1  0
  6  7  2  0
  6  8  1  0
  8  9  1  0
  9 10  1  0
  9 11  1  0
 11 12  1  0
 12 13  1  0
 13 14  1  0
 14 15  1  0
 15 16  2  0
 15 17  1  0
 17 18  1  0
 18 19  2  0
 19 20  1  0
 20 21  1  0
 14 22  1  0
 22 23  1  0
 23 11  1  0
 21 17  2  0
  1 24  1  0
  1 25  1  0
  1 26  1  0
  2 27  1  0
  2 28  1  0
  5 29  1  0
  5 30  1  0
  8 31  1  0
  9 32  1  0
 10 33  1  0
 10 34  1  0
 10 35  1  0
 11 36  1  0
 12 37  1  0
 12 38  1  0
 13 39  1  0
 13 40  1  0
 18 41  1  0
 19 42  1  0
 20 43  1  0
 22 44  1  0
 22 45  1  0
 23 46  1  0
 23 47  1  0
M  CHG  2   3   1   4  -1
M  END
>  <Energy>  (679) 
852.85832212656283

>  <compound_id>  (679) 
35607

>  <target_id>  (679) 
1

>  <reference_id>  (679) 
44

>  <inspiration_ids>  (679) 
[44, 96]

>  <energy_score>  (679) 
759.848032257536

>  <distance_score>  (679) 
11.240179883006132

>  <path>  (679) 
/opt/xchem-fragalysis-2/maxwin/BulkDock/SCRATCH/511013/C35607-P44/C35607-P44.minimised.mol

>  <scratch_subdir>  (679) 
/opt/xchem-fragalysis-2/maxwin/BulkDock/SCRATCH/511013/C35607-P44

>  <fragmenstein_runtime>  (679) 
31.060099840164185

>  <fragmenstein_outcome>  (679) 
too moved

>  <fragmenstein_mode>  (679) 
expansion

>  <fragmenstein_error>  (679) 


$$$$
C35607-P96
     RDKit          3D

 47 48  0  0  0  0  0  0  0  0999 V2000
   -2.1782  -19.7069   31.4865 C   0  0  0  0  0  0  0  0  0  0  0  0
   -0.8822  -19.0461   31.9112 C   0  0  0  0  0  0  0  0  0  0  0  0
   -1.0616  -17.2280   31.8707 S   0  0  0  0  0  0  0  0  0  0  0  0
   -1.5811  -16.7544   33.3750 O   0  0  0  0  0  0  0  0  0  0  0  0
    0.6990  -16.7566   31.7808 C   0  0  0  0  0  0  0  0  0  0  0  0
    0.8930  -15.3336   31.2068 C   0  0  0  0  0  0  0  0  0  0  0  0
    1.2347  -15.2386   30.0608 O   0  0  0  0  0  0  0  0  0  0  0  0
    0.6538  -14.3197   32.2043 N   0  0  0  0  0  0  0  0  0  0  0  0
    0.6572  -12.8449   32.1084 C   0  0  0  0  0  0  0  0  0  0  0  0
   -0.7022  -12.3936   31.6114 C   0  0  0  0  0  0  0  0  0  0  0  0
    1.8480  -12.2468   31.2987 C   0  0  0  0  0  0  0  0  0  0  0  0
    2.6892  -11.2629   32.1020 C   0  0  0  0  0  0  0  0  0  0  0  0
    3.8807  -10.8545   31.2182 C   0  0  0  0  0  0  0  0  0  0  0  0
    3.6082   -9.8097   30.1505 N   0  0  0  0  0  0  0  0  0  0  0  0
    4.8130   -9.1113   29.8317 C   0  0  0  0  0  0  0  0  0  0  0  0
    5.6492   -9.3367   28.9981 O   0  0  0  0  0  0  0  0  0  0  0  0
    4.9808   -7.9002   30.6887 C   0  0  0  0  0  0  0  0  0  0  0  0
    6.0440   -6.9577   30.6032 C   0  0  0  0  0  0  0  0  0  0  0  0
    5.7610   -5.9945   31.5392 C   0  0  0  0  0  0  0  0  0  0  0  0
    4.5936   -6.3779   32.1256 N   0  0  0  0  0  0  0  0  0  0  0  0
    4.1113   -7.5386   31.6546 N   0  0  0  0  0  0  0  0  0  0  0  0
    2.9405  -10.9863   29.4723 C   0  0  0  0  0  0  0  0  0  0  0  0
    1.5784  -11.4763   30.0074 C   0  0  0  0  0  0  0  0  0  0  0  0
   -2.1208  -20.7875   31.6341 H   0  0  0  0  0  0  0  0  0  0  0  0
   -3.0224  -19.3036   32.0448 H   0  0  0  0  0  0  0  0  0  0  0  0
   -2.3700  -19.5225   30.4239 H   0  0  0  0  0  0  0  0  0  0  0  0
   -0.5980  -19.3368   32.9266 H   0  0  0  0  0  0  0  0  0  0  0  0
   -0.0843  -19.3388   31.2228 H   0  0  0  0  0  0  0  0  0  0  0  0
    1.2162  -17.4541   31.1140 H   0  0  0  0  0  0  0  0  0  0  0  0
    1.1494  -16.8388   32.7743 H   0  0  0  0  0  0  0  0  0  0  0  0
    0.2930  -14.7628   33.0487 H   0  0  0  0  0  0  0  0  0  0  0  0
    0.7510  -12.5204   33.1522 H   0  0  0  0  0  0  0  0  0  0  0  0
   -0.7834  -11.3032   31.6347 H   0  0  0  0  0  0  0  0  0  0  0  0
   -0.8771  -12.7493   30.5922 H   0  0  0  0  0  0  0  0  0  0  0  0
   -1.5009  -12.8008   32.2411 H   0  0  0  0  0  0  0  0  0  0  0  0
    2.5118  -13.0863   31.0467 H   0  0  0  0  0  0  0  0  0  0  0  0
    3.0623  -11.7484   33.0114 H   0  0  0  0  0  0  0  0  0  0  0  0
    2.1076  -10.3840   32.4057 H   0  0  0  0  0  0  0  0  0  0  0  0
    4.5300  -11.6892   30.8984 H   0  0  0  0  0  0  0  0  0  0  0  0
    4.5513  -10.3399   31.9252 H   0  0  0  0  0  0  0  0  0  0  0  0
    6.8895   -6.9908   29.9298 H   0  0  0  0  0  0  0  0  0  0  0  0
    6.2701   -5.0863   31.8285 H   0  0  0  0  0  0  0  0  0  0  0  0
    4.0697   -5.8981   32.8512 H   0  0  0  0  0  0  0  0  0  0  0  0
    2.7006  -10.5477   28.4904 H   0  0  0  0  0  0  0  0  0  0  0  0
    3.6318  -11.7920   29.1698 H   0  0  0  0  0  0  0  0  0  0  0  0
    0.9109  -10.6240   30.1709 H   0  0  0  0  0  0  0  0  0  0  0  0
    1.1138  -12.1385   29.2688 H   0  0  0  0  0  0  0  0  0  0  0  0
  1  2  1  0
  2  3  1  0
  3  4  1  0
  3  5  1  0
  5  6  1  0
  6  7  2  0
  6  8  1  0
  8  9  1  0
  9 10  1  0
  9 11  1  0
 11 12  1  0
 12 13  1  0
 13 14  1  0
 14 15  1  0
 15 16  2  0
 15 17  1  0
 17 18  1  0
 18 19  2  0
 19 20  1  0
 20 21  1  0
 14 22  1  0
 22 23  1  0
 23 11  1  0
 21 17  2  0
  1 24  1  0
  1 25  1  0
  1 26  1  0
  2 27  1  0
  2 28  1  0
  5 29  1  0
  5 30  1  0
  8 31  1  0
  9 32  1  0
 10 33  1  0
 10 34  1  0
 10 35  1  0
 11 36  1  0
 12 37  1  0
 12 38  1  0
 13 39  1  0
 13 40  1  0
 18 41  1  0
 19 42  1  0
 20 43  1  0
 22 44  1  0
 22 45  1  0
 23 46  1  0
 23 47  1  0
M  CHG  2   3   1   4  -1
M  END
>  <Energy>  (680) 
111.99278530901459

>  <compound_id>  (680) 
35607

>  <target_id>  (680) 
1

>  <reference_id>  (680) 
96

>  <inspiration_ids>  (680) 
[44, 96]

>  <energy_score>  (680) 
18.982495439987986

>  <distance_score>  (680) 
13.302044556382663

>  <path>  (680) 
/opt/xchem-fragalysis-2/maxwin/BulkDock/SCRATCH/511013/C35607-P96/C35607-P96.minimised.mol

>  <scratch_subdir>  (680) 
/opt/xchem-fragalysis-2/maxwin/BulkDock/SCRATCH/511013/C35607-P96

>  <fragmenstein_runtime>  (680) 
38.24716401100159

>  <fragmenstein_outcome>  (680) 
too moved

>  <fragmenstein_mode>  (680) 
expansion

>  <fragmenstein_error>  (680) 


$$$$
C35608-P44
     RDKit          3D

 45 46  0  0  0  0  0  0  0  0999 V2000
   -6.2128  -17.1460   31.8993 C   0  0  0  0  0  0  0  0  0  0  0  0
   -6.0986  -15.4500   31.4215 C   0  0  0  0  0  0  0  0  0  0  0  0
   -4.7580  -15.9598   30.5663 C   0  0  0  0  0  0  0  0  0  0  0  0
   -4.0440  -17.0042   31.0905 F   0  0  0  0  0  0  0  0  0  0  0  0
   -6.0844  -13.6508   31.0979 C   0  0  0  0  0  0  0  0  0  0  0  0
   -6.0207  -13.4641   29.9061 O   0  0  0  0  0  0  0  0  0  0  0  0
   -5.9568  -12.2587   32.3641 N   0  0  0  0  0  0  0  0  0  0  0  0
   -7.2406  -11.7727   32.6606 C   0  0  0  0  0  0  0  0  0  0  0  0
   -5.5043  -10.2582   32.1130 C   0  0  0  0  0  0  0  0  0  0  0  0
   -3.7524   -8.9463   31.6098 C   0  0  0  0  0  0  0  0  0  0  0  0
   -2.6678   -7.5638   30.9088 C   0  0  0  0  0  0  0  0  0  0  0  0
   -1.7339   -6.6172   31.8060 C   0  0  0  0  0  0  0  0  0  0  0  0
   -1.7657   -7.0575   33.2444 C   0  0  0  0  0  0  0  0  0  0  0  0
   -2.5305   -8.3963   33.4118 C   0  0  0  0  0  0  0  0  0  0  0  0
   -2.0502   -9.3915   32.4220 N   0  0  0  0  0  0  0  0  0  0  0  0
   -0.8440   -9.2954   31.3889 C   0  0  0  0  0  0  0  0  0  0  0  0
   -0.1220   -8.3677   31.1214 O   0  0  0  0  0  0  0  0  0  0  0  0
   -0.3928  -10.4911   30.6751 C   0  0  0  0  0  0  0  0  0  0  0  0
    0.9733  -10.9472   30.7511 C   0  0  0  0  0  0  0  0  0  0  0  0
    1.2578  -11.5133   29.5305 C   0  0  0  0  0  0  0  0  0  0  0  0
    0.1243  -11.3712   28.7877 N   0  0  0  0  0  0  0  0  0  0  0  0
   -0.9056  -10.8500   29.4865 N   0  0  0  0  0  0  0  0  0  0  0  0
   -5.3272  -17.5553   32.3686 H   0  0  0  0  0  0  0  0  0  0  0  0
   -6.1987  -17.8748   31.0718 H   0  0  0  0  0  0  0  0  0  0  0  0
   -7.0777  -17.4496   32.4938 H   0  0  0  0  0  0  0  0  0  0  0  0
   -5.5987  -15.1041   32.2278 H   0  0  0  0  0  0  0  0  0  0  0  0
   -5.0679  -16.3215   29.5842 H   0  0  0  0  0  0  0  0  0  0  0  0
   -4.0005  -15.1911   30.5358 H   0  0  0  0  0  0  0  0  0  0  0  0
   -7.7178  -12.7119   32.9431 H   0  0  0  0  0  0  0  0  0  0  0  0
   -7.9980  -11.4070   31.9956 H   0  0  0  0  0  0  0  0  0  0  0  0
   -7.3070  -11.3822   33.6387 H   0  0  0  0  0  0  0  0  0  0  0  0
   -5.4959  -10.6508   33.2291 H   0  0  0  0  0  0  0  0  0  0  0  0
   -5.5046   -9.6056   33.0937 H   0  0  0  0  0  0  0  0  0  0  0  0
   -4.3696   -8.2339   32.0240 H   0  0  0  0  0  0  0  0  0  0  0  0
   -1.8208   -7.8651   30.2889 H   0  0  0  0  0  0  0  0  0  0  0  0
   -3.0464   -7.2656   29.9377 H   0  0  0  0  0  0  0  0  0  0  0  0
   -1.8226   -5.5406   31.6761 H   0  0  0  0  0  0  0  0  0  0  0  0
   -0.6994   -6.5703   31.4578 H   0  0  0  0  0  0  0  0  0  0  0  0
   -0.7202   -7.2007   33.5610 H   0  0  0  0  0  0  0  0  0  0  0  0
   -2.1311   -6.2827   33.9215 H   0  0  0  0  0  0  0  0  0  0  0  0
   -3.4516   -8.6013   33.9618 H   0  0  0  0  0  0  0  0  0  0  0  0
   -1.9664   -8.5963   34.3234 H   0  0  0  0  0  0  0  0  0  0  0  0
    1.6866  -10.7250   31.5342 H   0  0  0  0  0  0  0  0  0  0  0  0
    2.1632  -11.9295   29.1118 H   0  0  0  0  0  0  0  0  0  0  0  0
   -0.0432  -11.6548   27.8260 H   0  0  0  0  0  0  0  0  0  0  0  0
  1  2  1  0
  2  3  1  0
  3  4  1  0
  2  5  1  0
  5  6  2  0
  5  7  1  0
  7  8  1  0
  7  9  1  0
  9 10  1  0
 10 11  1  0
 11 12  1  0
 12 13  1  0
 13 14  1  0
 14 15  1  0
 15 16  1  0
 16 17  2  0
 16 18  1  0
 18 19  1  0
 19 20  2  0
 20 21  1  0
 21 22  1  0
 15 10  1  0
 22 18  2  0
  1 23  1  0
  1 24  1  0
  1 25  1  0
  2 26  1  0
  3 27  1  0
  3 28  1  0
  8 29  1  0
  8 30  1  0
  8 31  1  0
  9 32  1  0
  9 33  1  0
 10 34  1  0
 11 35  1  0
 11 36  1  0
 12 37  1  0
 12 38  1  0
 13 39  1  0
 13 40  1  0
 14 41  1  0
 14 42  1  0
 19 43  1  0
 20 44  1  0
 21 45  1  0
M  END
>  <Energy>  (681) 
1006.2262459088291

>  <compound_id>  (681) 
35608

>  <target_id>  (681) 
1

>  <reference_id>  (681) 
44

>  <inspiration_ids>  (681) 
[44, 96]

>  <energy_score>  (681) 
927.2997618294827

>  <distance_score>  (681) 
10.924304997270626

>  <path>  (681) 
/opt/xchem-fragalysis-2/maxwin/BulkDock/SCRATCH/511013/C35608-P44/C35608-P44.minimised.mol

>  <scratch_subdir>  (681) 
/opt/xchem-fragalysis-2/maxwin/BulkDock/SCRATCH/511013/C35608-P44

>  <fragmenstein_runtime>  (681) 
38.150288105010986

>  <fragmenstein_outcome>  (681) 
too moved

>  <fragmenstein_mode>  (681) 
expansion

>  <fragmenstein_error>  (681) 


$$$$
C35608-P96
     RDKit          3D

 45 46  0  0  0  0  0  0  0  0999 V2000
   -8.6116  -14.6472   34.4818 C   0  0  0  0  0  0  0  0  0  0  0  0
   -7.4906  -15.4997   33.7914 C   0  0  0  0  0  0  0  0  0  0  0  0
   -6.5076  -15.5417   34.9173 C   0  0  0  0  0  0  0  0  0  0  0  0
   -6.9517  -16.2146   36.0033 F   0  0  0  0  0  0  0  0  0  0  0  0
   -7.3459  -14.9456   32.3505 C   0  0  0  0  0  0  0  0  0  0  0  0
   -8.3119  -14.2644   32.0689 O   0  0  0  0  0  0  0  0  0  0  0  0
   -6.1699  -15.3716   31.4997 N   0  0  0  0  0  0  0  0  0  0  0  0
   -5.1855  -14.4654   31.6117 C   0  0  0  0  0  0  0  0  0  0  0  0
   -5.8179  -15.1228   29.6156 C   0  0  0  0  0  0  0  0  0  0  0  0
   -5.1043  -15.8911   27.9000 C   0  0  0  0  0  0  0  0  0  0  0  0
   -3.5128  -15.2845   27.5709 C   0  0  0  0  0  0  0  0  0  0  0  0
   -2.8048  -15.5673   26.2564 C   0  0  0  0  0  0  0  0  0  0  0  0
   -3.5250  -16.6318   25.4896 C   0  0  0  0  0  0  0  0  0  0  0  0
   -4.6210  -17.2573   26.3549 C   0  0  0  0  0  0  0  0  0  0  0  0
   -5.8144  -16.3294   26.3954 N   0  0  0  0  0  0  0  0  0  0  0  0
   -7.1832  -16.5993   26.5594 C   0  0  0  0  0  0  0  0  0  0  0  0
   -7.7528  -17.6277   26.8028 O   0  0  0  0  0  0  0  0  0  0  0  0
   -7.9703  -15.3759   26.2642 C   0  0  0  0  0  0  0  0  0  0  0  0
   -9.1110  -15.3800   25.3951 C   0  0  0  0  0  0  0  0  0  0  0  0
   -9.4149  -14.0613   25.1693 C   0  0  0  0  0  0  0  0  0  0  0  0
   -8.4946  -13.3485   25.8760 N   0  0  0  0  0  0  0  0  0  0  0  0
   -7.6115  -14.1139   26.5403 N   0  0  0  0  0  0  0  0  0  0  0  0
   -8.8511  -14.9402   35.5099 H   0  0  0  0  0  0  0  0  0  0  0  0
   -9.5562  -14.6311   33.9282 H   0  0  0  0  0  0  0  0  0  0  0  0
   -8.2242  -13.6370   34.6071 H   0  0  0  0  0  0  0  0  0  0  0  0
   -7.7859  -16.5229   33.5678 H   0  0  0  0  0  0  0  0  0  0  0  0
   -5.6480  -16.0760   34.6514 H   0  0  0  0  0  0  0  0  0  0  0  0
   -6.2833  -14.5549   35.3111 H   0  0  0  0  0  0  0  0  0  0  0  0
   -4.1068  -14.4557   31.4792 H   0  0  0  0  0  0  0  0  0  0  0  0
   -5.3991  -14.0130   32.5645 H   0  0  0  0  0  0  0  0  0  0  0  0
   -5.7837  -13.7265   31.1751 H   0  0  0  0  0  0  0  0  0  0  0  0
   -6.4069  -16.0892   29.6718 H   0  0  0  0  0  0  0  0  0  0  0  0
   -5.9158  -14.0873   29.2725 H   0  0  0  0  0  0  0  0  0  0  0  0
   -5.1646  -16.9341   28.2124 H   0  0  0  0  0  0  0  0  0  0  0  0
   -3.4146  -14.2343   27.8321 H   0  0  0  0  0  0  0  0  0  0  0  0
   -2.7794  -15.7330   28.2308 H   0  0  0  0  0  0  0  0  0  0  0  0
   -1.7870  -15.9258   26.4706 H   0  0  0  0  0  0  0  0  0  0  0  0
   -2.6260  -14.6726   25.6603 H   0  0  0  0  0  0  0  0  0  0  0  0
   -2.8187  -17.4085   25.1727 H   0  0  0  0  0  0  0  0  0  0  0  0
   -3.9538  -16.2170   24.5691 H   0  0  0  0  0  0  0  0  0  0  0  0
   -5.0273  -18.0628   25.7200 H   0  0  0  0  0  0  0  0  0  0  0  0
   -4.2409  -17.8831   27.1795 H   0  0  0  0  0  0  0  0  0  0  0  0
   -9.5922  -16.2478   24.9650 H   0  0  0  0  0  0  0  0  0  0  0  0
  -10.1745  -13.5737   24.5761 H   0  0  0  0  0  0  0  0  0  0  0  0
   -8.3994  -12.3396   25.9394 H   0  0  0  0  0  0  0  0  0  0  0  0
  1  2  1  0
  2  3  1  0
  3  4  1  0
  2  5  1  0
  5  6  2  0
  5  7  1  0
  7  8  1  0
  7  9  1  0
  9 10  1  0
 10 11  1  0
 11 12  1  0
 12 13  1  0
 13 14  1  0
 14 15  1  0
 15 16  1  0
 16 17  2  0
 16 18  1  0
 18 19  1  0
 19 20  2  0
 20 21  1  0
 21 22  1  0
 15 10  1  0
 22 18  2  0
  1 23  1  0
  1 24  1  0
  1 25  1  0
  2 26  1  0
  3 27  1  0
  3 28  1  0
  8 29  1  0
  8 30  1  0
  8 31  1  0
  9 32  1  0
  9 33  1  0
 10 34  1  0
 11 35  1  0
 11 36  1  0
 12 37  1  0
 12 38  1  0
 13 39  1  0
 13 40  1  0
 14 41  1  0
 14 42  1  0
 19 43  1  0
 20 44  1  0
 21 45  1  0
M  END
>  <Energy>  (682) 
458.36230949081721

>  <compound_id>  (682) 
35608

>  <target_id>  (682) 
1

>  <reference_id>  (682) 
96

>  <inspiration_ids>  (682) 
[44, 96]

>  <energy_score>  (682) 
379.43582541146907

>  <distance_score>  (682) 
15.67237009174632

>  <path>  (682) 
/opt/xchem-fragalysis-2/maxwin/BulkDock/SCRATCH/511013/C35608-P96/C35608-P96.minimised.mol

>  <scratch_subdir>  (682) 
/opt/xchem-fragalysis-2/maxwin/BulkDock/SCRATCH/511013/C35608-P96

>  <fragmenstein_runtime>  (682) 
31.12878179550171

>  <fragmenstein_outcome>  (682) 
too moved

>  <fragmenstein_mode>  (682) 
expansion

>  <fragmenstein_error>  (682) 


$$$$
C35609-P44
     RDKit          3D

 49 50  0  0  0  0  0  0  0  0999 V2000
   -9.7679  -18.6116   35.9237 C   0  0  0  0  0  0  0  0  0  0  0  0
  -10.4115  -17.4310   35.1831 C   0  0  0  0  0  0  0  0  0  0  0  0
  -11.9318  -17.5275   35.2783 C   0  0  0  0  0  0  0  0  0  0  0  0
   -9.8728  -15.8975   36.0123 S   0  0  0  0  0  0  0  0  0  0  0  0
  -10.3017  -14.4267   34.8684 C   0  0  0  0  0  0  0  0  0  0  0  0
   -9.2391  -13.9043   33.5534 C   0  0  0  0  0  0  0  0  0  0  0  0
   -9.2568  -14.7088   32.6768 O   0  0  0  0  0  0  0  0  0  0  0  0
   -8.3859  -12.6253   33.7129 N   0  0  0  0  0  0  0  0  0  0  0  0
   -7.2049  -12.0106   32.7703 C   0  0  0  0  0  0  0  0  0  0  0  0
   -5.7594  -10.7193   33.0587 C   0  0  0  0  0  0  0  0  0  0  0  0
   -4.9307   -9.0339   33.7938 C   0  0  0  0  0  0  0  0  0  0  0  0
   -4.4132   -9.1494   35.2884 C   0  0  0  0  0  0  0  0  0  0  0  0
   -4.1047   -7.7340   35.8613 C   0  0  0  0  0  0  0  0  0  0  0  0
   -4.3444   -6.5096   34.9774 N   0  0  0  0  0  0  0  0  0  0  0  0
   -4.4152   -5.3312   35.7804 C   0  0  0  0  0  0  0  0  0  0  0  0
   -3.5533   -4.5653   36.1207 O   0  0  0  0  0  0  0  0  0  0  0  0
   -5.8241   -5.0376   36.1721 C   0  0  0  0  0  0  0  0  0  0  0  0
   -6.2714   -3.9148   36.9234 C   0  0  0  0  0  0  0  0  0  0  0  0
   -7.6338   -4.0546   37.0232 C   0  0  0  0  0  0  0  0  0  0  0  0
   -7.9396   -5.2025   36.3574 N   0  0  0  0  0  0  0  0  0  0  0  0
   -6.8670   -5.8296   35.8510 N   0  0  0  0  0  0  0  0  0  0  0  0
   -3.2120   -7.0991   34.2198 C   0  0  0  0  0  0  0  0  0  0  0  0
   -3.5677   -8.2639   33.2709 C   0  0  0  0  0  0  0  0  0  0  0  0
   -9.7720  -19.5093   35.3065 H   0  0  0  0  0  0  0  0  0  0  0  0
  -10.2964  -18.8427   36.8557 H   0  0  0  0  0  0  0  0  0  0  0  0
   -8.7226  -18.4257   36.1847 H   0  0  0  0  0  0  0  0  0  0  0  0
  -10.0122  -17.4168   34.1760 H   0  0  0  0  0  0  0  0  0  0  0  0
  -12.4335  -16.6565   34.8447 H   0  0  0  0  0  0  0  0  0  0  0  0
  -12.3271  -18.4073   34.7762 H   0  0  0  0  0  0  0  0  0  0  0  0
  -12.2617  -17.5933   36.3229 H   0  0  0  0  0  0  0  0  0  0  0  0
  -10.3843  -13.6106   35.5971 H   0  0  0  0  0  0  0  0  0  0  0  0
  -11.2629  -14.7002   34.4233 H   0  0  0  0  0  0  0  0  0  0  0  0
   -8.6845  -12.1228   34.5428 H   0  0  0  0  0  0  0  0  0  0  0  0
   -7.8774  -11.5176   32.0991 H   0  0  0  0  0  0  0  0  0  0  0  0
   -6.7422  -12.8433   32.2442 H   0  0  0  0  0  0  0  0  0  0  0  0
   -5.5380  -10.6951   31.9860 H   0  0  0  0  0  0  0  0  0  0  0  0
   -5.1648  -11.5418   33.3260 H   0  0  0  0  0  0  0  0  0  0  0  0
   -5.5701   -8.1465   33.6738 H   0  0  0  0  0  0  0  0  0  0  0  0
   -3.4756   -9.7178   35.3294 H   0  0  0  0  0  0  0  0  0  0  0  0
   -5.0859   -9.6934   35.9626 H   0  0  0  0  0  0  0  0  0  0  0  0
   -4.8449   -7.6164   36.6691 H   0  0  0  0  0  0  0  0  0  0  0  0
   -3.1661   -7.6871   36.4422 H   0  0  0  0  0  0  0  0  0  0  0  0
   -5.6617   -3.1164   37.3238 H   0  0  0  0  0  0  0  0  0  0  0  0
   -8.3967   -3.4503   37.4927 H   0  0  0  0  0  0  0  0  0  0  0  0
   -8.8542   -5.6200   36.2104 H   0  0  0  0  0  0  0  0  0  0  0  0
   -2.2598   -7.2202   34.7668 H   0  0  0  0  0  0  0  0  0  0  0  0
   -2.9323   -6.2719   33.5474 H   0  0  0  0  0  0  0  0  0  0  0  0
   -2.6679   -8.8971   33.3024 H   0  0  0  0  0  0  0  0  0  0  0  0
   -3.6482   -7.9366   32.2404 H   0  0  0  0  0  0  0  0  0  0  0  0
  1  2  1  0
  2  3  1  0
  2  4  1  0
  4  5  1  0
  5  6  1  0
  6  7  2  0
  6  8  1  0
  8  9  1  0
  9 10  1  0
 10 11  1  0
 11 12  1  0
 12 13  1  0
 13 14  1  0
 14 15  1  0
 15 16  2  0
 15 17  1  0
 17 18  1  0
 18 19  2  0
 19 20  1  0
 20 21  1  0
 14 22  1  0
 22 23  1  0
 23 11  1  0
 21 17  2  0
  1 24  1  0
  1 25  1  0
  1 26  1  0
  2 27  1  0
  3 28  1  0
  3 29  1  0
  3 30  1  0
  5 31  1  0
  5 32  1  0
  8 33  1  0
  9 34  1  0
  9 35  1  0
 10 36  1  0
 10 37  1  0
 11 38  1  0
 12 39  1  0
 12 40  1  0
 13 41  1  0
 13 42  1  0
 18 43  1  0
 19 44  1  0
 20 45  1  0
 22 46  1  0
 22 47  1  0
 23 48  1  0
 23 49  1  0
M  END
>  <Energy>  (683) 
369.62832642157161

>  <compound_id>  (683) 
35609

>  <target_id>  (683) 
1

>  <reference_id>  (683) 
44

>  <inspiration_ids>  (683) 
[44, 96]

>  <energy_score>  (683) 
265.56806930545235

>  <distance_score>  (683) 
11.003296345363012

>  <path>  (683) 
/opt/xchem-fragalysis-2/maxwin/BulkDock/SCRATCH/511013/C35609-P44/C35609-P44.minimised.mol

>  <scratch_subdir>  (683) 
/opt/xchem-fragalysis-2/maxwin/BulkDock/SCRATCH/511013/C35609-P44

>  <fragmenstein_runtime>  (683) 
33.803370237350464

>  <fragmenstein_outcome>  (683) 
too moved

>  <fragmenstein_mode>  (683) 
expansion

>  <fragmenstein_error>  (683) 


$$$$
C35609-P96
     RDKit          3D

 49 50  0  0  0  0  0  0  0  0999 V2000
  -11.0068  -15.6073   24.8421 C   0  0  0  0  0  0  0  0  0  0  0  0
  -12.3462  -14.8772   24.8922 C   0  0  0  0  0  0  0  0  0  0  0  0
  -13.3573  -15.6561   25.7295 C   0  0  0  0  0  0  0  0  0  0  0  0
  -12.1161  -13.2123   25.6265 S   0  0  0  0  0  0  0  0  0  0  0  0
  -12.6671  -12.0414   24.2539 C   0  0  0  0  0  0  0  0  0  0  0  0
  -12.9724  -10.5923   24.7984 C   0  0  0  0  0  0  0  0  0  0  0  0
  -13.8742  -10.4962   25.5870 O   0  0  0  0  0  0  0  0  0  0  0  0
  -12.0505   -9.5808   24.2759 N   0  0  0  0  0  0  0  0  0  0  0  0
  -11.8784   -8.1553   24.6268 C   0  0  0  0  0  0  0  0  0  0  0  0
  -10.9340   -7.3122   23.7185 C   0  0  0  0  0  0  0  0  0  0  0  0
  -10.3696   -6.0218   24.3848 C   0  0  0  0  0  0  0  0  0  0  0  0
   -8.9664   -6.2383   24.9083 C   0  0  0  0  0  0  0  0  0  0  0  0
   -7.9318   -6.2573   23.7540 C   0  0  0  0  0  0  0  0  0  0  0  0
   -8.0159   -5.6183   22.3515 N   0  0  0  0  0  0  0  0  0  0  0  0
   -8.4894   -6.5793   21.4013 C   0  0  0  0  0  0  0  0  0  0  0  0
   -9.6066   -6.8358   21.0410 O   0  0  0  0  0  0  0  0  0  0  0  0
   -7.3269   -7.2934   20.7944 C   0  0  0  0  0  0  0  0  0  0  0  0
   -5.9680   -6.8633   20.7402 C   0  0  0  0  0  0  0  0  0  0  0  0
   -5.2903   -7.8551   20.0755 C   0  0  0  0  0  0  0  0  0  0  0  0
   -6.2248   -8.7933   19.7612 N   0  0  0  0  0  0  0  0  0  0  0  0
   -7.4530   -8.5026   20.2112 N   0  0  0  0  0  0  0  0  0  0  0  0
   -8.7402   -4.5623   23.1065 C   0  0  0  0  0  0  0  0  0  0  0  0
  -10.2196   -4.8273   23.4411 C   0  0  0  0  0  0  0  0  0  0  0  0
  -10.2799  -15.0513   24.2393 H   0  0  0  0  0  0  0  0  0  0  0  0
  -10.5773  -15.7491   25.8342 H   0  0  0  0  0  0  0  0  0  0  0  0
  -11.1272  -16.5862   24.3674 H   0  0  0  0  0  0  0  0  0  0  0  0
  -12.7319  -14.7624   23.8738 H   0  0  0  0  0  0  0  0  0  0  0  0
  -13.5636  -16.6235   25.2621 H   0  0  0  0  0  0  0  0  0  0  0  0
  -13.0011  -15.8179   26.7519 H   0  0  0  0  0  0  0  0  0  0  0  0
  -14.3139  -15.1239   25.7858 H   0  0  0  0  0  0  0  0  0  0  0  0
  -13.5987  -12.4245   23.8248 H   0  0  0  0  0  0  0  0  0  0  0  0
  -11.9130  -12.0139   23.4703 H   0  0  0  0  0  0  0  0  0  0  0  0
  -11.3600  -10.0336   23.6881 H   0  0  0  0  0  0  0  0  0  0  0  0
  -12.8776   -7.7066   24.6541 H   0  0  0  0  0  0  0  0  0  0  0  0
  -11.5054   -8.1403   25.6558 H   0  0  0  0  0  0  0  0  0  0  0  0
  -11.5143   -7.0565   22.8243 H   0  0  0  0  0  0  0  0  0  0  0  0
  -10.1169   -7.9626   23.3877 H   0  0  0  0  0  0  0  0  0  0  0  0
  -11.0399   -5.7406   25.2063 H   0  0  0  0  0  0  0  0  0  0  0  0
   -8.8917   -7.1602   25.4958 H   0  0  0  0  0  0  0  0  0  0  0  0
   -8.7063   -5.4234   25.5967 H   0  0  0  0  0  0  0  0  0  0  0  0
   -7.8089   -7.3290   23.5472 H   0  0  0  0  0  0  0  0  0  0  0  0
   -6.9501   -5.9704   24.1532 H   0  0  0  0  0  0  0  0  0  0  0  0
   -5.5582   -5.9377   21.1187 H   0  0  0  0  0  0  0  0  0  0  0  0
   -4.2553   -7.9615   19.7837 H   0  0  0  0  0  0  0  0  0  0  0  0
   -6.0972   -9.6578   19.2452 H   0  0  0  0  0  0  0  0  0  0  0  0
   -8.1539   -4.0696   23.9013 H   0  0  0  0  0  0  0  0  0  0  0  0
   -8.7905   -3.7569   22.3565 H   0  0  0  0  0  0  0  0  0  0  0  0
  -10.6174   -3.9300   23.9326 H   0  0  0  0  0  0  0  0  0  0  0  0
  -10.8107   -4.9577   22.5282 H   0  0  0  0  0  0  0  0  0  0  0  0
  1  2  1  0
  2  3  1  0
  2  4  1  0
  4  5  1  0
  5  6  1  0
  6  7  2  0
  6  8  1  0
  8  9  1  0
  9 10  1  0
 10 11  1  0
 11 12  1  0
 12 13  1  0
 13 14  1  0
 14 15  1  0
 15 16  2  0
 15 17  1  0
 17 18  1  0
 18 19  2  0
 19 20  1  0
 20 21  1  0
 14 22  1  0
 22 23  1  0
 23 11  1  0
 21 17  2  0
  1 24  1  0
  1 25  1  0
  1 26  1  0
  2 27  1  0
  3 28  1  0
  3 29  1  0
  3 30  1  0
  5 31  1  0
  5 32  1  0
  8 33  1  0
  9 34  1  0
  9 35  1  0
 10 36  1  0
 10 37  1  0
 11 38  1  0
 12 39  1  0
 12 40  1  0
 13 41  1  0
 13 42  1  0
 18 43  1  0
 19 44  1  0
 20 45  1  0
 22 46  1  0
 22 47  1  0
 23 48  1  0
 23 49  1  0
M  END
>  <Energy>  (684) 
162.95584949096096

>  <compound_id>  (684) 
35609

>  <target_id>  (684) 
1

>  <reference_id>  (684) 
96

>  <inspiration_ids>  (684) 
[44, 96]

>  <energy_score>  (684) 
58.89559237484241

>  <distance_score>  (684) 
12.696238923505286

>  <path>  (684) 
/opt/xchem-fragalysis-2/maxwin/BulkDock/SCRATCH/511013/C35609-P96/C35609-P96.minimised.mol

>  <scratch_subdir>  (684) 
/opt/xchem-fragalysis-2/maxwin/BulkDock/SCRATCH/511013/C35609-P96

>  <fragmenstein_runtime>  (684) 
30.18999481201172

>  <fragmenstein_outcome>  (684) 
too moved

>  <fragmenstein_mode>  (684) 
expansion

>  <fragmenstein_error>  (684) 


$$$$
C35610-P44
     RDKit          3D

 49 50  0  0  0  0  0  0  0  0999 V2000
   -1.4092  -21.5566   30.1588 C   0  0  0  0  0  0  0  0  0  0  0  0
   -1.6171  -20.0816   30.4749 C   0  0  0  0  0  0  0  0  0  0  0  0
   -1.6871  -19.2407   29.1892 C   0  0  0  0  0  0  0  0  0  0  0  0
   -2.3235  -17.8311   29.3182 C   0  0  0  0  0  0  0  0  0  0  0  0
   -3.2818  -17.9081   30.3791 O   0  0  0  0  0  0  0  0  0  0  0  0
   -4.2733  -16.8996   30.3131 C   0  0  0  0  0  0  0  0  0  0  0  0
   -5.5593  -17.3273   30.9821 C   0  0  0  0  0  0  0  0  0  0  0  0
   -1.1992  -16.6941   29.3739 C   0  0  0  0  0  0  0  0  0  0  0  0
   -0.5029  -16.6261   30.3499 O   0  0  0  0  0  0  0  0  0  0  0  0
   -1.1950  -15.9027   28.1441 N   0  0  0  0  0  0  0  0  0  0  0  0
   -0.2812  -14.8483   27.6806 C   0  0  0  0  0  0  0  0  0  0  0  0
   -0.9901  -13.5489   27.2781 C   0  0  0  0  0  0  0  0  0  0  0  0
   -0.0255  -12.6595   26.5190 C   0  0  0  0  0  0  0  0  0  0  0  0
    0.9245  -13.5279   25.6739 C   0  0  0  0  0  0  0  0  0  0  0  0
    0.2975  -14.8054   25.1197 N   0  0  0  0  0  0  0  0  0  0  0  0
    0.8729  -15.1239   23.8532 C   0  0  0  0  0  0  0  0  0  0  0  0
    1.8221  -15.8059   23.5774 O   0  0  0  0  0  0  0  0  0  0  0  0
    0.0667  -14.4938   22.7614 C   0  0  0  0  0  0  0  0  0  0  0  0
   -1.2164  -13.8764   22.8572 C   0  0  0  0  0  0  0  0  0  0  0  0
   -1.5249  -13.4566   21.5869 C   0  0  0  0  0  0  0  0  0  0  0  0
   -0.4682  -13.8234   20.8109 N   0  0  0  0  0  0  0  0  0  0  0  0
    0.5111  -14.4339   21.4903 N   0  0  0  0  0  0  0  0  0  0  0  0
    0.6242  -15.3100   26.5054 C   0  0  0  0  0  0  0  0  0  0  0  0
   -2.2524  -21.9615   29.5937 H   0  0  0  0  0  0  0  0  0  0  0  0
   -1.2898  -22.1385   31.0754 H   0  0  0  0  0  0  0  0  0  0  0  0
   -0.5036  -21.6977   29.5594 H   0  0  0  0  0  0  0  0  0  0  0  0
   -0.7914  -19.7170   31.0966 H   0  0  0  0  0  0  0  0  0  0  0  0
   -2.5234  -19.9833   31.0677 H   0  0  0  0  0  0  0  0  0  0  0  0
   -0.6831  -19.1592   28.7533 H   0  0  0  0  0  0  0  0  0  0  0  0
   -2.2692  -19.7990   28.4456 H   0  0  0  0  0  0  0  0  0  0  0  0
   -2.8748  -17.6857   28.3803 H   0  0  0  0  0  0  0  0  0  0  0  0
   -3.8727  -16.0005   30.7902 H   0  0  0  0  0  0  0  0  0  0  0  0
   -4.4965  -16.6831   29.2714 H   0  0  0  0  0  0  0  0  0  0  0  0
   -5.3798  -17.9941   31.8259 H   0  0  0  0  0  0  0  0  0  0  0  0
   -6.1429  -16.4546   31.2868 H   0  0  0  0  0  0  0  0  0  0  0  0
   -6.1902  -17.8682   30.2789 H   0  0  0  0  0  0  0  0  0  0  0  0
   -1.8710  -16.2917   27.4972 H   0  0  0  0  0  0  0  0  0  0  0  0
    0.3943  -14.6479   28.5184 H   0  0  0  0  0  0  0  0  0  0  0  0
   -1.4079  -13.0164   28.1331 H   0  0  0  0  0  0  0  0  0  0  0  0
   -1.8289  -13.7924   26.6150 H   0  0  0  0  0  0  0  0  0  0  0  0
   -0.5924  -11.9719   25.8802 H   0  0  0  0  0  0  0  0  0  0  0  0
    0.5656  -12.0449   27.2073 H   0  0  0  0  0  0  0  0  0  0  0  0
    1.1300  -12.9046   24.7878 H   0  0  0  0  0  0  0  0  0  0  0  0
    1.9483  -13.6096   26.0793 H   0  0  0  0  0  0  0  0  0  0  0  0
   -1.8271  -13.7698   23.7415 H   0  0  0  0  0  0  0  0  0  0  0  0
   -2.3845  -12.9508   21.1720 H   0  0  0  0  0  0  0  0  0  0  0  0
   -0.3443  -13.6880   19.8125 H   0  0  0  0  0  0  0  0  0  0  0  0
    1.6999  -15.3526   26.7510 H   0  0  0  0  0  0  0  0  0  0  0  0
    0.4330  -16.3889   26.3834 H   0  0  0  0  0  0  0  0  0  0  0  0
  1  2  1  0
  2  3  1  0
  3  4  1  0
  4  5  1  0
  5  6  1  0
  6  7  1  0
  4  8  1  0
  8  9  2  0
  8 10  1  0
 10 11  1  0
 11 12  1  0
 12 13  1  0
 13 14  1  0
 14 15  1  0
 15 16  1  0
 16 17  2  0
 16 18  1  0
 18 19  1  0
 19 20  2  0
 20 21  1  0
 21 22  1  0
 15 23  1  0
 23 11  1  0
 22 18  2  0
  1 24  1  0
  1 25  1  0
  1 26  1  0
  2 27  1  0
  2 28  1  0
  3 29  1  0
  3 30  1  0
  4 31  1  0
  6 32  1  0
  6 33  1  0
  7 34  1  0
  7 35  1  0
  7 36  1  0
 10 37  1  0
 11 38  1  0
 12 39  1  0
 12 40  1  0
 13 41  1  0
 13 42  1  0
 14 43  1  0
 14 44  1  0
 19 45  1  0
 20 46  1  0
 21 47  1  0
 23 48  1  0
 23 49  1  0
M  END
>  <Energy>  (685) 
171.08220721564783

>  <compound_id>  (685) 
35610

>  <target_id>  (685) 
1

>  <reference_id>  (685) 
44

>  <inspiration_ids>  (685) 
[44, 96]

>  <energy_score>  (685) 
39.5429756094785

>  <distance_score>  (685) 
14.427117413397298

>  <path>  (685) 
/opt/xchem-fragalysis-2/maxwin/BulkDock/SCRATCH/511013/C35610-P44/C35610-P44.minimised.mol

>  <scratch_subdir>  (685) 
/opt/xchem-fragalysis-2/maxwin/BulkDock/SCRATCH/511013/C35610-P44

>  <fragmenstein_runtime>  (685) 
31.951784372329712

>  <fragmenstein_outcome>  (685) 
too moved

>  <fragmenstein_mode>  (685) 
expansion

>  <fragmenstein_error>  (685) 


$$$$
C35610-P96
     RDKit          3D

 49 50  0  0  0  0  0  0  0  0999 V2000
   -4.5805  -17.1488   27.5658 C   0  0  0  0  0  0  0  0  0  0  0  0
   -4.3582  -16.5298   28.9285 C   0  0  0  0  0  0  0  0  0  0  0  0
   -4.2313  -14.9752   29.0065 C   0  0  0  0  0  0  0  0  0  0  0  0
   -3.2677  -14.1554   28.0322 C   0  0  0  0  0  0  0  0  0  0  0  0
   -2.0813  -15.0918   28.0978 O   0  0  0  0  0  0  0  0  0  0  0  0
   -1.4234  -15.2010   29.3648 C   0  0  0  0  0  0  0  0  0  0  0  0
    0.0351  -15.5321   29.1034 C   0  0  0  0  0  0  0  0  0  0  0  0
   -2.5178  -12.4678   28.0648 C   0  0  0  0  0  0  0  0  0  0  0  0
   -1.2979  -12.5723   28.2268 O   0  0  0  0  0  0  0  0  0  0  0  0
   -3.4178  -10.7367   28.0398 N   0  0  0  0  0  0  0  0  0  0  0  0
   -2.7278   -8.8682   28.3825 C   0  0  0  0  0  0  0  0  0  0  0  0
   -3.4148   -7.6927   29.5563 C   0  0  0  0  0  0  0  0  0  0  0  0
   -3.6205   -6.1307   29.2820 C   0  0  0  0  0  0  0  0  0  0  0  0
   -2.7113   -5.4169   28.0846 C   0  0  0  0  0  0  0  0  0  0  0  0
   -1.4292   -5.6306   28.5198 N   0  0  0  0  0  0  0  0  0  0  0  0
   -1.3204   -5.2359   29.9244 C   0  0  0  0  0  0  0  0  0  0  0  0
   -1.4744   -5.8785   30.9295 O   0  0  0  0  0  0  0  0  0  0  0  0
   -1.0674   -3.7399   30.0165 C   0  0  0  0  0  0  0  0  0  0  0  0
   -0.6007   -2.8663   28.9836 C   0  0  0  0  0  0  0  0  0  0  0  0
   -0.5658   -1.6130   29.5413 C   0  0  0  0  0  0  0  0  0  0  0  0
   -0.9849   -1.7761   30.8248 N   0  0  0  0  0  0  0  0  0  0  0  0
   -1.3505   -3.0249   31.1280 N   0  0  0  0  0  0  0  0  0  0  0  0
   -1.7136   -7.3427   27.7157 C   0  0  0  0  0  0  0  0  0  0  0  0
   -5.6287  -17.0694   27.2673 H   0  0  0  0  0  0  0  0  0  0  0  0
   -3.9549  -16.6803   26.8020 H   0  0  0  0  0  0  0  0  0  0  0  0
   -4.3084  -18.2082   27.5736 H   0  0  0  0  0  0  0  0  0  0  0  0
   -5.1774  -16.8111   29.5971 H   0  0  0  0  0  0  0  0  0  0  0  0
   -3.4736  -17.0053   29.3578 H   0  0  0  0  0  0  0  0  0  0  0  0
   -5.2423  -14.5799   28.9595 H   0  0  0  0  0  0  0  0  0  0  0  0
   -3.8600  -14.8461   30.0288 H   0  0  0  0  0  0  0  0  0  0  0  0
   -3.4800  -14.4021   27.0176 H   0  0  0  0  0  0  0  0  0  0  0  0
   -1.8511  -16.0046   29.9650 H   0  0  0  0  0  0  0  0  0  0  0  0
   -1.4970  -14.2738   29.9408 H   0  0  0  0  0  0  0  0  0  0  0  0
    0.5861  -15.6322   30.0428 H   0  0  0  0  0  0  0  0  0  0  0  0
    0.5079  -14.7515   28.4987 H   0  0  0  0  0  0  0  0  0  0  0  0
    0.1226  -16.4678   28.5413 H   0  0  0  0  0  0  0  0  0  0  0  0
   -4.4202  -10.8811   27.9801 H   0  0  0  0  0  0  0  0  0  0  0  0
   -1.8360   -9.1513   28.9042 H   0  0  0  0  0  0  0  0  0  0  0  0
   -2.7773   -7.6810   30.4368 H   0  0  0  0  0  0  0  0  0  0  0  0
   -4.3902   -8.0168   29.8699 H   0  0  0  0  0  0  0  0  0  0  0  0
   -3.5617   -5.5829   30.2270 H   0  0  0  0  0  0  0  0  0  0  0  0
   -4.6654   -6.0483   29.0916 H   0  0  0  0  0  0  0  0  0  0  0  0
   -2.8597   -5.3993   26.9938 H   0  0  0  0  0  0  0  0  0  0  0  0
   -2.9098   -4.3594   28.2885 H   0  0  0  0  0  0  0  0  0  0  0  0
   -0.3093   -3.1533   27.9835 H   0  0  0  0  0  0  0  0  0  0  0  0
   -0.2614   -0.6520   29.1548 H   0  0  0  0  0  0  0  0  0  0  0  0
   -1.0629   -1.0749   31.5511 H   0  0  0  0  0  0  0  0  0  0  0  0
   -1.8401   -7.1586   26.6440 H   0  0  0  0  0  0  0  0  0  0  0  0
   -0.6844   -7.7263   27.6205 H   0  0  0  0  0  0  0  0  0  0  0  0
  1  2  1  0
  2  3  1  0
  3  4  1  0
  4  5  1  0
  5  6  1  0
  6  7  1  0
  4  8  1  0
  8  9  2  0
  8 10  1  0
 10 11  1  0
 11 12  1  0
 12 13  1  0
 13 14  1  0
 14 15  1  0
 15 16  1  0
 16 17  2  0
 16 18  1  0
 18 19  1  0
 19 20  2  0
 20 21  1  0
 21 22  1  0
 15 23  1  0
 23 11  1  0
 22 18  2  0
  1 24  1  0
  1 25  1  0
  1 26  1  0
  2 27  1  0
  2 28  1  0
  3 29  1  0
  3 30  1  0
  4 31  1  0
  6 32  1  0
  6 33  1  0
  7 34  1  0
  7 35  1  0
  7 36  1  0
 10 37  1  0
 11 38  1  0
 12 39  1  0
 12 40  1  0
 13 41  1  0
 13 42  1  0
 14 43  1  0
 14 44  1  0
 19 45  1  0
 20 46  1  0
 21 47  1  0
 23 48  1  0
 23 49  1  0
M  END
>  <Energy>  (686) 
599.1614734364349

>  <compound_id>  (686) 
35610

>  <target_id>  (686) 
1

>  <reference_id>  (686) 
96

>  <inspiration_ids>  (686) 
[44, 96]

>  <energy_score>  (686) 
467.6222418302624

>  <distance_score>  (686) 
9.997515241981091

>  <path>  (686) 
/opt/xchem-fragalysis-2/maxwin/BulkDock/SCRATCH/511013/C35610-P96/C35610-P96.minimised.mol

>  <scratch_subdir>  (686) 
/opt/xchem-fragalysis-2/maxwin/BulkDock/SCRATCH/511013/C35610-P96

>  <fragmenstein_runtime>  (686) 
27.40794610977173

>  <fragmenstein_outcome>  (686) 
too moved

>  <fragmenstein_mode>  (686) 
expansion

>  <fragmenstein_error>  (686) 


$$$$
C35613-P44
     RDKit          3D

 52 53  0  0  0  0  0  0  0  0999 V2000
  -12.2141   -4.0609   32.5043 C   0  0  0  0  0  0  0  0  0  0  0  0
  -11.7457   -2.6377   32.2812 C   0  0  0  0  0  0  0  0  0  0  0  0
  -12.5354   -1.7770   32.0296 O   0  0  0  0  0  0  0  0  0  0  0  0
  -10.3219   -2.5860   32.4374 N   0  0  0  0  0  0  0  0  0  0  0  0
   -9.3692   -1.4838   32.2437 C   0  0  0  0  0  0  0  0  0  0  0  0
   -9.4478   -1.0530   30.7687 C   0  0  0  0  0  0  0  0  0  0  0  0
   -7.8656   -2.0201   32.4393 C   0  0  0  0  0  0  0  0  0  0  0  0
   -6.9514   -1.2371   32.3899 O   0  0  0  0  0  0  0  0  0  0  0  0
   -7.8611   -3.4555   32.5599 N   0  0  0  0  0  0  0  0  0  0  0  0
   -7.9055   -3.8522   34.0131 C   0  0  0  0  0  0  0  0  0  0  0  0
   -8.2216   -5.2969   34.3482 C   0  0  0  0  0  0  0  0  0  0  0  0
   -8.3954   -6.1363   33.0972 C   0  0  0  0  0  0  0  0  0  0  0  0
   -7.1967   -5.9968   32.1392 C   0  0  0  0  0  0  0  0  0  0  0  0
   -6.3652   -7.4003   32.1847 N   0  0  0  0  0  0  0  0  0  0  0  0
   -5.7208   -8.4604   30.8423 C   0  0  0  0  0  0  0  0  0  0  0  0
   -5.8692   -8.3682   29.5979 O   0  0  0  0  0  0  0  0  0  0  0  0
   -4.6509   -9.6563   31.8797 C   0  0  0  0  0  0  0  0  0  0  0  0
   -3.3113   -9.5112   32.3312 C   0  0  0  0  0  0  0  0  0  0  0  0
   -2.9419  -10.7526   32.8107 C   0  0  0  0  0  0  0  0  0  0  0  0
   -4.0122  -11.5734   32.6388 N   0  0  0  0  0  0  0  0  0  0  0  0
   -5.0608  -10.9426   32.1157 N   0  0  0  0  0  0  0  0  0  0  0  0
   -6.7004   -4.4567   32.5492 C   0  0  0  0  0  0  0  0  0  0  0  0
   -9.5746   -0.2595   33.2042 C   0  0  0  0  0  0  0  0  0  0  0  0
   -9.5287   -0.6438   34.6883 C   0  0  0  0  0  0  0  0  0  0  0  0
  -10.8286    0.5862   32.9568 C   0  0  0  0  0  0  0  0  0  0  0  0
  -13.3059   -4.1012   32.4500 H   0  0  0  0  0  0  0  0  0  0  0  0
  -11.8000   -4.7134   31.7303 H   0  0  0  0  0  0  0  0  0  0  0  0
  -11.9026   -4.4085   33.4936 H   0  0  0  0  0  0  0  0  0  0  0  0
   -9.9695   -3.5257   32.5657 H   0  0  0  0  0  0  0  0  0  0  0  0
   -9.0668   -1.8384   30.1048 H   0  0  0  0  0  0  0  0  0  0  0  0
   -8.8496   -0.1551   30.5986 H   0  0  0  0  0  0  0  0  0  0  0  0
  -10.4725   -0.8352   30.4511 H   0  0  0  0  0  0  0  0  0  0  0  0
   -7.0822   -3.4178   34.6085 H   0  0  0  0  0  0  0  0  0  0  0  0
   -8.7550   -3.2917   34.4251 H   0  0  0  0  0  0  0  0  0  0  0  0
   -9.1287   -5.3556   34.9626 H   0  0  0  0  0  0  0  0  0  0  0  0
   -7.4169   -5.7118   34.9683 H   0  0  0  0  0  0  0  0  0  0  0  0
   -9.3537   -5.8801   32.6316 H   0  0  0  0  0  0  0  0  0  0  0  0
   -8.5025   -7.1464   33.4969 H   0  0  0  0  0  0  0  0  0  0  0  0
   -6.9173   -5.7404   31.1364 H   0  0  0  0  0  0  0  0  0  0  0  0
   -6.1257   -7.8122   33.1083 H   0  0  0  0  0  0  0  0  0  0  0  0
   -2.6763   -8.6408   32.2560 H   0  0  0  0  0  0  0  0  0  0  0  0
   -2.0140  -11.1208   33.2253 H   0  0  0  0  0  0  0  0  0  0  0  0
   -4.0970  -12.5636   32.8509 H   0  0  0  0  0  0  0  0  0  0  0  0
   -5.9599   -4.3270   33.3363 H   0  0  0  0  0  0  0  0  0  0  0  0
   -6.1201   -4.0851   31.6870 H   0  0  0  0  0  0  0  0  0  0  0  0
   -8.7302    0.4252   33.0393 H   0  0  0  0  0  0  0  0  0  0  0  0
   -8.5575   -1.0679   34.9586 H   0  0  0  0  0  0  0  0  0  0  0  0
  -10.3101   -1.3670   34.9423 H   0  0  0  0  0  0  0  0  0  0  0  0
   -9.6748    0.2387   35.3215 H   0  0  0  0  0  0  0  0  0  0  0  0
  -10.9572    0.8446   31.9029 H   0  0  0  0  0  0  0  0  0  0  0  0
  -10.7527    1.5324   33.5062 H   0  0  0  0  0  0  0  0  0  0  0  0
  -11.7328    0.0912   33.3175 H   0  0  0  0  0  0  0  0  0  0  0  0
  1  2  1  0
  2  3  2  0
  2  4  1  0
  4  5  1  0
  5  6  1  0
  5  7  1  0
  7  8  2  0
  7  9  1  0
  9 10  1  0
 10 11  1  0
 11 12  1  0
 12 13  1  0
 13 14  1  0
 14 15  1  0
 15 16  2  0
 15 17  1  0
 17 18  1  0
 18 19  2  0
 19 20  1  0
 20 21  1  0
 13 22  1  0
  5 23  1  0
 23 24  1  0
 23 25  1  0
 22  9  1  0
 21 17  2  0
  1 26  1  0
  1 27  1  0
  1 28  1  0
  4 29  1  0
  6 30  1  0
  6 31  1  0
  6 32  1  0
 10 33  1  0
 10 34  1  0
 11 35  1  0
 11 36  1  0
 12 37  1  0
 12 38  1  0
 13 39  1  0
 14 40  1  0
 18 41  1  0
 19 42  1  0
 20 43  1  0
 22 44  1  0
 22 45  1  0
 23 46  1  0
 24 47  1  0
 24 48  1  0
 24 49  1  0
 25 50  1  0
 25 51  1  0
 25 52  1  0
M  END
>  <Energy>  (687) 
306.61455726976993

>  <compound_id>  (687) 
35613

>  <target_id>  (687) 
1

>  <reference_id>  (687) 
44

>  <inspiration_ids>  (687) 
[44, 96]

>  <energy_score>  (687) 
163.978948184817

>  <distance_score>  (687) 
13.210598928486313

>  <path>  (687) 
/opt/xchem-fragalysis-2/maxwin/BulkDock/SCRATCH/511013/C35613-P44/C35613-P44.minimised.mol

>  <scratch_subdir>  (687) 
/opt/xchem-fragalysis-2/maxwin/BulkDock/SCRATCH/511013/C35613-P44

>  <fragmenstein_runtime>  (687) 
33.75996255874634

>  <fragmenstein_outcome>  (687) 
too moved

>  <fragmenstein_mode>  (687) 
expansion

>  <fragmenstein_error>  (687) 


$$$$
C35613-P96
     RDKit          3D

 52 53  0  0  0  0  0  0  0  0999 V2000
   -3.3053   -0.2877   29.2789 C   0  0  0  0  0  0  0  0  0  0  0  0
   -2.4759   -1.3659   29.9615 C   0  0  0  0  0  0  0  0  0  0  0  0
   -1.7938   -1.0524   30.8959 O   0  0  0  0  0  0  0  0  0  0  0  0
   -2.5995   -2.6270   29.2632 N   0  0  0  0  0  0  0  0  0  0  0  0
   -1.8549   -3.8960   29.4145 C   0  0  0  0  0  0  0  0  0  0  0  0
   -1.6150   -4.1283   30.9073 C   0  0  0  0  0  0  0  0  0  0  0  0
   -2.5246   -5.3143   28.6941 C   0  0  0  0  0  0  0  0  0  0  0  0
   -2.6670   -5.2304   27.4952 O   0  0  0  0  0  0  0  0  0  0  0  0
   -2.8549   -6.4373   29.6301 N   0  0  0  0  0  0  0  0  0  0  0  0
   -4.1632   -6.2835   30.1254 C   0  0  0  0  0  0  0  0  0  0  0  0
   -5.1961   -7.0111   30.9281 C   0  0  0  0  0  0  0  0  0  0  0  0
   -5.8123   -8.3055   30.2263 C   0  0  0  0  0  0  0  0  0  0  0  0
   -4.8535   -9.3370   29.3633 C   0  0  0  0  0  0  0  0  0  0  0  0
   -5.5596  -10.6068   28.3146 N   0  0  0  0  0  0  0  0  0  0  0  0
   -6.5432  -12.0344   28.7114 C   0  0  0  0  0  0  0  0  0  0  0  0
   -6.8333  -12.4070   29.8118 O   0  0  0  0  0  0  0  0  0  0  0  0
   -7.2637  -12.9886   27.6133 C   0  0  0  0  0  0  0  0  0  0  0  0
   -7.8703  -12.8980   26.3237 C   0  0  0  0  0  0  0  0  0  0  0  0
   -8.5058  -14.0974   26.0734 C   0  0  0  0  0  0  0  0  0  0  0  0
   -8.2786  -14.8629   27.1646 N   0  0  0  0  0  0  0  0  0  0  0  0
   -7.4935  -14.2668   28.0644 N   0  0  0  0  0  0  0  0  0  0  0  0
   -3.4001   -7.9601   29.3300 C   0  0  0  0  0  0  0  0  0  0  0  0
   -0.5570   -3.5211   28.5705 C   0  0  0  0  0  0  0  0  0  0  0  0
    0.4235   -2.5077   29.2040 C   0  0  0  0  0  0  0  0  0  0  0  0
   -0.8218   -2.9792   27.1405 C   0  0  0  0  0  0  0  0  0  0  0  0
   -3.9314   -0.6625   28.4670 H   0  0  0  0  0  0  0  0  0  0  0  0
   -2.6208    0.4540   28.8556 H   0  0  0  0  0  0  0  0  0  0  0  0
   -3.9479    0.1990   30.0171 H   0  0  0  0  0  0  0  0  0  0  0  0
   -3.2036   -2.5064   28.4752 H   0  0  0  0  0  0  0  0  0  0  0  0
   -0.9259   -3.4171   31.3652 H   0  0  0  0  0  0  0  0  0  0  0  0
   -1.2281   -5.1222   31.0889 H   0  0  0  0  0  0  0  0  0  0  0  0
   -2.5457   -4.0325   31.4760 H   0  0  0  0  0  0  0  0  0  0  0  0
   -3.8219   -5.5710   30.8765 H   0  0  0  0  0  0  0  0  0  0  0  0
   -4.6809   -5.8133   29.3338 H   0  0  0  0  0  0  0  0  0  0  0  0
   -4.8696   -7.0764   31.9789 H   0  0  0  0  0  0  0  0  0  0  0  0
   -5.9871   -6.3249   31.2149 H   0  0  0  0  0  0  0  0  0  0  0  0
   -6.4162   -8.7682   30.9904 H   0  0  0  0  0  0  0  0  0  0  0  0
   -6.5680   -8.0985   29.5006 H   0  0  0  0  0  0  0  0  0  0  0  0
   -4.1243   -9.5146   28.5443 H   0  0  0  0  0  0  0  0  0  0  0  0
   -5.5414  -10.4761   27.3180 H   0  0  0  0  0  0  0  0  0  0  0  0
   -7.8846  -12.0627   25.6461 H   0  0  0  0  0  0  0  0  0  0  0  0
   -9.0969  -14.4444   25.2394 H   0  0  0  0  0  0  0  0  0  0  0  0
   -8.6146  -15.8030   27.3566 H   0  0  0  0  0  0  0  0  0  0  0  0
   -3.0057   -8.0612   30.3354 H   0  0  0  0  0  0  0  0  0  0  0  0
   -2.6237   -8.3572   28.6535 H   0  0  0  0  0  0  0  0  0  0  0  0
   -0.0363   -4.4510   28.4255 H   0  0  0  0  0  0  0  0  0  0  0  0
    1.3859   -2.5491   28.6793 H   0  0  0  0  0  0  0  0  0  0  0  0
    0.6368   -2.6911   30.2573 H   0  0  0  0  0  0  0  0  0  0  0  0
    0.0662   -1.4782   29.1071 H   0  0  0  0  0  0  0  0  0  0  0  0
   -1.4382   -2.0752   27.1354 H   0  0  0  0  0  0  0  0  0  0  0  0
   -1.2906   -3.7155   26.4869 H   0  0  0  0  0  0  0  0  0  0  0  0
    0.1257   -2.6996   26.6677 H   0  0  0  0  0  0  0  0  0  0  0  0
  1  2  1  0
  2  3  2  0
  2  4  1  0
  4  5  1  0
  5  6  1  0
  5  7  1  0
  7  8  2  0
  7  9  1  0
  9 10  1  0
 10 11  1  0
 11 12  1  0
 12 13  1  0
 13 14  1  0
 14 15  1  0
 15 16  2  0
 15 17  1  0
 17 18  1  0
 18 19  2  0
 19 20  1  0
 20 21  1  0
 13 22  1  0
  5 23  1  0
 23 24  1  0
 23 25  1  0
 22  9  1  0
 21 17  2  0
  1 26  1  0
  1 27  1  0
  1 28  1  0
  4 29  1  0
  6 30  1  0
  6 31  1  0
  6 32  1  0
 10 33  1  0
 10 34  1  0
 11 35  1  0
 11 36  1  0
 12 37  1  0
 12 38  1  0
 13 39  1  0
 14 40  1  0
 18 41  1  0
 19 42  1  0
 20 43  1  0
 22 44  1  0
 22 45  1  0
 23 46  1  0
 24 47  1  0
 24 48  1  0
 24 49  1  0
 25 50  1  0
 25 51  1  0
 25 52  1  0
M  END
>  <Energy>  (688) 
501.62021199764712

>  <compound_id>  (688) 
35613

>  <target_id>  (688) 
1

>  <reference_id>  (688) 
96

>  <inspiration_ids>  (688) 
[44, 96]

>  <energy_score>  (688) 
358.9846029126936

>  <distance_score>  (688) 
10.557572639819838

>  <path>  (688) 
/opt/xchem-fragalysis-2/maxwin/BulkDock/SCRATCH/511013/C35613-P96/C35613-P96.minimised.mol

>  <scratch_subdir>  (688) 
/opt/xchem-fragalysis-2/maxwin/BulkDock/SCRATCH/511013/C35613-P96

>  <fragmenstein_runtime>  (688) 
19.20476198196411

>  <fragmenstein_outcome>  (688) 
too moved

>  <fragmenstein_mode>  (688) 
expansion

>  <fragmenstein_error>  (688) 


$$$$
C35616-P44
     RDKit          3D

 45 46  0  0  0  0  0  0  0  0999 V2000
   -3.0948  -16.7714   30.4797 C   0  0  0  0  0  0  0  0  0  0  0  0
   -2.3674  -15.8557   29.5423 C   0  0  0  0  0  0  0  0  0  0  0  0
   -1.4940  -16.2192   28.7666 O   0  0  0  0  0  0  0  0  0  0  0  0
   -2.8366  -14.5823   29.7004 O   0  0  0  0  0  0  0  0  0  0  0  0
   -2.3387  -13.4435   28.8629 C   0  0  0  0  0  0  0  0  0  0  0  0
   -2.5189  -11.7688   29.3248 C   0  0  0  0  0  0  0  0  0  0  0  0
   -1.2730  -10.3054   29.6991 C   0  0  0  0  0  0  0  0  0  0  0  0
   -0.5211  -10.1363   28.7870 O   0  0  0  0  0  0  0  0  0  0  0  0
   -1.4052   -9.5680   30.9648 N   0  0  0  0  0  0  0  0  0  0  0  0
   -0.5980   -8.4757   31.5313 C   0  0  0  0  0  0  0  0  0  0  0  0
   -1.1814   -7.1022   31.8364 C   0  0  0  0  0  0  0  0  0  0  0  0
   -0.5177   -5.9526   31.0788 C   0  0  0  0  0  0  0  0  0  0  0  0
    0.7873   -5.6046   31.7565 C   0  0  0  0  0  0  0  0  0  0  0  0
    0.5821   -5.5752   33.2797 C   0  0  0  0  0  0  0  0  0  0  0  0
    0.3640   -6.9265   33.9533 N   0  0  0  0  0  0  0  0  0  0  0  0
    0.7881   -6.8686   35.3159 C   0  0  0  0  0  0  0  0  0  0  0  0
    0.1762   -6.5905   36.3129 O   0  0  0  0  0  0  0  0  0  0  0  0
    2.2342   -7.2299   35.4745 C   0  0  0  0  0  0  0  0  0  0  0  0
    2.9418   -7.2055   36.7129 C   0  0  0  0  0  0  0  0  0  0  0  0
    4.2396   -7.5291   36.4117 C   0  0  0  0  0  0  0  0  0  0  0  0
    4.2680   -7.7184   35.0663 N   0  0  0  0  0  0  0  0  0  0  0  0
    3.0635   -7.6087   34.4738 N   0  0  0  0  0  0  0  0  0  0  0  0
   -1.0092   -6.7689   33.3405 C   0  0  0  0  0  0  0  0  0  0  0  0
   -4.1604  -16.7799   30.2366 H   0  0  0  0  0  0  0  0  0  0  0  0
   -2.9377  -16.4467   31.5114 H   0  0  0  0  0  0  0  0  0  0  0  0
   -2.7037  -17.7871   30.3713 H   0  0  0  0  0  0  0  0  0  0  0  0
   -1.4341  -13.9511   28.7570 H   0  0  0  0  0  0  0  0  0  0  0  0
   -2.4839  -13.4123   27.7704 H   0  0  0  0  0  0  0  0  0  0  0  0
   -2.7947  -11.5186   28.3023 H   0  0  0  0  0  0  0  0  0  0  0  0
   -3.5001  -11.6798   29.7379 H   0  0  0  0  0  0  0  0  0  0  0  0
   -2.1925   -9.9212   31.4690 H   0  0  0  0  0  0  0  0  0  0  0  0
    0.2384   -8.3427   30.8388 H   0  0  0  0  0  0  0  0  0  0  0  0
   -0.2180   -8.8817   32.4606 H   0  0  0  0  0  0  0  0  0  0  0  0
   -2.2280   -7.1699   31.5761 H   0  0  0  0  0  0  0  0  0  0  0  0
   -1.1532   -5.0626   31.1385 H   0  0  0  0  0  0  0  0  0  0  0  0
   -0.3690   -6.1876   30.0242 H   0  0  0  0  0  0  0  0  0  0  0  0
    1.1457   -4.6311   31.4040 H   0  0  0  0  0  0  0  0  0  0  0  0
    1.5558   -6.3452   31.5043 H   0  0  0  0  0  0  0  0  0  0  0  0
    1.5623   -5.2450   33.6602 H   0  0  0  0  0  0  0  0  0  0  0  0
   -0.0584   -4.7531   33.6448 H   0  0  0  0  0  0  0  0  0  0  0  0
    2.5359   -6.9557   37.6843 H   0  0  0  0  0  0  0  0  0  0  0  0
    5.1279   -7.6157   37.0213 H   0  0  0  0  0  0  0  0  0  0  0  0
    5.0748   -7.9346   34.4893 H   0  0  0  0  0  0  0  0  0  0  0  0
   -1.5724   -5.8880   33.6808 H   0  0  0  0  0  0  0  0  0  0  0  0
   -1.5662   -7.5608   33.8681 H   0  0  0  0  0  0  0  0  0  0  0  0
  1  2  1  0
  2  3  2  0
  2  4  1  0
  4  5  1  0
  5  6  1  0
  6  7  1  0
  7  8  2  0
  7  9  1  0
  9 10  1  0
 10 11  1  0
 11 12  1  0
 12 13  1  0
 13 14  1  0
 14 15  1  0
 15 16  1  0
 16 17  2  0
 16 18  1  0
 18 19  1  0
 19 20  2  0
 20 21  1  0
 21 22  1  0
 15 23  1  0
 23 11  1  0
 22 18  2  0
  1 24  1  0
  1 25  1  0
  1 26  1  0
  5 27  1  0
  5 28  1  0
  6 29  1  0
  6 30  1  0
  9 31  1  0
 10 32  1  0
 10 33  1  0
 11 34  1  0
 12 35  1  0
 12 36  1  0
 13 37  1  0
 13 38  1  0
 14 39  1  0
 14 40  1  0
 19 41  1  0
 20 42  1  0
 21 43  1  0
 23 44  1  0
 23 45  1  0
M  END
>  <Energy>  (689) 
203.58944981706114

>  <compound_id>  (689) 
35616

>  <target_id>  (689) 
1

>  <reference_id>  (689) 
44

>  <inspiration_ids>  (689) 
[44, 96]

>  <energy_score>  (689) 
143.59580170833226

>  <distance_score>  (689) 
11.381804885986258

>  <path>  (689) 
/opt/xchem-fragalysis-2/maxwin/BulkDock/SCRATCH/511013/C35616-P44/C35616-P44.minimised.mol

>  <scratch_subdir>  (689) 
/opt/xchem-fragalysis-2/maxwin/BulkDock/SCRATCH/511013/C35616-P44

>  <fragmenstein_runtime>  (689) 
35.9827926158905

>  <fragmenstein_outcome>  (689) 
too moved

>  <fragmenstein_mode>  (689) 
expansion

>  <fragmenstein_error>  (689) 


$$$$
C35616-P96
     RDKit          3D

 45 46  0  0  0  0  0  0  0  0999 V2000
  -10.8594  -10.5078   16.6721 C   0  0  0  0  0  0  0  0  0  0  0  0
   -9.7462   -9.9777   17.5226 C   0  0  0  0  0  0  0  0  0  0  0  0
   -8.5582  -10.1560   17.2981 O   0  0  0  0  0  0  0  0  0  0  0  0
  -10.2555   -9.2736   18.5712 O   0  0  0  0  0  0  0  0  0  0  0  0
   -9.2611   -8.7313   19.4534 C   0  0  0  0  0  0  0  0  0  0  0  0
   -9.9761   -8.0158   20.5854 C   0  0  0  0  0  0  0  0  0  0  0  0
   -8.9627   -7.3609   21.5081 C   0  0  0  0  0  0  0  0  0  0  0  0
   -8.5436   -7.9771   22.4438 O   0  0  0  0  0  0  0  0  0  0  0  0
   -8.6646   -6.0340   21.0498 N   0  0  0  0  0  0  0  0  0  0  0  0
   -7.6971   -5.0629   21.5172 C   0  0  0  0  0  0  0  0  0  0  0  0
   -8.0985   -3.6121   21.2048 C   0  0  0  0  0  0  0  0  0  0  0  0
   -7.1968   -2.6246   21.9330 C   0  0  0  0  0  0  0  0  0  0  0  0
   -7.2169   -1.3294   21.1648 C   0  0  0  0  0  0  0  0  0  0  0  0
   -7.0280   -1.5968   19.6551 C   0  0  0  0  0  0  0  0  0  0  0  0
   -6.6632   -3.0080   19.2027 N   0  0  0  0  0  0  0  0  0  0  0  0
   -6.1319   -2.9761   17.8793 C   0  0  0  0  0  0  0  0  0  0  0  0
   -6.6811   -3.0813   16.8142 O   0  0  0  0  0  0  0  0  0  0  0  0
   -4.6512   -2.7797   17.9093 C   0  0  0  0  0  0  0  0  0  0  0  0
   -3.8061   -2.5916   16.7796 C   0  0  0  0  0  0  0  0  0  0  0  0
   -2.5508   -2.3687   17.2893 C   0  0  0  0  0  0  0  0  0  0  0  0
   -2.6834   -2.4238   18.6448 N   0  0  0  0  0  0  0  0  0  0  0  0
   -3.9273   -2.7361   19.0471 N   0  0  0  0  0  0  0  0  0  0  0  0
   -8.0451   -3.2919   19.6920 C   0  0  0  0  0  0  0  0  0  0  0  0
  -10.4385  -11.0652   15.8303 H   0  0  0  0  0  0  0  0  0  0  0  0
  -11.4525   -9.6785   16.2786 H   0  0  0  0  0  0  0  0  0  0  0  0
  -11.4850  -11.1841   17.2600 H   0  0  0  0  0  0  0  0  0  0  0  0
   -8.6256   -8.0322   18.8966 H   0  0  0  0  0  0  0  0  0  0  0  0
   -8.6373   -9.5406   19.8521 H   0  0  0  0  0  0  0  0  0  0  0  0
  -10.5796   -8.7237   21.1666 H   0  0  0  0  0  0  0  0  0  0  0  0
  -10.6894   -7.2789   20.1975 H   0  0  0  0  0  0  0  0  0  0  0  0
   -9.1456   -5.8716   20.1738 H   0  0  0  0  0  0  0  0  0  0  0  0
   -6.7357   -5.3179   21.0579 H   0  0  0  0  0  0  0  0  0  0  0  0
   -7.5919   -5.2120   22.5973 H   0  0  0  0  0  0  0  0  0  0  0  0
   -9.1358   -3.4654   21.5346 H   0  0  0  0  0  0  0  0  0  0  0  0
   -6.1652   -2.9913   21.9365 H   0  0  0  0  0  0  0  0  0  0  0  0
   -7.5139   -2.4845   22.9709 H   0  0  0  0  0  0  0  0  0  0  0  0
   -6.4337   -0.6793   21.5526 H   0  0  0  0  0  0  0  0  0  0  0  0
   -8.1687   -0.8063   21.3169 H   0  0  0  0  0  0  0  0  0  0  0  0
   -6.1430   -1.0082   19.3808 H   0  0  0  0  0  0  0  0  0  0  0  0
   -7.7839   -1.1057   19.0156 H   0  0  0  0  0  0  0  0  0  0  0  0
   -4.1026   -2.5917   15.7402 H   0  0  0  0  0  0  0  0  0  0  0  0
   -1.5995   -2.1543   16.8250 H   0  0  0  0  0  0  0  0  0  0  0  0
   -1.9717   -2.2539   19.3524 H   0  0  0  0  0  0  0  0  0  0  0  0
   -8.8732   -2.6527   19.3354 H   0  0  0  0  0  0  0  0  0  0  0  0
   -8.2927   -4.2162   19.1501 H   0  0  0  0  0  0  0  0  0  0  0  0
  1  2  1  0
  2  3  2  0
  2  4  1  0
  4  5  1  0
  5  6  1  0
  6  7  1  0
  7  8  2  0
  7  9  1  0
  9 10  1  0
 10 11  1  0
 11 12  1  0
 12 13  1  0
 13 14  1  0
 14 15  1  0
 15 16  1  0
 16 17  2  0
 16 18  1  0
 18 19  1  0
 19 20  2  0
 20 21  1  0
 21 22  1  0
 15 23  1  0
 23 11  1  0
 22 18  2  0
  1 24  1  0
  1 25  1  0
  1 26  1  0
  5 27  1  0
  5 28  1  0
  6 29  1  0
  6 30  1  0
  9 31  1  0
 10 32  1  0
 10 33  1  0
 11 34  1  0
 12 35  1  0
 12 36  1  0
 13 37  1  0
 13 38  1  0
 14 39  1  0
 14 40  1  0
 19 41  1  0
 20 42  1  0
 21 43  1  0
 23 44  1  0
 23 45  1  0
M  END
>  <Energy>  (690) 
89.740253360487145

>  <compound_id>  (690) 
35616

>  <target_id>  (690) 
1

>  <reference_id>  (690) 
96

>  <inspiration_ids>  (690) 
[44, 96]

>  <energy_score>  (690) 
29.74660525175409

>  <distance_score>  (690) 
15.602822128676909

>  <path>  (690) 
/opt/xchem-fragalysis-2/maxwin/BulkDock/SCRATCH/511013/C35616-P96/C35616-P96.minimised.mol

>  <scratch_subdir>  (690) 
/opt/xchem-fragalysis-2/maxwin/BulkDock/SCRATCH/511013/C35616-P96

>  <fragmenstein_runtime>  (690) 
26.101096153259277

>  <fragmenstein_outcome>  (690) 
too moved

>  <fragmenstein_mode>  (690) 
expansion

>  <fragmenstein_error>  (690) 


$$$$
C35617-P44
     RDKit          3D

 50 51  0  0  0  0  0  0  0  0999 V2000
   -2.5201   -8.7725   31.5820 C   0  0  0  0  0  0  0  0  0  0  0  0
   -1.5493  -10.0214   30.6062 C   0  0  0  0  0  0  0  0  0  0  0  0
   -2.2961  -11.5103   29.6028 N   0  0  0  0  0  0  0  0  0  0  0  0
   -3.9110  -12.5933   29.5579 C   0  0  0  0  0  0  0  0  0  0  0  0
   -5.2963  -14.1064   30.2316 C   0  0  0  0  0  0  0  0  0  0  0  0
   -6.5583  -14.1022   29.3992 C   0  0  0  0  0  0  0  0  0  0  0  0
   -4.8679  -16.0399   30.0462 N   0  0  0  0  0  0  0  0  0  0  0  0
   -4.5027  -15.5519   31.4717 C   0  0  0  0  0  0  0  0  0  0  0  0
   -5.9598  -17.4827   29.5259 C   0  0  0  0  0  0  0  0  0  0  0  0
   -6.6573  -18.2316   30.2788 O   0  0  0  0  0  0  0  0  0  0  0  0
   -6.1721  -17.8704   28.1628 C   0  0  0  0  0  0  0  0  0  0  0  0
   -5.9788  -19.3398   27.0109 C   0  0  0  0  0  0  0  0  0  0  0  0
   -7.2797  -19.8622   27.0229 C   0  0  0  0  0  0  0  0  0  0  0  0
   -8.3149  -18.5634   28.0221 N   0  0  0  0  0  0  0  0  0  0  0  0
   -7.5680  -17.4373   28.1072 N   0  0  0  0  0  0  0  0  0  0  0  0
   -0.3593   -8.8061   31.1824 C   0  0  0  0  0  0  0  0  0  0  0  0
   -0.1815   -8.9379   32.3699 O   0  0  0  0  0  0  0  0  0  0  0  0
    0.1848   -7.7442   30.2897 N   0  0  0  0  0  0  0  0  0  0  0  0
    0.9832   -6.5115   30.6053 C   0  0  0  0  0  0  0  0  0  0  0  0
    1.3533   -5.4011   29.6463 C   0  0  0  0  0  0  0  0  0  0  0  0
    2.5419   -5.8738   28.8633 C   0  0  0  0  0  0  0  0  0  0  0  0
    2.4718   -7.3813   28.6865 C   0  0  0  0  0  0  0  0  0  0  0  0
    1.5490   -8.1872   29.6813 C   0  0  0  0  0  0  0  0  0  0  0  0
   -3.5927   -8.7124   31.4054 H   0  0  0  0  0  0  0  0  0  0  0  0
   -2.3726   -8.8104   32.6599 H   0  0  0  0  0  0  0  0  0  0  0  0
   -2.2205   -7.7494   31.2864 H   0  0  0  0  0  0  0  0  0  0  0  0
   -1.1862   -9.6807   29.6162 H   0  0  0  0  0  0  0  0  0  0  0  0
   -2.2559  -11.2143   28.6255 H   0  0  0  0  0  0  0  0  0  0  0  0
   -4.3489  -12.0436   28.7550 H   0  0  0  0  0  0  0  0  0  0  0  0
   -3.1078  -13.3468   29.4803 H   0  0  0  0  0  0  0  0  0  0  0  0
   -5.7967  -13.9355   31.1978 H   0  0  0  0  0  0  0  0  0  0  0  0
   -7.2686  -13.9492   30.1795 H   0  0  0  0  0  0  0  0  0  0  0  0
   -6.6640  -15.0450   28.9155 H   0  0  0  0  0  0  0  0  0  0  0  0
   -6.7993  -13.4460   28.5736 H   0  0  0  0  0  0  0  0  0  0  0  0
   -3.5828  -14.9797   31.4876 H   0  0  0  0  0  0  0  0  0  0  0  0
   -4.0291  -16.3556   32.0578 H   0  0  0  0  0  0  0  0  0  0  0  0
   -5.3588  -15.3822   32.1379 H   0  0  0  0  0  0  0  0  0  0  0  0
   -5.6746  -19.4224   25.9776 H   0  0  0  0  0  0  0  0  0  0  0  0
   -7.7032  -20.8339   27.4193 H   0  0  0  0  0  0  0  0  0  0  0  0
   -9.3324  -18.5205   27.9724 H   0  0  0  0  0  0  0  0  0  0  0  0
    0.2549   -6.0103   31.2662 H   0  0  0  0  0  0  0  0  0  0  0  0
    1.7775   -6.7063   31.3510 H   0  0  0  0  0  0  0  0  0  0  0  0
    0.5073   -5.0810   29.0428 H   0  0  0  0  0  0  0  0  0  0  0  0
    1.6439   -4.5076   30.2142 H   0  0  0  0  0  0  0  0  0  0  0  0
    3.4547   -5.6347   29.4244 H   0  0  0  0  0  0  0  0  0  0  0  0
    2.6312   -5.3544   27.9034 H   0  0  0  0  0  0  0  0  0  0  0  0
    2.2266   -7.6267   27.6512 H   0  0  0  0  0  0  0  0  0  0  0  0
    3.4881   -7.7894   28.7852 H   0  0  0  0  0  0  0  0  0  0  0  0
    1.2933   -9.0969   29.1313 H   0  0  0  0  0  0  0  0  0  0  0  0
    2.2172   -8.4874   30.4931 H   0  0  0  0  0  0  0  0  0  0  0  0
  1  2  1  0
  2  3  1  0
  3  4  1  0
  4  5  1  0
  5  6  1  0
  5  7  1  0
  7  8  1  0
  7  9  1  0
  9 10  2  0
  9 11  1  0
 11 12  1  0
 12 13  2  0
 13 14  1  0
 14 15  1  0
  2 16  1  0
 16 17  2  0
 16 18  1  0
 18 19  1  0
 19 20  1  0
 20 21  1  0
 21 22  1  0
 22 23  1  0
 15 11  2  0
 23 18  1  0
  1 24  1  0
  1 25  1  0
  1 26  1  0
  2 27  1  0
  3 28  1  0
  4 29  1  0
  4 30  1  0
  5 31  1  0
  6 32  1  0
  6 33  1  0
  6 34  1  0
  8 35  1  0
  8 36  1  0
  8 37  1  0
 12 38  1  0
 13 39  1  0
 14 40  1  0
 19 41  1  0
 19 42  1  0
 20 43  1  0
 20 44  1  0
 21 45  1  0
 21 46  1  0
 22 47  1  0
 22 48  1  0
 23 49  1  0
 23 50  1  0
M  END
>  <Energy>  (691) 
1128.6724890689482

>  <compound_id>  (691) 
35617

>  <target_id>  (691) 
1

>  <reference_id>  (691) 
44

>  <inspiration_ids>  (691) 
[44, 96]

>  <energy_score>  (691) 
959.7270900252286

>  <distance_score>  (691) 
8.944694675267888

>  <path>  (691) 
/opt/xchem-fragalysis-2/maxwin/BulkDock/SCRATCH/511013/C35617-P44/C35617-P44.minimised.mol

>  <scratch_subdir>  (691) 
/opt/xchem-fragalysis-2/maxwin/BulkDock/SCRATCH/511013/C35617-P44

>  <fragmenstein_runtime>  (691) 
25.976558923721313

>  <fragmenstein_outcome>  (691) 
too moved

>  <fragmenstein_mode>  (691) 
expansion

>  <fragmenstein_error>  (691) 


$$$$
C35617-P96
     RDKit          3D

 50 51  0  0  0  0  0  0  0  0999 V2000
   -6.5376   -8.4453   29.9707 C   0  0  0  0  0  0  0  0  0  0  0  0
   -5.0435   -9.0737   29.5555 C   0  0  0  0  0  0  0  0  0  0  0  0
   -5.4988  -10.5233   28.4202 N   0  0  0  0  0  0  0  0  0  0  0  0
   -6.7272  -11.9771   28.3896 C   0  0  0  0  0  0  0  0  0  0  0  0
   -8.1686  -12.5111   27.0486 C   0  0  0  0  0  0  0  0  0  0  0  0
   -7.6219  -11.9931   25.7324 C   0  0  0  0  0  0  0  0  0  0  0  0
   -9.6121  -13.4117   26.1001 N   0  0  0  0  0  0  0  0  0  0  0  0
   -8.7194  -14.4374   26.3718 C   0  0  0  0  0  0  0  0  0  0  0  0
  -11.1741  -13.2253   26.6071 C   0  0  0  0  0  0  0  0  0  0  0  0
  -11.8227  -13.8792   27.3916 O   0  0  0  0  0  0  0  0  0  0  0  0
  -12.0806  -12.1632   25.9415 C   0  0  0  0  0  0  0  0  0  0  0  0
  -12.0333  -11.3936   24.7436 C   0  0  0  0  0  0  0  0  0  0  0  0
  -13.3186  -11.0119   24.4529 C   0  0  0  0  0  0  0  0  0  0  0  0
  -14.0889  -11.5592   25.4174 N   0  0  0  0  0  0  0  0  0  0  0  0
  -13.3975  -12.2515   26.3086 N   0  0  0  0  0  0  0  0  0  0  0  0
   -3.7185   -7.5340   29.9867 C   0  0  0  0  0  0  0  0  0  0  0  0
   -2.9143   -7.9076   30.7438 O   0  0  0  0  0  0  0  0  0  0  0  0
   -3.5262   -5.8553   29.7118 N   0  0  0  0  0  0  0  0  0  0  0  0
   -2.6200   -4.8071   30.3330 C   0  0  0  0  0  0  0  0  0  0  0  0
   -2.2293   -3.3385   30.1016 C   0  0  0  0  0  0  0  0  0  0  0  0
   -1.8060   -3.0659   28.7028 C   0  0  0  0  0  0  0  0  0  0  0  0
   -1.4552   -4.4157   28.1710 C   0  0  0  0  0  0  0  0  0  0  0  0
   -2.5080   -5.5467   28.4421 C   0  0  0  0  0  0  0  0  0  0  0  0
   -6.3912   -7.5718   30.6161 H   0  0  0  0  0  0  0  0  0  0  0  0
   -7.1622   -9.1833   30.4600 H   0  0  0  0  0  0  0  0  0  0  0  0
   -7.1805   -8.1049   29.1428 H   0  0  0  0  0  0  0  0  0  0  0  0
   -4.2261   -9.1702   28.7979 H   0  0  0  0  0  0  0  0  0  0  0  0
   -4.6010  -10.9963   28.3432 H   0  0  0  0  0  0  0  0  0  0  0  0
   -6.1259  -12.8430   28.6133 H   0  0  0  0  0  0  0  0  0  0  0  0
   -7.1187  -11.9544   29.4204 H   0  0  0  0  0  0  0  0  0  0  0  0
   -7.5566  -13.3378   27.2711 H   0  0  0  0  0  0  0  0  0  0  0  0
   -6.8248  -11.2988   25.8148 H   0  0  0  0  0  0  0  0  0  0  0  0
   -7.4601  -12.7722   25.0123 H   0  0  0  0  0  0  0  0  0  0  0  0
   -8.3019  -11.3525   25.2127 H   0  0  0  0  0  0  0  0  0  0  0  0
   -8.2193  -14.8763   27.2238 H   0  0  0  0  0  0  0  0  0  0  0  0
   -8.3341  -14.6336   25.3644 H   0  0  0  0  0  0  0  0  0  0  0  0
   -9.4194  -15.2811   26.2069 H   0  0  0  0  0  0  0  0  0  0  0  0
  -11.1883  -11.1671   24.1219 H   0  0  0  0  0  0  0  0  0  0  0  0
  -13.7373  -10.4317   23.6434 H   0  0  0  0  0  0  0  0  0  0  0  0
  -15.0963  -11.5057   25.5275 H   0  0  0  0  0  0  0  0  0  0  0  0
   -1.6922   -5.3562   30.5844 H   0  0  0  0  0  0  0  0  0  0  0  0
   -3.0566   -4.7710   31.3442 H   0  0  0  0  0  0  0  0  0  0  0  0
   -2.9377   -2.6018   30.4515 H   0  0  0  0  0  0  0  0  0  0  0  0
   -1.3625   -3.1531   30.7550 H   0  0  0  0  0  0  0  0  0  0  0  0
   -0.9446   -2.3897   28.6685 H   0  0  0  0  0  0  0  0  0  0  0  0
   -2.5964   -2.5799   28.1363 H   0  0  0  0  0  0  0  0  0  0  0  0
   -1.2774   -4.3454   27.0908 H   0  0  0  0  0  0  0  0  0  0  0  0
   -0.5140   -4.7208   28.6135 H   0  0  0  0  0  0  0  0  0  0  0  0
   -3.1909   -5.2247   27.6506 H   0  0  0  0  0  0  0  0  0  0  0  0
   -1.9762   -6.4725   28.2081 H   0  0  0  0  0  0  0  0  0  0  0  0
  1  2  1  0
  2  3  1  0
  3  4  1  0
  4  5  1  0
  5  6  1  0
  5  7  1  0
  7  8  1  0
  7  9  1  0
  9 10  2  0
  9 11  1  0
 11 12  1  0
 12 13  2  0
 13 14  1  0
 14 15  1  0
  2 16  1  0
 16 17  2  0
 16 18  1  0
 18 19  1  0
 19 20  1  0
 20 21  1  0
 21 22  1  0
 22 23  1  0
 15 11  2  0
 23 18  1  0
  1 24  1  0
  1 25  1  0
  1 26  1  0
  2 27  1  0
  3 28  1  0
  4 29  1  0
  4 30  1  0
  5 31  1  0
  6 32  1  0
  6 33  1  0
  6 34  1  0
  8 35  1  0
  8 36  1  0
  8 37  1  0
 12 38  1  0
 13 39  1  0
 14 40  1  0
 19 41  1  0
 19 42  1  0
 20 43  1  0
 20 44  1  0
 21 45  1  0
 21 46  1  0
 22 47  1  0
 22 48  1  0
 23 49  1  0
 23 50  1  0
M  END
>  <Energy>  (692) 
932.7168072859763

>  <compound_id>  (692) 
35617

>  <target_id>  (692) 
1

>  <reference_id>  (692) 
96

>  <inspiration_ids>  (692) 
[44, 96]

>  <energy_score>  (692) 
763.771408242245

>  <distance_score>  (692) 
10.386631524210642

>  <path>  (692) 
/opt/xchem-fragalysis-2/maxwin/BulkDock/SCRATCH/511013/C35617-P96/C35617-P96.minimised.mol

>  <scratch_subdir>  (692) 
/opt/xchem-fragalysis-2/maxwin/BulkDock/SCRATCH/511013/C35617-P96

>  <fragmenstein_runtime>  (692) 
20.071300745010376

>  <fragmenstein_outcome>  (692) 
too moved

>  <fragmenstein_mode>  (692) 
expansion

>  <fragmenstein_error>  (692) 


$$$$
C35618-P44
     RDKit          3D

 53 54  0  0  0  0  0  0  0  0999 V2000
   -0.5966   -2.7974   32.4955 C   0  0  0  0  0  0  0  0  0  0  0  0
   -0.2148   -4.0566   31.7168 C   0  0  0  0  0  0  0  0  0  0  0  0
   -0.7891   -3.9834   30.3339 C   0  0  0  0  0  0  0  0  0  0  0  0
   -0.7159   -5.3685   29.6735 C   0  0  0  0  0  0  0  0  0  0  0  0
   -1.6350   -6.6134   30.2420 N   0  0  0  0  0  0  0  0  0  0  0  0
   -1.9234   -7.6404   29.1182 C   0  0  0  0  0  0  0  0  0  0  0  0
   -1.1953   -8.5814   28.9175 O   0  0  0  0  0  0  0  0  0  0  0  0
   -3.6648   -7.6146   27.9583 C   0  0  0  0  0  0  0  0  0  0  0  0
   -2.7473   -7.2962   26.8472 C   0  0  0  0  0  0  0  0  0  0  0  0
   -5.3746   -8.5348   27.3177 N   0  0  0  0  0  0  0  0  0  0  0  0
   -6.0099  -10.3950   26.5989 C   0  0  0  0  0  0  0  0  0  0  0  0
   -6.7051  -12.3507   26.7386 C   0  0  0  0  0  0  0  0  0  0  0  0
   -7.7679  -11.2789   25.7338 C   0  0  0  0  0  0  0  0  0  0  0  0
   -7.4893  -13.4818   28.1464 N   0  0  0  0  0  0  0  0  0  0  0  0
   -8.1351  -13.8467   26.9741 C   0  0  0  0  0  0  0  0  0  0  0  0
   -6.5339  -14.3762   29.1972 C   0  0  0  0  0  0  0  0  0  0  0  0
   -6.2213  -15.4817   28.9495 O   0  0  0  0  0  0  0  0  0  0  0  0
   -6.0622  -14.0391   30.6114 C   0  0  0  0  0  0  0  0  0  0  0  0
   -5.1735  -15.1886   31.2154 C   0  0  0  0  0  0  0  0  0  0  0  0
   -5.5413  -15.4135   32.5176 C   0  0  0  0  0  0  0  0  0  0  0  0
   -6.5662  -14.5523   32.7108 N   0  0  0  0  0  0  0  0  0  0  0  0
   -6.8130  -13.7151   31.6881 N   0  0  0  0  0  0  0  0  0  0  0  0
   -0.5883   -6.5675   31.3288 C   0  0  0  0  0  0  0  0  0  0  0  0
   -0.7096   -5.3698   32.3258 C   0  0  0  0  0  0  0  0  0  0  0  0
   -0.2222   -1.8986   31.9943 H   0  0  0  0  0  0  0  0  0  0  0  0
   -1.6830   -2.7043   32.5998 H   0  0  0  0  0  0  0  0  0  0  0  0
   -0.1656   -2.8284   33.5015 H   0  0  0  0  0  0  0  0  0  0  0  0
    0.8800   -4.1033   31.6479 H   0  0  0  0  0  0  0  0  0  0  0  0
   -0.2195   -3.2651   29.7305 H   0  0  0  0  0  0  0  0  0  0  0  0
   -1.8151   -3.6039   30.3632 H   0  0  0  0  0  0  0  0  0  0  0  0
    0.3261   -5.6661   29.4853 H   0  0  0  0  0  0  0  0  0  0  0  0
   -1.1436   -5.1344   28.7016 H   0  0  0  0  0  0  0  0  0  0  0  0
   -4.0680   -7.5186   28.9624 H   0  0  0  0  0  0  0  0  0  0  0  0
   -2.4244   -6.3329   26.5552 H   0  0  0  0  0  0  0  0  0  0  0  0
   -2.7626   -8.0072   26.0723 H   0  0  0  0  0  0  0  0  0  0  0  0
   -1.8340   -7.6601   27.1165 H   0  0  0  0  0  0  0  0  0  0  0  0
   -5.9537   -8.5210   28.1656 H   0  0  0  0  0  0  0  0  0  0  0  0
   -6.1683  -10.5003   25.5447 H   0  0  0  0  0  0  0  0  0  0  0  0
   -5.2989  -11.3619   27.0304 H   0  0  0  0  0  0  0  0  0  0  0  0
   -6.5759  -12.9392   25.8714 H   0  0  0  0  0  0  0  0  0  0  0  0
   -7.2335  -11.2274   24.7458 H   0  0  0  0  0  0  0  0  0  0  0  0
   -7.7695  -10.2121   25.9476 H   0  0  0  0  0  0  0  0  0  0  0  0
   -8.8422  -11.3863   25.9030 H   0  0  0  0  0  0  0  0  0  0  0  0
   -7.7171  -14.2950   26.0641 H   0  0  0  0  0  0  0  0  0  0  0  0
   -9.1448  -13.4430   27.0410 H   0  0  0  0  0  0  0  0  0  0  0  0
   -8.5410  -14.8296   27.2832 H   0  0  0  0  0  0  0  0  0  0  0  0
   -4.5109  -15.8260   30.6420 H   0  0  0  0  0  0  0  0  0  0  0  0
   -5.2377  -16.1420   33.2542 H   0  0  0  0  0  0  0  0  0  0  0  0
   -7.1443  -14.4594   33.5389 H   0  0  0  0  0  0  0  0  0  0  0  0
    0.4349   -6.8206   31.0109 H   0  0  0  0  0  0  0  0  0  0  0  0
   -0.8549   -7.4550   31.9226 H   0  0  0  0  0  0  0  0  0  0  0  0
   -1.7558   -5.2717   32.6406 H   0  0  0  0  0  0  0  0  0  0  0  0
   -0.1251   -5.5930   33.2261 H   0  0  0  0  0  0  0  0  0  0  0  0
  1  2  1  0
  2  3  1  0
  3  4  1  0
  4  5  1  0
  5  6  1  0
  6  7  2  0
  6  8  1  0
  8  9  1  0
  8 10  1  0
 10 11  1  0
 11 12  1  0
 12 13  1  0
 12 14  1  0
 14 15  1  0
 14 16  1  0
 16 17  2  0
 16 18  1  0
 18 19  1  0
 19 20  2  0
 20 21  1  0
 21 22  1  0
  5 23  1  0
 23 24  1  0
 24  2  1  0
 22 18  2  0
  1 25  1  0
  1 26  1  0
  1 27  1  0
  2 28  1  0
  3 29  1  0
  3 30  1  0
  4 31  1  0
  4 32  1  0
  8 33  1  0
  9 34  1  0
  9 35  1  0
  9 36  1  0
 10 37  1  0
 11 38  1  0
 11 39  1  0
 12 40  1  0
 13 41  1  0
 13 42  1  0
 13 43  1  0
 15 44  1  0
 15 45  1  0
 15 46  1  0
 19 47  1  0
 20 48  1  0
 21 49  1  0
 23 50  1  0
 23 51  1  0
 24 52  1  0
 24 53  1  0
M  END
>  <Energy>  (693) 
1147.7757534446673

>  <compound_id>  (693) 
35618

>  <target_id>  (693) 
1

>  <reference_id>  (693) 
44

>  <inspiration_ids>  (693) 
[44, 96]

>  <energy_score>  (693) 
975.3833375561005

>  <distance_score>  (693) 
9.633498342021202

>  <path>  (693) 
/opt/xchem-fragalysis-2/maxwin/BulkDock/SCRATCH/511013/C35618-P44/C35618-P44.minimised.mol

>  <scratch_subdir>  (693) 
/opt/xchem-fragalysis-2/maxwin/BulkDock/SCRATCH/511013/C35618-P44

>  <fragmenstein_runtime>  (693) 
25.620187044143677

>  <fragmenstein_outcome>  (693) 
too moved

>  <fragmenstein_mode>  (693) 
expansion

>  <fragmenstein_error>  (693) 


$$$$
C35618-P96
     RDKit          3D

 53 54  0  0  0  0  0  0  0  0999 V2000
   -1.4796   -2.3970   26.7127 C   0  0  0  0  0  0  0  0  0  0  0  0
   -1.4685   -3.6619   27.5826 C   0  0  0  0  0  0  0  0  0  0  0  0
   -1.9169   -4.9563   26.9110 C   0  0  0  0  0  0  0  0  0  0  0  0
   -1.8573   -6.0583   28.0188 C   0  0  0  0  0  0  0  0  0  0  0  0
   -3.3071   -6.2140   28.8462 N   0  0  0  0  0  0  0  0  0  0  0  0
   -3.5042   -7.8009   29.4776 C   0  0  0  0  0  0  0  0  0  0  0  0
   -3.0728   -7.8930   30.5609 O   0  0  0  0  0  0  0  0  0  0  0  0
   -4.3626   -9.5754   28.8199 C   0  0  0  0  0  0  0  0  0  0  0  0
   -3.6919  -10.0197   27.6477 C   0  0  0  0  0  0  0  0  0  0  0  0
   -5.6850  -10.8865   28.3315 N   0  0  0  0  0  0  0  0  0  0  0  0
   -6.5148  -12.6610   28.3510 C   0  0  0  0  0  0  0  0  0  0  0  0
   -7.7721  -14.1121   27.3965 C   0  0  0  0  0  0  0  0  0  0  0  0
   -8.1144  -12.7763   26.2334 C   0  0  0  0  0  0  0  0  0  0  0  0
   -8.6169  -15.9529   26.9179 N   0  0  0  0  0  0  0  0  0  0  0  0
   -8.9531  -14.9480   25.9457 C   0  0  0  0  0  0  0  0  0  0  0  0
   -9.7718  -17.1725   28.0464 C   0  0  0  0  0  0  0  0  0  0  0  0
  -10.9727  -16.8538   27.8748 O   0  0  0  0  0  0  0  0  0  0  0  0
   -9.7375  -18.8793   29.1821 C   0  0  0  0  0  0  0  0  0  0  0  0
  -10.2427  -20.3749   28.5995 C   0  0  0  0  0  0  0  0  0  0  0  0
  -10.8561  -21.1353   29.5546 C   0  0  0  0  0  0  0  0  0  0  0  0
  -10.7845  -20.3636   30.6401 N   0  0  0  0  0  0  0  0  0  0  0  0
  -10.2221  -19.1665   30.4925 N   0  0  0  0  0  0  0  0  0  0  0  0
   -2.7833   -4.8957   29.4701 C   0  0  0  0  0  0  0  0  0  0  0  0
   -2.2986   -3.5449   28.8488 C   0  0  0  0  0  0  0  0  0  0  0  0
   -0.8060   -2.5160   25.8597 H   0  0  0  0  0  0  0  0  0  0  0  0
   -2.4640   -2.1521   26.3134 H   0  0  0  0  0  0  0  0  0  0  0  0
   -1.1325   -1.5358   27.2936 H   0  0  0  0  0  0  0  0  0  0  0  0
   -0.4237   -3.7852   27.8963 H   0  0  0  0  0  0  0  0  0  0  0  0
   -1.2516   -5.1974   26.0781 H   0  0  0  0  0  0  0  0  0  0  0  0
   -2.9126   -4.8978   26.4763 H   0  0  0  0  0  0  0  0  0  0  0  0
   -1.0119   -5.8080   28.6608 H   0  0  0  0  0  0  0  0  0  0  0  0
   -1.6467   -7.0300   27.5504 H   0  0  0  0  0  0  0  0  0  0  0  0
   -5.2941   -9.4060   29.3837 H   0  0  0  0  0  0  0  0  0  0  0  0
   -4.2316  -10.1788   26.7282 H   0  0  0  0  0  0  0  0  0  0  0  0
   -2.9748   -9.2410   27.4335 H   0  0  0  0  0  0  0  0  0  0  0  0
   -3.3012  -10.9779   27.9231 H   0  0  0  0  0  0  0  0  0  0  0  0
   -6.0356  -10.4310   27.4829 H   0  0  0  0  0  0  0  0  0  0  0  0
   -7.0973  -12.2300   29.1812 H   0  0  0  0  0  0  0  0  0  0  0  0
   -5.8695  -13.3036   28.9581 H   0  0  0  0  0  0  0  0  0  0  0  0
   -8.6588  -13.6341   27.7593 H   0  0  0  0  0  0  0  0  0  0  0  0
   -7.7796  -12.9512   25.2148 H   0  0  0  0  0  0  0  0  0  0  0  0
   -7.5112  -11.9402   26.5093 H   0  0  0  0  0  0  0  0  0  0  0  0
   -9.1694  -12.5199   26.2726 H   0  0  0  0  0  0  0  0  0  0  0  0
   -9.6576  -15.5921   25.3911 H   0  0  0  0  0  0  0  0  0  0  0  0
   -8.3696  -14.7583   25.0511 H   0  0  0  0  0  0  0  0  0  0  0  0
   -9.7858  -14.3033   26.1934 H   0  0  0  0  0  0  0  0  0  0  0  0
  -10.4086  -20.5910   27.5627 H   0  0  0  0  0  0  0  0  0  0  0  0
  -11.3784  -22.0786   29.5188 H   0  0  0  0  0  0  0  0  0  0  0  0
  -11.1534  -20.5735   31.5593 H   0  0  0  0  0  0  0  0  0  0  0  0
   -2.0285   -5.2067   30.2169 H   0  0  0  0  0  0  0  0  0  0  0  0
   -3.5889   -4.6480   30.1695 H   0  0  0  0  0  0  0  0  0  0  0  0
   -3.1116   -2.8468   28.6938 H   0  0  0  0  0  0  0  0  0  0  0  0
   -1.6918   -3.0386   29.6136 H   0  0  0  0  0  0  0  0  0  0  0  0
  1  2  1  0
  2  3  1  0
  3  4  1  0
  4  5  1  0
  5  6  1  0
  6  7  2  0
  6  8  1  0
  8  9  1  0
  8 10  1  0
 10 11  1  0
 11 12  1  0
 12 13  1  0
 12 14  1  0
 14 15  1  0
 14 16  1  0
 16 17  2  0
 16 18  1  0
 18 19  1  0
 19 20  2  0
 20 21  1  0
 21 22  1  0
  5 23  1  0
 23 24  1  0
 24  2  1  0
 22 18  2  0
  1 25  1  0
  1 26  1  0
  1 27  1  0
  2 28  1  0
  3 29  1  0
  3 30  1  0
  4 31  1  0
  4 32  1  0
  8 33  1  0
  9 34  1  0
  9 35  1  0
  9 36  1  0
 10 37  1  0
 11 38  1  0
 11 39  1  0
 12 40  1  0
 13 41  1  0
 13 42  1  0
 13 43  1  0
 15 44  1  0
 15 45  1  0
 15 46  1  0
 19 47  1  0
 20 48  1  0
 21 49  1  0
 23 50  1  0
 23 51  1  0
 24 52  1  0
 24 53  1  0
M  END
>  <Energy>  (694) 
1394.1626437427271

>  <compound_id>  (694) 
35618

>  <target_id>  (694) 
1

>  <reference_id>  (694) 
96

>  <inspiration_ids>  (694) 
[44, 96]

>  <energy_score>  (694) 
1221.7702278541794

>  <distance_score>  (694) 
6.878841566113404

>  <path>  (694) 
/opt/xchem-fragalysis-2/maxwin/BulkDock/SCRATCH/511013/C35618-P96/C35618-P96.minimised.mol

>  <scratch_subdir>  (694) 
/opt/xchem-fragalysis-2/maxwin/BulkDock/SCRATCH/511013/C35618-P96

>  <fragmenstein_runtime>  (694) 
16.656368494033813

>  <fragmenstein_outcome>  (694) 
too moved

>  <fragmenstein_mode>  (694) 
expansion

>  <fragmenstein_error>  (694) 


$$$$
C35619-P44
     RDKit          3D

 45 46  0  0  0  0  0  0  0  0999 V2000
   -5.8211  -17.8955   32.3073 C   0  0  0  0  0  0  0  0  0  0  0  0
   -4.8762  -16.6984   32.4115 C   0  0  0  0  0  0  0  0  0  0  0  0
   -5.1613  -15.2705   31.7533 C   0  0  0  0  0  0  0  0  0  0  0  0
   -6.3113  -13.9229   31.8619 C   0  0  0  0  0  0  0  0  0  0  0  0
   -6.5616  -12.1979   32.7122 C   0  0  0  0  0  0  0  0  0  0  0  0
   -7.7101  -11.8532   32.6131 O   0  0  0  0  0  0  0  0  0  0  0  0
   -5.3028  -11.3306   33.5063 N   0  0  0  0  0  0  0  0  0  0  0  0
   -5.3374   -9.8286   34.4648 C   0  0  0  0  0  0  0  0  0  0  0  0
   -4.0248   -9.1461   35.1207 C   0  0  0  0  0  0  0  0  0  0  0  0
   -2.8771   -8.6073   34.2440 C   0  0  0  0  0  0  0  0  0  0  0  0
   -1.9467   -7.6750   35.0510 C   0  0  0  0  0  0  0  0  0  0  0  0
   -2.4775   -6.2898   35.3675 N   0  0  0  0  0  0  0  0  0  0  0  0
   -1.3895   -5.3799   35.5686 C   0  0  0  0  0  0  0  0  0  0  0  0
   -0.8021   -5.0762   36.5726 O   0  0  0  0  0  0  0  0  0  0  0  0
   -0.9411   -4.7091   34.3029 C   0  0  0  0  0  0  0  0  0  0  0  0
    0.1282   -3.7656   34.2313 C   0  0  0  0  0  0  0  0  0  0  0  0
    0.2490   -3.4293   32.9082 C   0  0  0  0  0  0  0  0  0  0  0  0
   -0.7007   -4.1509   32.2571 N   0  0  0  0  0  0  0  0  0  0  0  0
   -1.4623   -4.9112   33.0716 N   0  0  0  0  0  0  0  0  0  0  0  0
   -3.3003   -7.0649   36.3556 C   0  0  0  0  0  0  0  0  0  0  0  0
   -4.4947   -7.8621   35.8322 C   0  0  0  0  0  0  0  0  0  0  0  0
   -5.3444  -18.7739   32.7571 H   0  0  0  0  0  0  0  0  0  0  0  0
   -6.7635  -17.7446   32.8353 H   0  0  0  0  0  0  0  0  0  0  0  0
   -6.0161  -18.1434   31.2629 H   0  0  0  0  0  0  0  0  0  0  0  0
   -4.5517  -16.5702   33.4540 H   0  0  0  0  0  0  0  0  0  0  0  0
   -3.9531  -17.0406   31.9158 H   0  0  0  0  0  0  0  0  0  0  0  0
   -4.1710  -14.8669   31.9433 H   0  0  0  0  0  0  0  0  0  0  0  0
   -5.2095  -15.5144   30.6886 H   0  0  0  0  0  0  0  0  0  0  0  0
   -6.2816  -13.6356   30.8058 H   0  0  0  0  0  0  0  0  0  0  0  0
   -7.2974  -14.3890   31.8531 H   0  0  0  0  0  0  0  0  0  0  0  0
   -4.4952  -11.8730   33.5122 H   0  0  0  0  0  0  0  0  0  0  0  0
   -6.0091   -9.9776   35.3199 H   0  0  0  0  0  0  0  0  0  0  0  0
   -5.5930   -9.0419   33.7918 H   0  0  0  0  0  0  0  0  0  0  0  0
   -3.6118   -9.8521   35.8518 H   0  0  0  0  0  0  0  0  0  0  0  0
   -2.2521   -9.4304   33.8871 H   0  0  0  0  0  0  0  0  0  0  0  0
   -3.2676   -8.0759   33.3715 H   0  0  0  0  0  0  0  0  0  0  0  0
   -1.4107   -8.1730   35.8788 H   0  0  0  0  0  0  0  0  0  0  0  0
   -1.1129   -7.4863   34.3554 H   0  0  0  0  0  0  0  0  0  0  0  0
    0.7283   -3.4044   35.0563 H   0  0  0  0  0  0  0  0  0  0  0  0
    0.9211   -2.7645   32.3837 H   0  0  0  0  0  0  0  0  0  0  0  0
   -0.8850   -4.1651   31.2579 H   0  0  0  0  0  0  0  0  0  0  0  0
   -3.7568   -6.2433   36.9311 H   0  0  0  0  0  0  0  0  0  0  0  0
   -2.7274   -7.5660   37.1554 H   0  0  0  0  0  0  0  0  0  0  0  0
   -5.0812   -7.2321   35.1508 H   0  0  0  0  0  0  0  0  0  0  0  0
   -5.1499   -8.1289   36.6700 H   0  0  0  0  0  0  0  0  0  0  0  0
  1  2  1  0
  2  3  1  0
  3  4  1  0
  4  5  1  0
  5  6  2  0
  5  7  1  0
  7  8  1  0
  8  9  1  0
  9 10  1  0
 10 11  1  0
 11 12  1  0
 12 13  1  0
 13 14  2  0
 13 15  1  0
 15 16  1  0
 16 17  2  0
 17 18  1  0
 18 19  1  0
 12 20  1  0
 20 21  1  0
 21  9  1  0
 19 15  2  0
  1 22  1  0
  1 23  1  0
  1 24  1  0
  2 25  1  0
  2 26  1  0
  3 27  1  0
  3 28  1  0
  4 29  1  0
  4 30  1  0
  7 31  1  0
  8 32  1  0
  8 33  1  0
  9 34  1  0
 10 35  1  0
 10 36  1  0
 11 37  1  0
 11 38  1  0
 16 39  1  0
 17 40  1  0
 18 41  1  0
 20 42  1  0
 20 43  1  0
 21 44  1  0
 21 45  1  0
M  END
>  <Energy>  (695) 
276.27086364984473

>  <compound_id>  (695) 
35619

>  <target_id>  (695) 
1

>  <reference_id>  (695) 
44

>  <inspiration_ids>  (695) 
[44, 96]

>  <energy_score>  (695) 
210.3633123275389

>  <distance_score>  (695) 
11.413028096298646

>  <path>  (695) 
/opt/xchem-fragalysis-2/maxwin/BulkDock/SCRATCH/511013/C35619-P44/C35619-P44.minimised.mol

>  <scratch_subdir>  (695) 
/opt/xchem-fragalysis-2/maxwin/BulkDock/SCRATCH/511013/C35619-P44

>  <fragmenstein_runtime>  (695) 
38.517531871795654

>  <fragmenstein_outcome>  (695) 
too moved

>  <fragmenstein_mode>  (695) 
expansion

>  <fragmenstein_error>  (695) 


$$$$
C35619-P96
     RDKit          3D

 45 46  0  0  0  0  0  0  0  0999 V2000
  -11.1388  -18.8721   24.1510 C   0  0  0  0  0  0  0  0  0  0  0  0
  -10.1740  -18.6959   22.9745 C   0  0  0  0  0  0  0  0  0  0  0  0
   -9.0939  -17.6487   23.2639 C   0  0  0  0  0  0  0  0  0  0  0  0
   -8.3282  -17.0267   22.0501 C   0  0  0  0  0  0  0  0  0  0  0  0
   -8.7344  -15.5614   21.6864 C   0  0  0  0  0  0  0  0  0  0  0  0
   -9.8603  -15.2198   21.9176 O   0  0  0  0  0  0  0  0  0  0  0  0
   -7.6396  -14.8503   21.0275 N   0  0  0  0  0  0  0  0  0  0  0  0
   -7.6064  -13.5378   20.3588 C   0  0  0  0  0  0  0  0  0  0  0  0
   -6.5564  -12.4802   20.8276 C   0  0  0  0  0  0  0  0  0  0  0  0
   -5.1330  -12.7849   20.4019 C   0  0  0  0  0  0  0  0  0  0  0  0
   -4.2473  -11.5337   20.5441 C   0  0  0  0  0  0  0  0  0  0  0  0
   -4.4714  -10.3716   19.5841 N   0  0  0  0  0  0  0  0  0  0  0  0
   -4.3787  -10.8259   18.2322 C   0  0  0  0  0  0  0  0  0  0  0  0
   -5.2285  -11.2361   17.4856 O   0  0  0  0  0  0  0  0  0  0  0  0
   -2.9855  -10.6926   17.7114 C   0  0  0  0  0  0  0  0  0  0  0  0
   -2.5750  -10.9422   16.3703 C   0  0  0  0  0  0  0  0  0  0  0  0
   -1.2292  -10.6755   16.3375 C   0  0  0  0  0  0  0  0  0  0  0  0
   -0.8987  -10.2905   17.6001 N   0  0  0  0  0  0  0  0  0  0  0  0
   -1.9258  -10.3227   18.4625 N   0  0  0  0  0  0  0  0  0  0  0  0
   -5.6663  -10.1545   20.4649 C   0  0  0  0  0  0  0  0  0  0  0  0
   -6.8760  -11.0795   20.3044 C   0  0  0  0  0  0  0  0  0  0  0  0
  -11.8387  -18.0299   24.1860 H   0  0  0  0  0  0  0  0  0  0  0  0
  -11.7245  -19.7873   24.0244 H   0  0  0  0  0  0  0  0  0  0  0  0
  -10.6305  -18.9016   25.1113 H   0  0  0  0  0  0  0  0  0  0  0  0
   -9.6951  -19.6541   22.7421 H   0  0  0  0  0  0  0  0  0  0  0  0
  -10.7511  -18.4021   22.0902 H   0  0  0  0  0  0  0  0  0  0  0  0
   -8.3539  -18.1768   23.8712 H   0  0  0  0  0  0  0  0  0  0  0  0
   -9.5333  -16.8434   23.8623 H   0  0  0  0  0  0  0  0  0  0  0  0
   -7.2593  -17.0289   22.2920 H   0  0  0  0  0  0  0  0  0  0  0  0
   -8.4669  -17.6433   21.1553 H   0  0  0  0  0  0  0  0  0  0  0  0
   -6.8495  -15.4760   20.9300 H   0  0  0  0  0  0  0  0  0  0  0  0
   -7.4670  -13.7465   19.2919 H   0  0  0  0  0  0  0  0  0  0  0  0
   -8.6120  -13.1158   20.4681 H   0  0  0  0  0  0  0  0  0  0  0  0
   -6.5508  -12.4224   21.9129 H   0  0  0  0  0  0  0  0  0  0  0  0
   -5.1094  -13.1514   19.3693 H   0  0  0  0  0  0  0  0  0  0  0  0
   -4.7281  -13.5925   21.0239 H   0  0  0  0  0  0  0  0  0  0  0  0
   -4.0745  -11.2319   21.5915 H   0  0  0  0  0  0  0  0  0  0  0  0
   -3.2451  -11.8974   20.2682 H   0  0  0  0  0  0  0  0  0  0  0  0
   -3.2028  -11.2595   15.5488 H   0  0  0  0  0  0  0  0  0  0  0  0
   -0.4989  -10.7106   15.5421 H   0  0  0  0  0  0  0  0  0  0  0  0
    0.0086   -9.9968   17.9464 H   0  0  0  0  0  0  0  0  0  0  0  0
   -6.0321   -9.1899   20.0782 H   0  0  0  0  0  0  0  0  0  0  0  0
   -5.4351   -9.8925   21.5065 H   0  0  0  0  0  0  0  0  0  0  0  0
   -7.1704  -11.1274   19.2493 H   0  0  0  0  0  0  0  0  0  0  0  0
   -7.7325  -10.6665   20.8493 H   0  0  0  0  0  0  0  0  0  0  0  0
  1  2  1  0
  2  3  1  0
  3  4  1  0
  4  5  1  0
  5  6  2  0
  5  7  1  0
  7  8  1  0
  8  9  1  0
  9 10  1  0
 10 11  1  0
 11 12  1  0
 12 13  1  0
 13 14  2  0
 13 15  1  0
 15 16  1  0
 16 17  2  0
 17 18  1  0
 18 19  1  0
 12 20  1  0
 20 21  1  0
 21  9  1  0
 19 15  2  0
  1 22  1  0
  1 23  1  0
  1 24  1  0
  2 25  1  0
  2 26  1  0
  3 27  1  0
  3 28  1  0
  4 29  1  0
  4 30  1  0
  7 31  1  0
  8 32  1  0
  8 33  1  0
  9 34  1  0
 10 35  1  0
 10 36  1  0
 11 37  1  0
 11 38  1  0
 16 39  1  0
 17 40  1  0
 18 41  1  0
 20 42  1  0
 20 43  1  0
 21 44  1  0
 21 45  1  0
M  END
>  <Energy>  (696) 
102.99402347946435

>  <compound_id>  (696) 
35619

>  <target_id>  (696) 
1

>  <reference_id>  (696) 
96

>  <inspiration_ids>  (696) 
[44, 96]

>  <energy_score>  (696) 
37.08647215715919

>  <distance_score>  (696) 
14.675002046422327

>  <path>  (696) 
/opt/xchem-fragalysis-2/maxwin/BulkDock/SCRATCH/511013/C35619-P96/C35619-P96.minimised.mol

>  <scratch_subdir>  (696) 
/opt/xchem-fragalysis-2/maxwin/BulkDock/SCRATCH/511013/C35619-P96

>  <fragmenstein_runtime>  (696) 
26.58553695678711

>  <fragmenstein_outcome>  (696) 
too moved

>  <fragmenstein_mode>  (696) 
expansion

>  <fragmenstein_error>  (696) 


$$$$
C35621-P44
     RDKit          3D

 48 50  0  0  0  0  0  0  0  0999 V2000
    1.5022   -9.2651   30.3286 C   0  0  0  0  0  0  0  0  0  0  0  0
    0.1667   -8.5149   30.1966 C   0  0  0  0  0  0  0  0  0  0  0  0
   -0.8505   -9.4368   29.3647 C   0  0  0  0  0  0  0  0  0  0  0  0
   -1.4355  -10.9420   30.1302 C   0  0  0  0  0  0  0  0  0  0  0  0
   -0.8673  -11.1034   31.2081 O   0  0  0  0  0  0  0  0  0  0  0  0
   -2.6059  -12.1989   29.3469 N   0  0  0  0  0  0  0  0  0  0  0  0
   -3.1279  -14.0887   29.8940 C   0  0  0  0  0  0  0  0  0  0  0  0
   -2.7146  -14.9471   31.1632 C   0  0  0  0  0  0  0  0  0  0  0  0
   -3.8317  -15.9993   31.5067 C   0  0  0  0  0  0  0  0  0  0  0  0
   -5.2764  -15.8986   31.5835 N   0  0  0  0  0  0  0  0  0  0  0  0
   -6.3914  -17.2912   32.3366 C   0  0  0  0  0  0  0  0  0  0  0  0
   -6.2652  -19.0145   32.9895 C   0  0  0  0  0  0  0  0  0  0  0  0
   -7.3123  -19.4788   33.7129 C   0  0  0  0  0  0  0  0  0  0  0  0
   -8.1360  -18.4396   33.5076 N   0  0  0  0  0  0  0  0  0  0  0  0
   -7.6679  -17.3095   32.7864 N   0  0  0  0  0  0  0  0  0  0  0  0
   -5.0302  -14.6848   30.5972 C   0  0  0  0  0  0  0  0  0  0  0  0
   -6.0777  -14.1060   30.2830 O   0  0  0  0  0  0  0  0  0  0  0  0
    0.4079   -7.0646   29.5406 C   0  0  0  0  0  0  0  0  0  0  0  0
    1.5756   -6.2805   30.2027 C   0  0  0  0  0  0  0  0  0  0  0  0
    1.4899   -4.7502   30.0736 C   0  0  0  0  0  0  0  0  0  0  0  0
    0.8826   -4.3677   28.8114 N   0  0  0  0  0  0  0  0  0  0  0  0
   -0.5061   -4.8169   28.7496 C   0  0  0  0  0  0  0  0  0  0  0  0
   -0.8069   -6.1161   29.5268 C   0  0  0  0  0  0  0  0  0  0  0  0
    2.1760   -8.7625   31.0287 H   0  0  0  0  0  0  0  0  0  0  0  0
    1.3673  -10.2827   30.7032 H   0  0  0  0  0  0  0  0  0  0  0  0
    2.0078   -9.3342   29.3594 H   0  0  0  0  0  0  0  0  0  0  0  0
   -0.2572   -8.3705   31.1984 H   0  0  0  0  0  0  0  0  0  0  0  0
   -0.3039   -9.7463   28.4656 H   0  0  0  0  0  0  0  0  0  0  0  0
   -1.4426   -8.6058   29.0668 H   0  0  0  0  0  0  0  0  0  0  0  0
   -3.0105  -11.8034   28.5047 H   0  0  0  0  0  0  0  0  0  0  0  0
   -2.6784  -14.6464   29.0678 H   0  0  0  0  0  0  0  0  0  0  0  0
   -2.5996  -14.3087   32.0159 H   0  0  0  0  0  0  0  0  0  0  0  0
   -1.7276  -15.4227   31.1759 H   0  0  0  0  0  0  0  0  0  0  0  0
   -3.5181  -15.5314   32.3594 H   0  0  0  0  0  0  0  0  0  0  0  0
   -3.6067  -16.9451   31.9630 H   0  0  0  0  0  0  0  0  0  0  0  0
   -5.3913  -19.6636   32.9968 H   0  0  0  0  0  0  0  0  0  0  0  0
   -7.5368  -20.3735   34.2764 H   0  0  0  0  0  0  0  0  0  0  0  0
   -9.0805  -18.3872   33.8735 H   0  0  0  0  0  0  0  0  0  0  0  0
    0.6892   -7.2487   28.4931 H   0  0  0  0  0  0  0  0  0  0  0  0
    1.6264   -6.5176   31.2725 H   0  0  0  0  0  0  0  0  0  0  0  0
    2.5174   -6.6247   29.7564 H   0  0  0  0  0  0  0  0  0  0  0  0
    0.9238   -4.3277   30.9134 H   0  0  0  0  0  0  0  0  0  0  0  0
    2.5001   -4.3309   30.1397 H   0  0  0  0  0  0  0  0  0  0  0  0
    0.9097   -3.3528   28.6973 H   0  0  0  0  0  0  0  0  0  0  0  0
   -1.1659   -4.0254   29.1215 H   0  0  0  0  0  0  0  0  0  0  0  0
   -0.7352   -4.9831   27.6936 H   0  0  0  0  0  0  0  0  0  0  0  0
   -1.6777   -6.5894   29.0702 H   0  0  0  0  0  0  0  0  0  0  0  0
   -1.0842   -5.8728   30.5604 H   0  0  0  0  0  0  0  0  0  0  0  0
  1  2  1  0
  2  3  1  0
  3  4  1  0
  4  5  2  0
  4  6  1  0
  6  7  1  0
  7  8  1  0
  8  9  1  0
  9 10  1  0
 10 11  1  0
 11 12  1  0
 12 13  2  0
 13 14  1  0
 14 15  1  0
 10 16  1  0
 16 17  2  0
  2 18  1  0
 18 19  1  0
 19 20  1  0
 20 21  1  0
 21 22  1  0
 22 23  1  0
 16  7  1  0
 23 18  1  0
 15 11  2  0
  1 24  1  0
  1 25  1  0
  1 26  1  0
  2 27  1  0
  3 28  1  0
  3 29  1  0
  6 30  1  0
  7 31  1  0
  8 32  1  0
  8 33  1  0
  9 34  1  0
  9 35  1  0
 12 36  1  0
 13 37  1  0
 14 38  1  0
 18 39  1  0
 19 40  1  0
 19 41  1  0
 20 42  1  0
 20 43  1  0
 21 44  1  0
 22 45  1  0
 22 46  1  0
 23 47  1  0
 23 48  1  0
M  END
>  <Energy>  (697) 
645.65111628208581

>  <compound_id>  (697) 
35621

>  <target_id>  (697) 
1

>  <reference_id>  (697) 
44

>  <inspiration_ids>  (697) 
[44, 96]

>  <energy_score>  (697) 
599.5401449049855

>  <distance_score>  (697) 
9.407275906607573

>  <path>  (697) 
/opt/xchem-fragalysis-2/maxwin/BulkDock/SCRATCH/511013/C35621-P44/C35621-P44.minimised.mol

>  <scratch_subdir>  (697) 
/opt/xchem-fragalysis-2/maxwin/BulkDock/SCRATCH/511013/C35621-P44

>  <fragmenstein_runtime>  (697) 
28.671684980392456

>  <fragmenstein_outcome>  (697) 
too moved

>  <fragmenstein_mode>  (697) 
expansion

>  <fragmenstein_error>  (697) 


$$$$
C35621-P96
     RDKit          3D

 48 50  0  0  0  0  0  0  0  0999 V2000
   -2.5008   -7.5590   29.3852 C   0  0  0  0  0  0  0  0  0  0  0  0
   -3.6761   -6.9635   30.2039 C   0  0  0  0  0  0  0  0  0  0  0  0
   -5.3833   -7.7755   30.1867 C   0  0  0  0  0  0  0  0  0  0  0  0
   -5.7705   -9.6518   29.5729 C   0  0  0  0  0  0  0  0  0  0  0  0
   -4.9706  -10.1085   28.7747 O   0  0  0  0  0  0  0  0  0  0  0  0
   -7.0416  -10.4218   30.3101 N   0  0  0  0  0  0  0  0  0  0  0  0
   -7.5984  -12.2913   30.2862 C   0  0  0  0  0  0  0  0  0  0  0  0
   -7.9775  -12.1121   31.6602 C   0  0  0  0  0  0  0  0  0  0  0  0
   -7.0307  -13.2159   32.7908 C   0  0  0  0  0  0  0  0  0  0  0  0
   -7.7366  -14.2530   32.4790 N   0  0  0  0  0  0  0  0  0  0  0  0
   -8.0760  -15.0138   33.5479 C   0  0  0  0  0  0  0  0  0  0  0  0
   -7.0417  -15.4372   34.4317 C   0  0  0  0  0  0  0  0  0  0  0  0
   -6.7311  -16.5654   33.7230 C   0  0  0  0  0  0  0  0  0  0  0  0
   -7.8896  -16.9546   33.1867 N   0  0  0  0  0  0  0  0  0  0  0  0
   -8.8351  -16.0372   33.2744 N   0  0  0  0  0  0  0  0  0  0  0  0
   -8.5209  -13.5510   31.5696 C   0  0  0  0  0  0  0  0  0  0  0  0
   -9.7383  -13.6193   31.9039 O   0  0  0  0  0  0  0  0  0  0  0  0
   -3.3899   -5.3856   30.4493 C   0  0  0  0  0  0  0  0  0  0  0  0
   -2.5777   -4.6590   29.3300 C   0  0  0  0  0  0  0  0  0  0  0  0
   -2.1363   -3.2256   29.6420 C   0  0  0  0  0  0  0  0  0  0  0  0
   -1.3123   -3.1746   30.8443 N   0  0  0  0  0  0  0  0  0  0  0  0
   -2.0302   -3.7507   31.9790 C   0  0  0  0  0  0  0  0  0  0  0  0
   -2.5216   -5.1826   31.7363 C   0  0  0  0  0  0  0  0  0  0  0  0
   -2.7912   -8.4355   28.8138 H   0  0  0  0  0  0  0  0  0  0  0  0
   -1.6595   -7.7896   30.0528 H   0  0  0  0  0  0  0  0  0  0  0  0
   -2.0284   -6.9167   28.6462 H   0  0  0  0  0  0  0  0  0  0  0  0
   -3.3571   -7.2501   31.2024 H   0  0  0  0  0  0  0  0  0  0  0  0
   -5.8483   -6.9624   29.6290 H   0  0  0  0  0  0  0  0  0  0  0  0
   -5.7875   -7.6278   31.1903 H   0  0  0  0  0  0  0  0  0  0  0  0
   -7.5517   -9.7768   30.8255 H   0  0  0  0  0  0  0  0  0  0  0  0
   -6.6675  -12.7291   29.9342 H   0  0  0  0  0  0  0  0  0  0  0  0
   -7.6418  -11.2737   32.1152 H   0  0  0  0  0  0  0  0  0  0  0  0
   -9.1148  -11.7938   31.6776 H   0  0  0  0  0  0  0  0  0  0  0  0
   -7.0238  -12.9668   33.8535 H   0  0  0  0  0  0  0  0  0  0  0  0
   -6.0716  -13.5794   32.4237 H   0  0  0  0  0  0  0  0  0  0  0  0
   -6.3134  -14.8389   34.9514 H   0  0  0  0  0  0  0  0  0  0  0  0
   -5.8880  -17.1567   33.4375 H   0  0  0  0  0  0  0  0  0  0  0  0
   -8.0403  -17.7764   32.6268 H   0  0  0  0  0  0  0  0  0  0  0  0
   -4.3477   -4.9302   30.6599 H   0  0  0  0  0  0  0  0  0  0  0  0
   -1.6244   -5.1753   29.1735 H   0  0  0  0  0  0  0  0  0  0  0  0
   -3.1011   -4.7086   28.3773 H   0  0  0  0  0  0  0  0  0  0  0  0
   -2.9719   -2.5391   29.7413 H   0  0  0  0  0  0  0  0  0  0  0  0
   -1.5411   -2.8488   28.8019 H   0  0  0  0  0  0  0  0  0  0  0  0
   -0.4622   -3.7177   30.6891 H   0  0  0  0  0  0  0  0  0  0  0  0
   -2.8645   -3.1126   32.2672 H   0  0  0  0  0  0  0  0  0  0  0  0
   -1.3551   -3.7550   32.8430 H   0  0  0  0  0  0  0  0  0  0  0  0
   -1.6407   -5.8370   31.6827 H   0  0  0  0  0  0  0  0  0  0  0  0
   -3.0970   -5.5076   32.6127 H   0  0  0  0  0  0  0  0  0  0  0  0
  1  2  1  0
  2  3  1  0
  3  4  1  0
  4  5  2  0
  4  6  1  0
  6  7  1  0
  7  8  1  0
  8  9  1  0
  9 10  1  0
 10 11  1  0
 11 12  1  0
 12 13  2  0
 13 14  1  0
 14 15  1  0
 10 16  1  0
 16 17  2  0
  2 18  1  0
 18 19  1  0
 19 20  1  0
 20 21  1  0
 21 22  1  0
 22 23  1  0
 16  7  1  0
 23 18  1  0
 15 11  2  0
  1 24  1  0
  1 25  1  0
  1 26  1  0
  2 27  1  0
  3 28  1  0
  3 29  1  0
  6 30  1  0
  7 31  1  0
  8 32  1  0
  8 33  1  0
  9 34  1  0
  9 35  1  0
 12 36  1  0
 13 37  1  0
 14 38  1  0
 18 39  1  0
 19 40  1  0
 19 41  1  0
 20 42  1  0
 20 43  1  0
 21 44  1  0
 22 45  1  0
 22 46  1  0
 23 47  1  0
 23 48  1  0
M  END
>  <Energy>  (698) 
533.66538553232829

>  <compound_id>  (698) 
35621

>  <target_id>  (698) 
1

>  <reference_id>  (698) 
96

>  <inspiration_ids>  (698) 
[44, 96]

>  <energy_score>  (698) 
487.55441415524496

>  <distance_score>  (698) 
9.690124060179414

>  <path>  (698) 
/opt/xchem-fragalysis-2/maxwin/BulkDock/SCRATCH/511013/C35621-P96/C35621-P96.minimised.mol

>  <scratch_subdir>  (698) 
/opt/xchem-fragalysis-2/maxwin/BulkDock/SCRATCH/511013/C35621-P96

>  <fragmenstein_runtime>  (698) 
19.72653102874756

>  <fragmenstein_outcome>  (698) 
too moved

>  <fragmenstein_mode>  (698) 
expansion

>  <fragmenstein_error>  (698) 


$$$$
C35622-P44
     RDKit          3D

 47 49  0  0  0  0  0  0  0  0999 V2000
   -2.9338   -7.3011   26.9968 C   0  0  0  0  0  0  0  0  0  0  0  0
   -4.5499   -8.0173   27.9899 C   0  0  0  0  0  0  0  0  0  0  0  0
   -5.9992   -9.5024   27.1473 C   0  0  0  0  0  0  0  0  0  0  0  0
   -5.5132  -11.6980   27.5263 C   0  0  0  0  0  0  0  0  0  0  0  0
   -4.2896  -11.9336   27.7356 O   0  0  0  0  0  0  0  0  0  0  0  0
   -6.9234  -12.9168   27.7287 N   0  0  0  0  0  0  0  0  0  0  0  0
   -6.9548  -14.5630   28.4090 C   0  0  0  0  0  0  0  0  0  0  0  0
   -6.3700  -14.1141   29.7291 C   0  0  0  0  0  0  0  0  0  0  0  0
   -5.8757  -14.8336   30.7593 C   0  0  0  0  0  0  0  0  0  0  0  0
   -5.2850  -15.9158   30.2794 C   0  0  0  0  0  0  0  0  0  0  0  0
   -6.0279  -16.7206   29.3688 C   0  0  0  0  0  0  0  0  0  0  0  0
   -7.3442  -16.3626   28.3463 C   0  0  0  0  0  0  0  0  0  0  0  0
   -8.1082  -18.1255   27.9820 C   0  0  0  0  0  0  0  0  0  0  0  0
   -7.2084  -19.7365   26.9988 C   0  0  0  0  0  0  0  0  0  0  0  0
   -7.9285  -20.9758   27.5631 C   0  0  0  0  0  0  0  0  0  0  0  0
   -9.4126  -20.3367   27.9715 N   0  0  0  0  0  0  0  0  0  0  0  0
   -9.2068  -18.7040   28.3755 N   0  0  0  0  0  0  0  0  0  0  0  0
   -2.9438   -7.3447   29.1570 C   0  0  0  0  0  0  0  0  0  0  0  0
   -1.1572   -7.4881   28.8120 C   0  0  0  0  0  0  0  0  0  0  0  0
   -0.3817   -6.2100   29.2365 C   0  0  0  0  0  0  0  0  0  0  0  0
   -0.9752   -5.4456   30.3174 N   0  0  0  0  0  0  0  0  0  0  0  0
   -1.5041   -6.2874   31.3719 C   0  0  0  0  0  0  0  0  0  0  0  0
   -2.4025   -7.4732   30.8912 C   0  0  0  0  0  0  0  0  0  0  0  0
   -2.2079   -7.9417   26.4834 H   0  0  0  0  0  0  0  0  0  0  0  0
   -2.3306   -6.5321   27.4603 H   0  0  0  0  0  0  0  0  0  0  0  0
   -2.8503   -6.6433   26.1180 H   0  0  0  0  0  0  0  0  0  0  0  0
   -5.1853   -7.2526   28.4517 H   0  0  0  0  0  0  0  0  0  0  0  0
   -6.5934   -9.2541   28.1472 H   0  0  0  0  0  0  0  0  0  0  0  0
   -7.0502   -9.2427   26.7938 H   0  0  0  0  0  0  0  0  0  0  0  0
   -7.7539  -12.5122   27.4138 H   0  0  0  0  0  0  0  0  0  0  0  0
   -5.8629  -13.1782   29.7533 H   0  0  0  0  0  0  0  0  0  0  0  0
   -5.5953  -14.4205   31.6779 H   0  0  0  0  0  0  0  0  0  0  0  0
   -4.3244  -16.1040   30.7295 H   0  0  0  0  0  0  0  0  0  0  0  0
   -5.9474  -17.7663   29.2297 H   0  0  0  0  0  0  0  0  0  0  0  0
   -6.1033  -19.6263   26.7686 H   0  0  0  0  0  0  0  0  0  0  0  0
   -7.7657  -22.0501   27.6387 H   0  0  0  0  0  0  0  0  0  0  0  0
  -10.3253  -20.7847   28.1282 H   0  0  0  0  0  0  0  0  0  0  0  0
   -2.9065   -6.2958   29.0125 H   0  0  0  0  0  0  0  0  0  0  0  0
   -0.8266   -7.6707   27.7871 H   0  0  0  0  0  0  0  0  0  0  0  0
   -0.7558   -8.3597   29.3461 H   0  0  0  0  0  0  0  0  0  0  0  0
    0.6405   -6.4976   29.5101 H   0  0  0  0  0  0  0  0  0  0  0  0
   -0.2834   -5.5478   28.3678 H   0  0  0  0  0  0  0  0  0  0  0  0
   -1.6705   -4.7984   29.9461 H   0  0  0  0  0  0  0  0  0  0  0  0
   -2.0333   -5.6555   32.0905 H   0  0  0  0  0  0  0  0  0  0  0  0
   -0.6645   -6.7013   31.9465 H   0  0  0  0  0  0  0  0  0  0  0  0
   -1.7061   -8.3218   31.0290 H   0  0  0  0  0  0  0  0  0  0  0  0
   -3.1799   -7.7665   31.6055 H   0  0  0  0  0  0  0  0  0  0  0  0
  1  2  1  0
  2  3  1  0
  3  4  1  0
  4  5  2  0
  4  6  1  0
  6  7  1  0
  7  8  2  0
  8  9  1  0
  9 10  2  0
 10 11  1  0
 11 12  2  0
 12 13  1  0
 13 14  1  0
 14 15  2  0
 15 16  1  0
 16 17  1  0
  2 18  1  0
 18 19  1  0
 19 20  1  0
 20 21  1  0
 21 22  1  0
 22 23  1  0
 12  7  1  0
 17 13  2  0
 23 18  1  0
  1 24  1  0
  1 25  1  0
  1 26  1  0
  2 27  1  0
  3 28  1  0
  3 29  1  0
  6 30  1  0
  8 31  1  0
  9 32  1  0
 10 33  1  0
 11 34  1  0
 14 35  1  0
 15 36  1  0
 16 37  1  0
 18 38  1  0
 19 39  1  0
 19 40  1  0
 20 41  1  0
 20 42  1  0
 21 43  1  0
 22 44  1  0
 22 45  1  0
 23 46  1  0
 23 47  1  0
M  END
>  <Energy>  (699) 
1401.6583313574622

>  <compound_id>  (699) 
35622

>  <target_id>  (699) 
1

>  <reference_id>  (699) 
44

>  <inspiration_ids>  (699) 
[44, 96]

>  <energy_score>  (699) 
1309.083113763908

>  <distance_score>  (699) 
8.587088888921341

>  <path>  (699) 
/opt/xchem-fragalysis-2/maxwin/BulkDock/SCRATCH/511013/C35622-P44/C35622-P44.minimised.mol

>  <scratch_subdir>  (699) 
/opt/xchem-fragalysis-2/maxwin/BulkDock/SCRATCH/511013/C35622-P44

>  <fragmenstein_runtime>  (699) 
23.885574102401733

>  <fragmenstein_outcome>  (699) 
too moved

>  <fragmenstein_mode>  (699) 
expansion

>  <fragmenstein_error>  (699) 


$$$$
C35622-P96
     RDKit          3D

 47 49  0  0  0  0  0  0  0  0999 V2000
   -7.2458   -8.6574   28.6045 C   0  0  0  0  0  0  0  0  0  0  0  0
   -6.5275   -9.8621   29.9649 C   0  0  0  0  0  0  0  0  0  0  0  0
   -7.1387  -11.9615   30.2954 C   0  0  0  0  0  0  0  0  0  0  0  0
   -7.1357  -13.4508   31.9266 C   0  0  0  0  0  0  0  0  0  0  0  0
   -7.1449  -12.8992   32.9569 O   0  0  0  0  0  0  0  0  0  0  0  0
   -6.9761  -15.2617   32.0376 N   0  0  0  0  0  0  0  0  0  0  0  0
   -6.9528  -16.2754   33.2994 C   0  0  0  0  0  0  0  0  0  0  0  0
   -6.8390  -15.5461   34.4940 C   0  0  0  0  0  0  0  0  0  0  0  0
   -6.2977  -16.1136   35.6619 C   0  0  0  0  0  0  0  0  0  0  0  0
   -5.9117  -17.4534   35.7172 C   0  0  0  0  0  0  0  0  0  0  0  0
   -6.2245  -18.3181   34.6671 C   0  0  0  0  0  0  0  0  0  0  0  0
   -6.8395  -17.8666   33.4789 C   0  0  0  0  0  0  0  0  0  0  0  0
   -7.8216  -19.1609   32.7533 C   0  0  0  0  0  0  0  0  0  0  0  0
   -8.3063  -20.7746   33.1042 C   0  0  0  0  0  0  0  0  0  0  0  0
   -9.5987  -21.0340   32.6114 C   0  0  0  0  0  0  0  0  0  0  0  0
  -10.0221  -19.8898   32.0290 N   0  0  0  0  0  0  0  0  0  0  0  0
   -9.1448  -18.8401   32.0089 N   0  0  0  0  0  0  0  0  0  0  0  0
   -5.4937   -8.0996   30.3613 C   0  0  0  0  0  0  0  0  0  0  0  0
   -3.7240   -7.6666   29.8742 C   0  0  0  0  0  0  0  0  0  0  0  0
   -3.0382   -6.2521   29.7491 C   0  0  0  0  0  0  0  0  0  0  0  0
   -3.1474   -5.4570   30.9403 N   0  0  0  0  0  0  0  0  0  0  0  0
   -4.3614   -5.8099   31.6318 C   0  0  0  0  0  0  0  0  0  0  0  0
   -5.4676   -6.4033   30.7010 C   0  0  0  0  0  0  0  0  0  0  0  0
   -8.3265   -8.5656   28.4993 H   0  0  0  0  0  0  0  0  0  0  0  0
   -6.9926   -7.6034   28.6172 H   0  0  0  0  0  0  0  0  0  0  0  0
   -6.9340   -9.0673   27.7233 H   0  0  0  0  0  0  0  0  0  0  0  0
   -5.6809  -10.2123   29.3143 H   0  0  0  0  0  0  0  0  0  0  0  0
   -8.0220  -12.3426   29.8602 H   0  0  0  0  0  0  0  0  0  0  0  0
   -6.4759  -12.3857   29.5036 H   0  0  0  0  0  0  0  0  0  0  0  0
   -6.8910  -15.6249   31.1045 H   0  0  0  0  0  0  0  0  0  0  0  0
   -7.0728  -14.4883   34.5187 H   0  0  0  0  0  0  0  0  0  0  0  0
   -6.1590  -15.4804   36.5352 H   0  0  0  0  0  0  0  0  0  0  0  0
   -5.5119  -17.8587   36.6433 H   0  0  0  0  0  0  0  0  0  0  0  0
   -6.2066  -19.3697   34.9114 H   0  0  0  0  0  0  0  0  0  0  0  0
   -7.8073  -21.5878   33.5288 H   0  0  0  0  0  0  0  0  0  0  0  0
  -10.2084  -21.9251   32.6467 H   0  0  0  0  0  0  0  0  0  0  0  0
  -10.9264  -19.7211   31.6083 H   0  0  0  0  0  0  0  0  0  0  0  0
   -5.8581   -8.0359   31.3618 H   0  0  0  0  0  0  0  0  0  0  0  0
   -3.4085   -8.3050   29.0504 H   0  0  0  0  0  0  0  0  0  0  0  0
   -3.0434   -7.8964   30.7007 H   0  0  0  0  0  0  0  0  0  0  0  0
   -3.3738   -5.6302   28.9363 H   0  0  0  0  0  0  0  0  0  0  0  0
   -1.9717   -6.4135   29.5376 H   0  0  0  0  0  0  0  0  0  0  0  0
   -2.3498   -5.5995   31.5614 H   0  0  0  0  0  0  0  0  0  0  0  0
   -4.1577   -6.5013   32.4577 H   0  0  0  0  0  0  0  0  0  0  0  0
   -4.7339   -4.8936   32.1076 H   0  0  0  0  0  0  0  0  0  0  0  0
   -5.5609   -5.9092   29.7479 H   0  0  0  0  0  0  0  0  0  0  0  0
   -6.2495   -6.0081   31.3113 H   0  0  0  0  0  0  0  0  0  0  0  0
  1  2  1  0
  2  3  1  0
  3  4  1  0
  4  5  2  0
  4  6  1  0
  6  7  1  0
  7  8  2  0
  8  9  1  0
  9 10  2  0
 10 11  1  0
 11 12  2  0
 12 13  1  0
 13 14  1  0
 14 15  2  0
 15 16  1  0
 16 17  1  0
  2 18  1  0
 18 19  1  0
 19 20  1  0
 20 21  1  0
 21 22  1  0
 22 23  1  0
 12  7  1  0
 17 13  2  0
 23 18  1  0
  1 24  1  0
  1 25  1  0
  1 26  1  0
  2 27  1  0
  3 28  1  0
  3 29  1  0
  6 30  1  0
  8 31  1  0
  9 32  1  0
 10 33  1  0
 11 34  1  0
 14 35  1  0
 15 36  1  0
 16 37  1  0
 18 38  1  0
 19 39  1  0
 19 40  1  0
 20 41  1  0
 20 42  1  0
 21 43  1  0
 22 44  1  0
 22 45  1  0
 23 46  1  0
 23 47  1  0
M  END
>  <Energy>  (700) 
890.2761755953959

>  <compound_id>  (700) 
35622

>  <target_id>  (700) 
1

>  <reference_id>  (700) 
96

>  <inspiration_ids>  (700) 
[44, 96]

>  <energy_score>  (700) 
797.700958001868

>  <distance_score>  (700) 
8.677156031850211

>  <path>  (700) 
/opt/xchem-fragalysis-2/maxwin/BulkDock/SCRATCH/511013/C35622-P96/C35622-P96.minimised.mol

>  <scratch_subdir>  (700) 
/opt/xchem-fragalysis-2/maxwin/BulkDock/SCRATCH/511013/C35622-P96

>  <fragmenstein_runtime>  (700) 
19.294799327850342

>  <fragmenstein_outcome>  (700) 
too moved

>  <fragmenstein_mode>  (700) 
expansion

>  <fragmenstein_error>  (700) 


$$$$
C35623-P44
     RDKit          3D

 50 51  0  0  0  0  0  0  0  0999 V2000
   -6.5054  -18.9079   32.7681 C   0  0  0  0  0  0  0  0  0  0  0  0
   -6.2135  -16.9792   32.1523 C   0  0  0  0  0  0  0  0  0  0  0  0
   -7.6567  -17.1824   32.6828 C   0  0  0  0  0  0  0  0  0  0  0  0
   -5.5270  -15.3132   31.0065 C   0  0  0  0  0  0  0  0  0  0  0  0
   -6.2518  -13.5263   30.4808 N   0  0  0  0  0  0  0  0  0  0  0  0
   -5.4534  -11.9690   29.5103 C   0  0  0  0  0  0  0  0  0  0  0  0
   -4.3250  -12.0429   29.0307 O   0  0  0  0  0  0  0  0  0  0  0  0
   -6.5415  -10.0568   29.4534 C   0  0  0  0  0  0  0  0  0  0  0  0
   -5.9867   -8.0929   29.1788 N   0  0  0  0  0  0  0  0  0  0  0  0
   -5.2603   -8.0753   27.8901 C   0  0  0  0  0  0  0  0  0  0  0  0
   -6.6483   -6.1715   29.2747 C   0  0  0  0  0  0  0  0  0  0  0  0
   -6.2398   -4.6349   29.6652 C   0  0  0  0  0  0  0  0  0  0  0  0
   -5.6399   -4.2380   28.3715 C   0  0  0  0  0  0  0  0  0  0  0  0
   -5.6804   -2.9703   28.0575 N   0  0  0  0  0  0  0  0  0  0  0  0
   -4.2820   -2.5012   27.1657 C   0  0  0  0  0  0  0  0  0  0  0  0
   -4.1304   -2.5076   25.9595 O   0  0  0  0  0  0  0  0  0  0  0  0
   -2.9417   -1.8189   27.9037 C   0  0  0  0  0  0  0  0  0  0  0  0
   -2.1322   -2.1744   29.0404 C   0  0  0  0  0  0  0  0  0  0  0  0
   -1.0971   -1.2715   29.0841 C   0  0  0  0  0  0  0  0  0  0  0  0
   -1.2836   -0.4622   28.0116 N   0  0  0  0  0  0  0  0  0  0  0  0
   -2.4070   -0.7053   27.3422 N   0  0  0  0  0  0  0  0  0  0  0  0
   -7.1941   -3.4258   27.5380 C   0  0  0  0  0  0  0  0  0  0  0  0
   -7.7612   -5.0344   28.0496 C   0  0  0  0  0  0  0  0  0  0  0  0
   -6.8597  -19.5357   31.9670 H   0  0  0  0  0  0  0  0  0  0  0  0
   -5.7045  -19.5813   33.1597 H   0  0  0  0  0  0  0  0  0  0  0  0
   -7.2560  -19.1230   33.5476 H   0  0  0  0  0  0  0  0  0  0  0  0
   -6.4000  -17.3989   31.1554 H   0  0  0  0  0  0  0  0  0  0  0  0
   -8.1299  -17.6208   33.5755 H   0  0  0  0  0  0  0  0  0  0  0  0
   -8.3888  -16.3699   32.4679 H   0  0  0  0  0  0  0  0  0  0  0  0
   -7.7619  -17.9507   31.9073 H   0  0  0  0  0  0  0  0  0  0  0  0
   -4.4704  -15.1857   31.2345 H   0  0  0  0  0  0  0  0  0  0  0  0
   -5.5700  -15.7803   30.0248 H   0  0  0  0  0  0  0  0  0  0  0  0
   -7.1046  -13.2652   30.8613 H   0  0  0  0  0  0  0  0  0  0  0  0
   -7.1416  -10.0795   30.2859 H   0  0  0  0  0  0  0  0  0  0  0  0
   -7.3155   -9.7252   28.7913 H   0  0  0  0  0  0  0  0  0  0  0  0
   -5.8946   -8.8007   27.4015 H   0  0  0  0  0  0  0  0  0  0  0  0
   -4.2120   -7.8691   27.9659 H   0  0  0  0  0  0  0  0  0  0  0  0
   -5.3368   -7.3590   27.0949 H   0  0  0  0  0  0  0  0  0  0  0  0
   -6.9621   -6.1408   30.3499 H   0  0  0  0  0  0  0  0  0  0  0  0
   -7.1604   -4.0806   29.9270 H   0  0  0  0  0  0  0  0  0  0  0  0
   -5.6936   -4.4263   30.5918 H   0  0  0  0  0  0  0  0  0  0  0  0
   -5.5097   -4.4204   27.3609 H   0  0  0  0  0  0  0  0  0  0  0  0
   -5.9822   -5.1261   27.8268 H   0  0  0  0  0  0  0  0  0  0  0  0
   -2.2418   -3.0092   29.7050 H   0  0  0  0  0  0  0  0  0  0  0  0
   -0.2397   -1.1733   29.7321 H   0  0  0  0  0  0  0  0  0  0  0  0
   -0.6909    0.2883   27.6759 H   0  0  0  0  0  0  0  0  0  0  0  0
   -7.3354   -3.2879   26.4598 H   0  0  0  0  0  0  0  0  0  0  0  0
   -7.8713   -2.7159   28.0349 H   0  0  0  0  0  0  0  0  0  0  0  0
   -7.8105   -5.4481   27.0294 H   0  0  0  0  0  0  0  0  0  0  0  0
   -8.7847   -4.8567   28.4112 H   0  0  0  0  0  0  0  0  0  0  0  0
  1  2  1  0
  2  3  1  0
  2  4  1  0
  4  5  1  0
  5  6  1  0
  6  7  2  0
  6  8  1  0
  8  9  1  0
  9 10  1  0
  9 11  1  0
 11 12  1  0
 12 13  1  0
 13 14  1  0
 14 15  1  0
 15 16  2  0
 15 17  1  0
 17 18  1  0
 18 19  2  0
 19 20  1  0
 20 21  1  0
 14 22  1  0
 22 23  1  0
 23 11  1  0
 21 17  2  0
  1 24  1  0
  1 25  1  0
  1 26  1  0
  2 27  1  0
  3 28  1  0
  3 29  1  0
  3 30  1  0
  4 31  1  0
  4 32  1  0
  5 33  1  0
  8 34  1  0
  8 35  1  0
 10 36  1  0
 10 37  1  0
 10 38  1  0
 11 39  1  0
 12 40  1  0
 12 41  1  0
 13 42  1  0
 13 43  1  0
 18 44  1  0
 19 45  1  0
 20 46  1  0
 22 47  1  0
 22 48  1  0
 23 49  1  0
 23 50  1  0
M  END
>  <Energy>  (701) 
1439.9050202065071

>  <compound_id>  (701) 
35623

>  <target_id>  (701) 
1

>  <reference_id>  (701) 
44

>  <inspiration_ids>  (701) 
[44, 96]

>  <energy_score>  (701) 
1306.7181591330725

>  <distance_score>  (701) 
9.101494702440185

>  <path>  (701) 
/opt/xchem-fragalysis-2/maxwin/BulkDock/SCRATCH/511013/C35623-P44/C35623-P44.minimised.mol

>  <scratch_subdir>  (701) 
/opt/xchem-fragalysis-2/maxwin/BulkDock/SCRATCH/511013/C35623-P44

>  <fragmenstein_runtime>  (701) 
31.294620752334595

>  <fragmenstein_outcome>  (701) 
too moved

>  <fragmenstein_mode>  (701) 
expansion

>  <fragmenstein_error>  (701) 


$$$$
C35623-P96
     RDKit          3D

 50 51  0  0  0  0  0  0  0  0999 V2000
   -8.0422  -22.1248   32.8047 C   0  0  0  0  0  0  0  0  0  0  0  0
   -6.7519  -22.9652   32.4675 C   0  0  0  0  0  0  0  0  0  0  0  0
   -7.1711  -24.2414   33.2696 C   0  0  0  0  0  0  0  0  0  0  0  0
   -4.9194  -22.1512   32.2204 C   0  0  0  0  0  0  0  0  0  0  0  0
   -3.4930  -21.1294   31.3939 N   0  0  0  0  0  0  0  0  0  0  0  0
   -2.8072  -19.7717   31.8279 C   0  0  0  0  0  0  0  0  0  0  0  0
   -3.0731  -19.0125   32.7346 O   0  0  0  0  0  0  0  0  0  0  0  0
   -1.4963  -19.5014   30.9262 C   0  0  0  0  0  0  0  0  0  0  0  0
   -1.2287  -18.1832   30.1786 N   0  0  0  0  0  0  0  0  0  0  0  0
   -0.7583  -18.6035   28.8319 C   0  0  0  0  0  0  0  0  0  0  0  0
   -0.2204  -17.2520   30.7883 C   0  0  0  0  0  0  0  0  0  0  0  0
    0.5088  -16.2842   29.8317 C   0  0  0  0  0  0  0  0  0  0  0  0
    1.3794  -15.3207   30.6615 C   0  0  0  0  0  0  0  0  0  0  0  0
    0.6778  -14.1983   31.4003 N   0  0  0  0  0  0  0  0  0  0  0  0
   -0.1045  -13.4284   30.4913 C   0  0  0  0  0  0  0  0  0  0  0  0
   -1.2501  -13.5460   30.1575 O   0  0  0  0  0  0  0  0  0  0  0  0
    0.6971  -12.2905   29.9444 C   0  0  0  0  0  0  0  0  0  0  0  0
    1.9564  -11.7937   30.3923 C   0  0  0  0  0  0  0  0  0  0  0  0
    2.2646  -10.7475   29.5557 C   0  0  0  0  0  0  0  0  0  0  0  0
    1.2217  -10.6528   28.6862 N   0  0  0  0  0  0  0  0  0  0  0  0
    0.2735  -11.5718   28.8845 N   0  0  0  0  0  0  0  0  0  0  0  0
    0.2909  -15.3327   32.3164 C   0  0  0  0  0  0  0  0  0  0  0  0
   -0.7891  -16.3179   31.8398 C   0  0  0  0  0  0  0  0  0  0  0  0
   -8.7809  -22.1969   32.0027 H   0  0  0  0  0  0  0  0  0  0  0  0
   -7.8197  -21.1026   33.0934 H   0  0  0  0  0  0  0  0  0  0  0  0
   -8.6043  -22.5290   33.6555 H   0  0  0  0  0  0  0  0  0  0  0  0
   -7.0019  -23.3635   31.4667 H   0  0  0  0  0  0  0  0  0  0  0  0
   -6.5865  -25.1505   33.2013 H   0  0  0  0  0  0  0  0  0  0  0  0
   -8.1515  -24.5843   32.8977 H   0  0  0  0  0  0  0  0  0  0  0  0
   -7.3506  -23.9819   34.3078 H   0  0  0  0  0  0  0  0  0  0  0  0
   -5.1035  -22.7183   31.3369 H   0  0  0  0  0  0  0  0  0  0  0  0
   -4.2002  -22.6889   32.8257 H   0  0  0  0  0  0  0  0  0  0  0  0
   -3.0650  -21.4628   30.5373 H   0  0  0  0  0  0  0  0  0  0  0  0
   -1.4553  -20.3351   30.2144 H   0  0  0  0  0  0  0  0  0  0  0  0
   -0.6505  -19.6902   31.6014 H   0  0  0  0  0  0  0  0  0  0  0  0
    0.2094  -19.1165   28.8822 H   0  0  0  0  0  0  0  0  0  0  0  0
   -1.4821  -19.2796   28.3592 H   0  0  0  0  0  0  0  0  0  0  0  0
   -0.6765  -17.7560   28.1438 H   0  0  0  0  0  0  0  0  0  0  0  0
    0.5620  -17.8695   31.2520 H   0  0  0  0  0  0  0  0  0  0  0  0
   -0.2019  -15.7381   29.2018 H   0  0  0  0  0  0  0  0  0  0  0  0
    1.1745  -16.8442   29.1639 H   0  0  0  0  0  0  0  0  0  0  0  0
    2.1782  -15.8217   31.2354 H   0  0  0  0  0  0  0  0  0  0  0  0
    1.9723  -14.7863   29.9018 H   0  0  0  0  0  0  0  0  0  0  0  0
    2.5441  -12.1618   31.2216 H   0  0  0  0  0  0  0  0  0  0  0  0
    3.1126  -10.0818   29.5103 H   0  0  0  0  0  0  0  0  0  0  0  0
    1.0844   -9.9922   27.9277 H   0  0  0  0  0  0  0  0  0  0  0  0
    1.1322  -15.8005   32.8549 H   0  0  0  0  0  0  0  0  0  0  0  0
   -0.2094  -14.7786   33.1265 H   0  0  0  0  0  0  0  0  0  0  0  0
   -1.1397  -16.9076   32.6933 H   0  0  0  0  0  0  0  0  0  0  0  0
   -1.6299  -15.7573   31.4275 H   0  0  0  0  0  0  0  0  0  0  0  0
  1  2  1  0
  2  3  1  0
  2  4  1  0
  4  5  1  0
  5  6  1  0
  6  7  2  0
  6  8  1  0
  8  9  1  0
  9 10  1  0
  9 11  1  0
 11 12  1  0
 12 13  1  0
 13 14  1  0
 14 15  1  0
 15 16  2  0
 15 17  1  0
 17 18  1  0
 18 19  2  0
 19 20  1  0
 20 21  1  0
 14 22  1  0
 22 23  1  0
 23 11  1  0
 21 17  2  0
  1 24  1  0
  1 25  1  0
  1 26  1  0
  2 27  1  0
  3 28  1  0
  3 29  1  0
  3 30  1  0
  4 31  1  0
  4 32  1  0
  5 33  1  0
  8 34  1  0
  8 35  1  0
 10 36  1  0
 10 37  1  0
 10 38  1  0
 11 39  1  0
 12 40  1  0
 12 41  1  0
 13 42  1  0
 13 43  1  0
 18 44  1  0
 19 45  1  0
 20 46  1  0
 22 47  1  0
 22 48  1  0
 23 49  1  0
 23 50  1  0
M  END
>  <Energy>  (702) 
394.81242087221324

>  <compound_id>  (702) 
35623

>  <target_id>  (702) 
1

>  <reference_id>  (702) 
96

>  <inspiration_ids>  (702) 
[44, 96]

>  <energy_score>  (702) 
261.62555979878755

>  <distance_score>  (702) 
13.215426984043644

>  <path>  (702) 
/opt/xchem-fragalysis-2/maxwin/BulkDock/SCRATCH/511013/C35623-P96/C35623-P96.minimised.mol

>  <scratch_subdir>  (702) 
/opt/xchem-fragalysis-2/maxwin/BulkDock/SCRATCH/511013/C35623-P96

>  <fragmenstein_runtime>  (702) 
30.612236499786377

>  <fragmenstein_outcome>  (702) 
too moved

>  <fragmenstein_mode>  (702) 
expansion

>  <fragmenstein_error>  (702) 


$$$$
C35624-P44
     RDKit          3D

 52 53  0  0  0  0  0  0  0  0999 V2000
  -11.8418  -21.1493   27.1456 C   0  0  0  0  0  0  0  0  0  0  0  0
  -10.0570  -20.2292   27.0675 C   0  0  0  0  0  0  0  0  0  0  0  0
  -11.3184  -20.6218   25.3468 C   0  0  0  0  0  0  0  0  0  0  0  0
   -9.7574  -17.8652   27.1818 C   0  0  0  0  0  0  0  0  0  0  0  0
  -10.8175  -17.3395   27.1479 O   0  0  0  0  0  0  0  0  0  0  0  0
   -8.3428  -16.4290   27.1098 N   0  0  0  0  0  0  0  0  0  0  0  0
   -8.3877  -14.2815   26.8291 C   0  0  0  0  0  0  0  0  0  0  0  0
   -7.3610  -12.3074   26.2959 C   0  0  0  0  0  0  0  0  0  0  0  0
   -7.1462  -10.2029   25.4680 C   0  0  0  0  0  0  0  0  0  0  0  0
   -6.7114   -7.9841   24.9844 C   0  0  0  0  0  0  0  0  0  0  0  0
   -7.0805   -5.8320   24.5165 C   0  0  0  0  0  0  0  0  0  0  0  0
   -6.7459   -3.6208   24.2690 C   0  0  0  0  0  0  0  0  0  0  0  0
   -6.3391   -1.9780   25.4247 C   0  0  0  0  0  0  0  0  0  0  0  0
   -4.6804   -2.4225   26.5233 C   0  0  0  0  0  0  0  0  0  0  0  0
   -3.3189   -2.4215   26.0277 N   0  0  0  0  0  0  0  0  0  0  0  0
   -3.4089   -2.2031   24.6660 C   0  0  0  0  0  0  0  0  0  0  0  0
   -4.7315   -3.0112   23.7468 C   0  0  0  0  0  0  0  0  0  0  0  0
  -10.4179  -21.4517   28.4046 C   0  0  0  0  0  0  0  0  0  0  0  0
  -10.3100  -22.8857   28.2502 C   0  0  0  0  0  0  0  0  0  0  0  0
  -11.5877  -23.0810   28.6334 C   0  0  0  0  0  0  0  0  0  0  0  0
  -11.8795  -22.1739   29.6179 N   0  0  0  0  0  0  0  0  0  0  0  0
  -11.0519  -21.1461   29.5810 N   0  0  0  0  0  0  0  0  0  0  0  0
  -11.8678  -22.1904   26.7701 H   0  0  0  0  0  0  0  0  0  0  0  0
  -12.4684  -20.9377   28.0272 H   0  0  0  0  0  0  0  0  0  0  0  0
  -12.6118  -20.7562   26.5788 H   0  0  0  0  0  0  0  0  0  0  0  0
  -12.1717  -20.1018   24.9683 H   0  0  0  0  0  0  0  0  0  0  0  0
  -11.8971  -21.6097   25.1371 H   0  0  0  0  0  0  0  0  0  0  0  0
  -10.7710  -20.5025   24.3591 H   0  0  0  0  0  0  0  0  0  0  0  0
   -7.4852  -16.8604   27.2239 H   0  0  0  0  0  0  0  0  0  0  0  0
   -7.9472  -14.6162   25.8829 H   0  0  0  0  0  0  0  0  0  0  0  0
   -7.9710  -14.1734   27.8336 H   0  0  0  0  0  0  0  0  0  0  0  0
   -8.3624  -11.7866   26.2742 H   0  0  0  0  0  0  0  0  0  0  0  0
   -6.6489  -12.6226   25.5768 H   0  0  0  0  0  0  0  0  0  0  0  0
   -7.3022  -10.5607   24.4525 H   0  0  0  0  0  0  0  0  0  0  0  0
   -7.7263   -9.7665   26.2500 H   0  0  0  0  0  0  0  0  0  0  0  0
   -5.8930   -7.5577   24.4631 H   0  0  0  0  0  0  0  0  0  0  0  0
   -6.6359   -7.7558   26.0442 H   0  0  0  0  0  0  0  0  0  0  0  0
   -7.1725   -5.6477   23.2171 H   0  0  0  0  0  0  0  0  0  0  0  0
   -8.0150   -5.7334   25.0985 H   0  0  0  0  0  0  0  0  0  0  0  0
   -7.5760   -3.0750   23.8338 H   0  0  0  0  0  0  0  0  0  0  0  0
   -6.6037   -0.9907   25.0213 H   0  0  0  0  0  0  0  0  0  0  0  0
   -7.3101   -1.8765   26.0705 H   0  0  0  0  0  0  0  0  0  0  0  0
   -4.3487   -1.9724   27.4609 H   0  0  0  0  0  0  0  0  0  0  0  0
   -4.9694   -3.2060   27.1996 H   0  0  0  0  0  0  0  0  0  0  0  0
   -2.6476   -1.8322   26.5156 H   0  0  0  0  0  0  0  0  0  0  0  0
   -3.4984   -1.1794   24.9462 H   0  0  0  0  0  0  0  0  0  0  0  0
   -2.5751   -2.3745   24.0036 H   0  0  0  0  0  0  0  0  0  0  0  0
   -3.7816   -3.6551   23.7715 H   0  0  0  0  0  0  0  0  0  0  0  0
   -4.5910   -3.2496   22.5433 H   0  0  0  0  0  0  0  0  0  0  0  0
   -9.8322  -23.5052   27.5045 H   0  0  0  0  0  0  0  0  0  0  0  0
  -12.3390  -23.7286   28.2228 H   0  0  0  0  0  0  0  0  0  0  0  0
  -12.7460  -22.1074   30.1450 H   0  0  0  0  0  0  0  0  0  0  0  0
  1  2  1  0
  2  3  1  0
  2  4  1  0
  4  5  2  0
  4  6  1  0
  6  7  1  0
  7  8  1  0
  8  9  1  0
  9 10  1  0
 10 11  1  0
 11 12  1  0
 12 13  1  0
 13 14  1  0
 14 15  1  0
 15 16  1  0
 16 17  1  0
  2 18  1  0
 18 19  1  0
 19 20  2  0
 20 21  1  0
 21 22  1  0
 17 12  1  0
 22 18  2  0
  1 23  1  0
  1 24  1  0
  1 25  1  0
  3 26  1  0
  3 27  1  0
  3 28  1  0
  6 29  1  0
  7 30  1  0
  7 31  1  0
  8 32  1  0
  8 33  1  0
  9 34  1  0
  9 35  1  0
 10 36  1  0
 10 37  1  0
 11 38  1  0
 11 39  1  0
 12 40  1  0
 13 41  1  0
 13 42  1  0
 14 43  1  0
 14 44  1  0
 15 45  1  0
 16 46  1  0
 16 47  1  0
 17 48  1  0
 17 49  1  0
 19 50  1  0
 20 51  1  0
 21 52  1  0
M  END
>  <Energy>  (703) 
2647.3405806543133

>  <compound_id>  (703) 
35624

>  <target_id>  (703) 
1

>  <reference_id>  (703) 
44

>  <inspiration_ids>  (703) 
[44, 96]

>  <energy_score>  (703) 
2572.7293650390748

>  <distance_score>  (703) 
5.6541311529730605

>  <path>  (703) 
/opt/xchem-fragalysis-2/maxwin/BulkDock/SCRATCH/511013/C35624-P44/C35624-P44.minimised.mol

>  <scratch_subdir>  (703) 
/opt/xchem-fragalysis-2/maxwin/BulkDock/SCRATCH/511013/C35624-P44

>  <fragmenstein_runtime>  (703) 
30.861704349517822

>  <fragmenstein_outcome>  (703) 
too moved

>  <fragmenstein_mode>  (703) 
expansion

>  <fragmenstein_error>  (703) 


$$$$
C35624-P96
     RDKit          3D

 52 53  0  0  0  0  0  0  0  0999 V2000
  -10.2706  -20.3743   28.3781 C   0  0  0  0  0  0  0  0  0  0  0  0
  -11.4162  -19.3072   29.1188 C   0  0  0  0  0  0  0  0  0  0  0  0
  -12.1246  -20.9228   29.1868 C   0  0  0  0  0  0  0  0  0  0  0  0
  -11.6525  -17.3026   28.3389 C   0  0  0  0  0  0  0  0  0  0  0  0
  -12.5834  -16.6885   28.7767 O   0  0  0  0  0  0  0  0  0  0  0  0
  -10.4775  -16.5454   27.0156 N   0  0  0  0  0  0  0  0  0  0  0  0
  -10.3762  -14.7564   26.2347 C   0  0  0  0  0  0  0  0  0  0  0  0
   -8.9465  -13.2637   26.1357 C   0  0  0  0  0  0  0  0  0  0  0  0
   -7.9153  -11.6020   25.4206 C   0  0  0  0  0  0  0  0  0  0  0  0
   -7.4981   -9.7111   24.5615 C   0  0  0  0  0  0  0  0  0  0  0  0
   -6.9363   -7.7947   25.4068 C   0  0  0  0  0  0  0  0  0  0  0  0
   -5.3818   -6.2691   25.3177 C   0  0  0  0  0  0  0  0  0  0  0  0
   -3.9550   -5.3989   26.3860 C   0  0  0  0  0  0  0  0  0  0  0  0
   -2.3391   -5.4022   26.6385 C   0  0  0  0  0  0  0  0  0  0  0  0
   -1.6756   -4.7033   25.5611 N   0  0  0  0  0  0  0  0  0  0  0  0
   -2.1052   -5.4682   24.4216 C   0  0  0  0  0  0  0  0  0  0  0  0
   -3.7550   -5.6930   24.2150 C   0  0  0  0  0  0  0  0  0  0  0  0
  -11.1393  -19.6818   30.8809 C   0  0  0  0  0  0  0  0  0  0  0  0
  -12.0006  -20.3753   31.8675 C   0  0  0  0  0  0  0  0  0  0  0  0
  -11.2960  -20.4846   33.0351 C   0  0  0  0  0  0  0  0  0  0  0  0
  -10.1292  -19.8680   32.7704 N   0  0  0  0  0  0  0  0  0  0  0  0
   -9.9948  -19.4791   31.5011 N   0  0  0  0  0  0  0  0  0  0  0  0
   -9.8674  -21.1905   28.9666 H   0  0  0  0  0  0  0  0  0  0  0  0
  -10.7205  -20.8148   27.4756 H   0  0  0  0  0  0  0  0  0  0  0  0
   -9.4180  -19.8892   27.9977 H   0  0  0  0  0  0  0  0  0  0  0  0
  -12.8307  -21.1687   29.9635 H   0  0  0  0  0  0  0  0  0  0  0  0
  -12.3354  -21.4659   28.2745 H   0  0  0  0  0  0  0  0  0  0  0  0
  -11.4205  -21.6628   29.6312 H   0  0  0  0  0  0  0  0  0  0  0  0
   -9.7074  -17.1854   26.8444 H   0  0  0  0  0  0  0  0  0  0  0  0
  -10.0696  -15.2429   25.3085 H   0  0  0  0  0  0  0  0  0  0  0  0
  -11.3519  -14.2862   26.3368 H   0  0  0  0  0  0  0  0  0  0  0  0
   -8.4348  -13.3682   27.0876 H   0  0  0  0  0  0  0  0  0  0  0  0
   -8.4718  -13.8915   25.3698 H   0  0  0  0  0  0  0  0  0  0  0  0
   -7.4495  -12.1730   24.6574 H   0  0  0  0  0  0  0  0  0  0  0  0
   -8.9315  -11.2116   25.2840 H   0  0  0  0  0  0  0  0  0  0  0  0
   -7.3536  -10.0116   23.5182 H   0  0  0  0  0  0  0  0  0  0  0  0
   -8.5290   -9.4297   24.3616 H   0  0  0  0  0  0  0  0  0  0  0  0
   -7.3158   -7.7307   26.4632 H   0  0  0  0  0  0  0  0  0  0  0  0
   -7.9165   -7.5539   25.0107 H   0  0  0  0  0  0  0  0  0  0  0  0
   -5.0804   -6.8426   24.5301 H   0  0  0  0  0  0  0  0  0  0  0  0
   -3.7699   -4.5001   25.8466 H   0  0  0  0  0  0  0  0  0  0  0  0
   -4.2840   -5.2970   27.3963 H   0  0  0  0  0  0  0  0  0  0  0  0
   -2.1471   -4.8372   27.5608 H   0  0  0  0  0  0  0  0  0  0  0  0
   -1.8771   -6.3854   26.7883 H   0  0  0  0  0  0  0  0  0  0  0  0
   -2.0043   -3.7409   25.4768 H   0  0  0  0  0  0  0  0  0  0  0  0
   -1.7352   -4.9771   23.5109 H   0  0  0  0  0  0  0  0  0  0  0  0
   -1.5757   -6.4257   24.4266 H   0  0  0  0  0  0  0  0  0  0  0  0
   -3.7818   -4.7238   23.8001 H   0  0  0  0  0  0  0  0  0  0  0  0
   -3.5057   -6.4803   23.5110 H   0  0  0  0  0  0  0  0  0  0  0  0
  -13.0246  -20.7117   31.7729 H   0  0  0  0  0  0  0  0  0  0  0  0
  -11.5385  -20.8900   34.0060 H   0  0  0  0  0  0  0  0  0  0  0  0
   -9.3538  -19.6984   33.4012 H   0  0  0  0  0  0  0  0  0  0  0  0
  1  2  1  0
  2  3  1  0
  2  4  1  0
  4  5  2  0
  4  6  1  0
  6  7  1  0
  7  8  1  0
  8  9  1  0
  9 10  1  0
 10 11  1  0
 11 12  1  0
 12 13  1  0
 13 14  1  0
 14 15  1  0
 15 16  1  0
 16 17  1  0
  2 18  1  0
 18 19  1  0
 19 20  2  0
 20 21  1  0
 21 22  1  0
 17 12  1  0
 22 18  2  0
  1 23  1  0
  1 24  1  0
  1 25  1  0
  3 26  1  0
  3 27  1  0
  3 28  1  0
  6 29  1  0
  7 30  1  0
  7 31  1  0
  8 32  1  0
  8 33  1  0
  9 34  1  0
  9 35  1  0
 10 36  1  0
 10 37  1  0
 11 38  1  0
 11 39  1  0
 12 40  1  0
 13 41  1  0
 13 42  1  0
 14 43  1  0
 14 44  1  0
 15 45  1  0
 16 46  1  0
 16 47  1  0
 17 48  1  0
 17 49  1  0
 19 50  1  0
 20 51  1  0
 21 52  1  0
M  END
>  <Energy>  (704) 
1404.3761969905065

>  <compound_id>  (704) 
35624

>  <target_id>  (704) 
1

>  <reference_id>  (704) 
96

>  <inspiration_ids>  (704) 
[44, 96]

>  <energy_score>  (704) 
1329.7649813752357

>  <distance_score>  (704) 
7.481085679836158

>  <path>  (704) 
/opt/xchem-fragalysis-2/maxwin/BulkDock/SCRATCH/511013/C35624-P96/C35624-P96.minimised.mol

>  <scratch_subdir>  (704) 
/opt/xchem-fragalysis-2/maxwin/BulkDock/SCRATCH/511013/C35624-P96

>  <fragmenstein_runtime>  (704) 
15.88076639175415

>  <fragmenstein_outcome>  (704) 
too moved

>  <fragmenstein_mode>  (704) 
expansion

>  <fragmenstein_error>  (704) 


$$$$
C35625-P44
     RDKit          3D

 48 50  0  0  0  0  0  0  0  0999 V2000
   -6.9028   -9.3603   26.7909 C   0  0  0  0  0  0  0  0  0  0  0  0
   -6.5630   -9.6796   28.7164 C   0  0  0  0  0  0  0  0  0  0  0  0
   -5.8052  -11.7847   28.9961 C   0  0  0  0  0  0  0  0  0  0  0  0
   -6.9042  -13.5897   29.6588 C   0  0  0  0  0  0  0  0  0  0  0  0
   -7.5568  -14.0631   28.6954 O   0  0  0  0  0  0  0  0  0  0  0  0
   -7.1319  -14.2564   31.4389 N   0  0  0  0  0  0  0  0  0  0  0  0
   -6.0223  -15.5348   31.7211 C   0  0  0  0  0  0  0  0  0  0  0  0
   -6.6455  -17.3695   32.2209 C   0  0  0  0  0  0  0  0  0  0  0  0
   -7.6518  -18.1701   33.0527 O   0  0  0  0  0  0  0  0  0  0  0  0
   -9.1209  -17.3277   33.4682 C   0  0  0  0  0  0  0  0  0  0  0  0
  -10.3044  -19.0337   32.9421 C   0  0  0  0  0  0  0  0  0  0  0  0
  -10.7057  -20.2562   31.4427 C   0  0  0  0  0  0  0  0  0  0  0  0
  -11.6379  -21.0833   30.8746 C   0  0  0  0  0  0  0  0  0  0  0  0
  -12.4879  -20.5572   31.7352 N   0  0  0  0  0  0  0  0  0  0  0  0
  -11.8966  -19.2568   32.9422 N   0  0  0  0  0  0  0  0  0  0  0  0
   -8.4778  -15.6244   32.2611 C   0  0  0  0  0  0  0  0  0  0  0  0
   -5.4284   -7.9315   28.4316 C   0  0  0  0  0  0  0  0  0  0  0  0
   -4.8760   -7.4583   26.8919 C   0  0  0  0  0  0  0  0  0  0  0  0
   -5.8954   -6.7913   25.8475 C   0  0  0  0  0  0  0  0  0  0  0  0
   -6.8498   -5.6668   26.2792 N   0  0  0  0  0  0  0  0  0  0  0  0
   -6.6342   -5.1217   27.6184 C   0  0  0  0  0  0  0  0  0  0  0  0
   -5.8947   -6.0801   28.6864 C   0  0  0  0  0  0  0  0  0  0  0  0
   -7.9365   -9.1247   26.5805 H   0  0  0  0  0  0  0  0  0  0  0  0
   -6.1717   -8.8024   26.3363 H   0  0  0  0  0  0  0  0  0  0  0  0
   -6.7439  -10.1986   26.0695 H   0  0  0  0  0  0  0  0  0  0  0  0
   -7.5074   -9.5567   29.2097 H   0  0  0  0  0  0  0  0  0  0  0  0
   -5.6168  -11.3367   29.9533 H   0  0  0  0  0  0  0  0  0  0  0  0
   -4.7169  -11.9705   28.8679 H   0  0  0  0  0  0  0  0  0  0  0  0
   -4.9730  -15.2448   31.7145 H   0  0  0  0  0  0  0  0  0  0  0  0
   -5.8143  -15.7493   30.6479 H   0  0  0  0  0  0  0  0  0  0  0  0
   -7.1872  -16.7796   32.8076 H   0  0  0  0  0  0  0  0  0  0  0  0
   -5.7860  -17.4660   32.7331 H   0  0  0  0  0  0  0  0  0  0  0  0
   -9.0992  -17.2613   34.5616 H   0  0  0  0  0  0  0  0  0  0  0  0
  -10.4742  -20.3244   30.3619 H   0  0  0  0  0  0  0  0  0  0  0  0
  -11.8225  -21.6863   29.9865 H   0  0  0  0  0  0  0  0  0  0  0  0
  -13.3544  -21.0708   31.8465 H   0  0  0  0  0  0  0  0  0  0  0  0
   -8.6476  -14.6540   32.8116 H   0  0  0  0  0  0  0  0  0  0  0  0
   -9.5336  -15.2256   32.5897 H   0  0  0  0  0  0  0  0  0  0  0  0
   -4.5535   -7.8086   29.0267 H   0  0  0  0  0  0  0  0  0  0  0  0
   -4.2818   -8.0768   26.2695 H   0  0  0  0  0  0  0  0  0  0  0  0
   -3.9525   -6.9847   27.1584 H   0  0  0  0  0  0  0  0  0  0  0  0
   -6.5837   -7.4698   25.3256 H   0  0  0  0  0  0  0  0  0  0  0  0
   -5.2814   -6.6220   24.9543 H   0  0  0  0  0  0  0  0  0  0  0  0
   -7.7915   -6.0316   26.1973 H   0  0  0  0  0  0  0  0  0  0  0  0
   -7.6223   -4.7814   27.9121 H   0  0  0  0  0  0  0  0  0  0  0  0
   -6.1589   -4.1338   27.6586 H   0  0  0  0  0  0  0  0  0  0  0  0
   -6.4699   -6.4044   29.4876 H   0  0  0  0  0  0  0  0  0  0  0  0
   -5.3958   -5.3170   29.2628 H   0  0  0  0  0  0  0  0  0  0  0  0
  1  2  1  0
  2  3  1  0
  3  4  1  0
  4  5  2  0
  4  6  1  0
  6  7  1  0
  7  8  1  0
  8  9  1  0
  9 10  1  0
 10 11  1  0
 11 12  1  0
 12 13  2  0
 13 14  1  0
 14 15  1  0
 10 16  1  0
  2 17  1  0
 17 18  1  0
 18 19  1  0
 19 20  1  0
 20 21  1  0
 21 22  1  0
 16  6  1  0
 22 17  1  0
 15 11  2  0
  1 23  1  0
  1 24  1  0
  1 25  1  0
  2 26  1  0
  3 27  1  0
  3 28  1  0
  7 29  1  0
  7 30  1  0
  8 31  1  0
  8 32  1  0
 10 33  1  0
 12 34  1  0
 13 35  1  0
 14 36  1  0
 16 37  1  0
 16 38  1  0
 17 39  1  0
 18 40  1  0
 18 41  1  0
 19 42  1  0
 19 43  1  0
 20 44  1  0
 21 45  1  0
 21 46  1  0
 22 47  1  0
 22 48  1  0
M  END
>  <Energy>  (705) 
1828.0807431299806

>  <compound_id>  (705) 
35625

>  <target_id>  (705) 
1

>  <reference_id>  (705) 
44

>  <inspiration_ids>  (705) 
[44, 96]

>  <energy_score>  (705) 
1679.0419569135574

>  <distance_score>  (705) 
8.651016286443596

>  <path>  (705) 
/opt/xchem-fragalysis-2/maxwin/BulkDock/SCRATCH/511013/C35625-P44/C35625-P44.minimised.mol

>  <scratch_subdir>  (705) 
/opt/xchem-fragalysis-2/maxwin/BulkDock/SCRATCH/511013/C35625-P44

>  <fragmenstein_runtime>  (705) 
27.360340356826782

>  <fragmenstein_outcome>  (705) 
too moved

>  <fragmenstein_mode>  (705) 
expansion

>  <fragmenstein_error>  (705) 


$$$$
C35625-P96
     RDKit          3D

 48 50  0  0  0  0  0  0  0  0999 V2000
   -0.2535   -9.2201   24.4842 C   0  0  0  0  0  0  0  0  0  0  0  0
   -0.7086   -9.1933   25.9537 C   0  0  0  0  0  0  0  0  0  0  0  0
   -0.3200  -10.6060   26.6282 C   0  0  0  0  0  0  0  0  0  0  0  0
   -1.2735  -11.8034   26.1264 C   0  0  0  0  0  0  0  0  0  0  0  0
   -2.2622  -11.4364   25.5385 O   0  0  0  0  0  0  0  0  0  0  0  0
   -0.8562  -13.1490   26.5341 N   0  0  0  0  0  0  0  0  0  0  0  0
   -1.3617  -13.4521   27.9176 C   0  0  0  0  0  0  0  0  0  0  0  0
   -0.6724  -14.5760   28.7070 C   0  0  0  0  0  0  0  0  0  0  0  0
   -1.2584  -15.8099   28.3703 O   0  0  0  0  0  0  0  0  0  0  0  0
   -1.2729  -15.9695   26.9501 C   0  0  0  0  0  0  0  0  0  0  0  0
   -2.3296  -17.0446   26.5738 C   0  0  0  0  0  0  0  0  0  0  0  0
   -3.0981  -17.1884   25.3843 C   0  0  0  0  0  0  0  0  0  0  0  0
   -3.9236  -18.2700   25.5928 C   0  0  0  0  0  0  0  0  0  0  0  0
   -3.6259  -18.7201   26.8404 N   0  0  0  0  0  0  0  0  0  0  0  0
   -2.6237  -18.0477   27.4236 N   0  0  0  0  0  0  0  0  0  0  0  0
   -1.5068  -14.5679   26.2332 C   0  0  0  0  0  0  0  0  0  0  0  0
   -0.3969   -7.7839   26.6002 C   0  0  0  0  0  0  0  0  0  0  0  0
    0.9724   -7.1411   26.3187 C   0  0  0  0  0  0  0  0  0  0  0  0
    1.0040   -5.6856   26.8215 C   0  0  0  0  0  0  0  0  0  0  0  0
    0.6780   -5.5708   28.2439 N   0  0  0  0  0  0  0  0  0  0  0  0
   -0.6098   -6.1856   28.5525 C   0  0  0  0  0  0  0  0  0  0  0  0
   -0.6854   -7.6553   28.1020 C   0  0  0  0  0  0  0  0  0  0  0  0
    0.8367   -9.2881   24.4102 H   0  0  0  0  0  0  0  0  0  0  0  0
   -0.6726  -10.0780   23.9495 H   0  0  0  0  0  0  0  0  0  0  0  0
   -0.5828   -8.3193   23.9552 H   0  0  0  0  0  0  0  0  0  0  0  0
   -1.8041   -9.2047   25.9292 H   0  0  0  0  0  0  0  0  0  0  0  0
   -0.4485  -10.5227   27.7113 H   0  0  0  0  0  0  0  0  0  0  0  0
    0.7202  -10.8634   26.4063 H   0  0  0  0  0  0  0  0  0  0  0  0
   -2.4579  -13.4876   27.9826 H   0  0  0  0  0  0  0  0  0  0  0  0
   -1.0801  -12.5505   28.4739 H   0  0  0  0  0  0  0  0  0  0  0  0
   -0.8226  -14.4237   29.7807 H   0  0  0  0  0  0  0  0  0  0  0  0
    0.4064  -14.6028   28.5146 H   0  0  0  0  0  0  0  0  0  0  0  0
   -0.2870  -16.3492   26.6527 H   0  0  0  0  0  0  0  0  0  0  0  0
   -3.0739  -16.5663   24.5006 H   0  0  0  0  0  0  0  0  0  0  0  0
   -4.6884  -18.7338   24.9875 H   0  0  0  0  0  0  0  0  0  0  0  0
   -4.0506  -19.4818   27.3559 H   0  0  0  0  0  0  0  0  0  0  0  0
   -2.5816  -14.4152   26.0997 H   0  0  0  0  0  0  0  0  0  0  0  0
   -1.1824  -14.7239   25.1924 H   0  0  0  0  0  0  0  0  0  0  0  0
   -1.1127   -7.1130   26.1014 H   0  0  0  0  0  0  0  0  0  0  0  0
    1.1885   -7.1292   25.2456 H   0  0  0  0  0  0  0  0  0  0  0  0
    1.7646   -7.7258   26.8025 H   0  0  0  0  0  0  0  0  0  0  0  0
    0.3095   -5.0712   26.2355 H   0  0  0  0  0  0  0  0  0  0  0  0
    2.0040   -5.2701   26.6555 H   0  0  0  0  0  0  0  0  0  0  0  0
    1.4080   -6.0375   28.7840 H   0  0  0  0  0  0  0  0  0  0  0  0
   -0.7788   -6.1318   29.6337 H   0  0  0  0  0  0  0  0  0  0  0  0
   -1.4141   -5.6065   28.0829 H   0  0  0  0  0  0  0  0  0  0  0  0
   -1.6765   -8.0563   28.3340 H   0  0  0  0  0  0  0  0  0  0  0  0
    0.0377   -8.2524   28.6719 H   0  0  0  0  0  0  0  0  0  0  0  0
  1  2  1  0
  2  3  1  0
  3  4  1  0
  4  5  2  0
  4  6  1  0
  6  7  1  0
  7  8  1  0
  8  9  1  0
  9 10  1  0
 10 11  1  0
 11 12  1  0
 12 13  2  0
 13 14  1  0
 14 15  1  0
 10 16  1  0
  2 17  1  0
 17 18  1  0
 18 19  1  0
 19 20  1  0
 20 21  1  0
 21 22  1  0
 16  6  1  0
 22 17  1  0
 15 11  2  0
  1 23  1  0
  1 24  1  0
  1 25  1  0
  2 26  1  0
  3 27  1  0
  3 28  1  0
  7 29  1  0
  7 30  1  0
  8 31  1  0
  8 32  1  0
 10 33  1  0
 12 34  1  0
 13 35  1  0
 14 36  1  0
 16 37  1  0
 16 38  1  0
 17 39  1  0
 18 40  1  0
 18 41  1  0
 19 42  1  0
 19 43  1  0
 20 44  1  0
 21 45  1  0
 21 46  1  0
 22 47  1  0
 22 48  1  0
M  END
>  <Energy>  (706) 
174.4062560505601

>  <compound_id>  (706) 
35625

>  <target_id>  (706) 
1

>  <reference_id>  (706) 
96

>  <inspiration_ids>  (706) 
[44, 96]

>  <energy_score>  (706) 
25.367469834120868

>  <distance_score>  (706) 
11.08335345892433

>  <path>  (706) 
/opt/xchem-fragalysis-2/maxwin/BulkDock/SCRATCH/511013/C35625-P96/C35625-P96.minimised.mol

>  <scratch_subdir>  (706) 
/opt/xchem-fragalysis-2/maxwin/BulkDock/SCRATCH/511013/C35625-P96

>  <fragmenstein_runtime>  (706) 
20.1851749420166

>  <fragmenstein_outcome>  (706) 
too moved

>  <fragmenstein_mode>  (706) 
expansion

>  <fragmenstein_error>  (706) 


$$$$
C35627-P44
     RDKit          3D

 39 40  0  0  0  0  0  0  0  0999 V2000
   -7.8094  -16.0739   28.2175 C   0  0  0  0  0  0  0  0  0  0  0  0
   -7.7364  -15.9572   26.7037 C   0  0  0  0  0  0  0  0  0  0  0  0
   -8.9679  -16.3942   26.2421 F   0  0  0  0  0  0  0  0  0  0  0  0
   -6.8693  -16.8909   26.2089 F   0  0  0  0  0  0  0  0  0  0  0  0
   -7.4542  -14.5641   25.9485 C   0  0  0  0  0  0  0  0  0  0  0  0
   -7.0327  -13.0797   26.8352 C   0  0  0  0  0  0  0  0  0  0  0  0
   -7.1043  -13.2963   28.0130 O   0  0  0  0  0  0  0  0  0  0  0  0
   -6.7088  -11.4094   26.1190 N   0  0  0  0  0  0  0  0  0  0  0  0
   -6.5704   -9.5970   27.0180 C   0  0  0  0  0  0  0  0  0  0  0  0
   -6.9249   -9.2848   28.6191 C   0  0  0  0  0  0  0  0  0  0  0  0
   -5.8812   -8.1535   29.0718 C   0  0  0  0  0  0  0  0  0  0  0  0
   -4.5626   -8.0662   28.6152 C   0  0  0  0  0  0  0  0  0  0  0  0
   -4.3910   -7.3136   27.7029 N   0  0  0  0  0  0  0  0  0  0  0  0
   -2.7896   -7.1953   27.3360 C   0  0  0  0  0  0  0  0  0  0  0  0
   -2.1233   -7.8261   26.5463 O   0  0  0  0  0  0  0  0  0  0  0  0
   -1.8683   -6.0646   28.4090 C   0  0  0  0  0  0  0  0  0  0  0  0
   -1.1713   -6.7825   29.6527 C   0  0  0  0  0  0  0  0  0  0  0  0
   -0.3670   -5.8552   30.2768 C   0  0  0  0  0  0  0  0  0  0  0  0
   -0.4683   -4.7151   29.5369 N   0  0  0  0  0  0  0  0  0  0  0  0
   -1.2862   -4.7816   28.4681 N   0  0  0  0  0  0  0  0  0  0  0  0
   -5.6137   -8.3646   27.0585 C   0  0  0  0  0  0  0  0  0  0  0  0
   -6.8565  -15.8659   28.7065 H   0  0  0  0  0  0  0  0  0  0  0  0
   -8.5769  -15.4059   28.6191 H   0  0  0  0  0  0  0  0  0  0  0  0
   -8.0973  -17.0932   28.4896 H   0  0  0  0  0  0  0  0  0  0  0  0
   -8.5459  -14.4248   25.9255 H   0  0  0  0  0  0  0  0  0  0  0  0
   -7.2462  -14.8329   24.9173 H   0  0  0  0  0  0  0  0  0  0  0  0
   -6.7758  -11.4586   25.1152 H   0  0  0  0  0  0  0  0  0  0  0  0
   -7.5164   -9.2836   26.5645 H   0  0  0  0  0  0  0  0  0  0  0  0
   -6.7910  -10.0646   29.3710 H   0  0  0  0  0  0  0  0  0  0  0  0
   -8.0104   -9.2032   28.7004 H   0  0  0  0  0  0  0  0  0  0  0  0
   -5.6567   -8.5503   30.0729 H   0  0  0  0  0  0  0  0  0  0  0  0
   -6.1774   -7.0603   29.1749 H   0  0  0  0  0  0  0  0  0  0  0  0
   -3.6644   -7.5097   28.9900 H   0  0  0  0  0  0  0  0  0  0  0  0
   -4.1973   -7.8810   29.6297 H   0  0  0  0  0  0  0  0  0  0  0  0
   -1.2396   -7.8277   29.8859 H   0  0  0  0  0  0  0  0  0  0  0  0
    0.3000   -5.9203   31.1240 H   0  0  0  0  0  0  0  0  0  0  0  0
    0.0232   -3.8390   29.6750 H   0  0  0  0  0  0  0  0  0  0  0  0
   -6.4843   -7.8409   26.2332 H   0  0  0  0  0  0  0  0  0  0  0  0
   -4.7131   -8.5376   26.6609 H   0  0  0  0  0  0  0  0  0  0  0  0
  1  2  1  0
  2  3  1  0
  2  4  1  0
  2  5  1  0
  5  6  1  0
  6  7  2  0
  6  8  1  0
  8  9  1  0
  9 10  1  0
 10 11  1  0
 11 12  1  0
 12 13  1  0
 13 14  1  0
 14 15  2  0
 14 16  1  0
 16 17  1  0
 17 18  2  0
 18 19  1  0
 19 20  1  0
 13 21  1  0
 21  9  1  0
 20 16  2  0
  1 22  1  0
  1 23  1  0
  1 24  1  0
  5 25  1  0
  5 26  1  0
  8 27  1  0
  9 28  1  0
 10 29  1  0
 10 30  1  0
 11 31  1  0
 11 32  1  0
 12 33  1  0
 12 34  1  0
 17 35  1  0
 18 36  1  0
 19 37  1  0
 21 38  1  0
 21 39  1  0
M  END
>  <Energy>  (707) 
743.81147884641791

>  <compound_id>  (707) 
35627

>  <target_id>  (707) 
1

>  <reference_id>  (707) 
44

>  <inspiration_ids>  (707) 
[44, 96]

>  <energy_score>  (707) 
661.6900732827037

>  <distance_score>  (707) 
11.113705354397302

>  <path>  (707) 
/opt/xchem-fragalysis-2/maxwin/BulkDock/SCRATCH/511013/C35627-P44/C35627-P44.minimised.mol

>  <scratch_subdir>  (707) 
/opt/xchem-fragalysis-2/maxwin/BulkDock/SCRATCH/511013/C35627-P44

>  <fragmenstein_runtime>  (707) 
19.85843253135681

>  <fragmenstein_outcome>  (707) 
too moved

>  <fragmenstein_mode>  (707) 
expansion

>  <fragmenstein_error>  (707) 


$$$$
C35627-P96
     RDKit          3D

 39 40  0  0  0  0  0  0  0  0999 V2000
   -7.2837  -13.8044   32.2381 C   0  0  0  0  0  0  0  0  0  0  0  0
   -7.8233  -12.6385   30.9909 C   0  0  0  0  0  0  0  0  0  0  0  0
   -7.9551  -11.4936   31.7655 F   0  0  0  0  0  0  0  0  0  0  0  0
   -9.0977  -12.9185   30.7282 F   0  0  0  0  0  0  0  0  0  0  0  0
   -6.7551  -11.6750   29.6894 C   0  0  0  0  0  0  0  0  0  0  0  0
   -5.6166  -10.1235   29.2351 C   0  0  0  0  0  0  0  0  0  0  0  0
   -4.8111  -10.4221   28.3629 O   0  0  0  0  0  0  0  0  0  0  0  0
   -5.7555   -8.6741   30.1060 N   0  0  0  0  0  0  0  0  0  0  0  0
   -4.6887   -7.1728   30.1166 C   0  0  0  0  0  0  0  0  0  0  0  0
   -5.1306   -5.8226   30.7461 C   0  0  0  0  0  0  0  0  0  0  0  0
   -3.9655   -4.9319   31.1799 C   0  0  0  0  0  0  0  0  0  0  0  0
   -2.6455   -5.6380   31.1238 C   0  0  0  0  0  0  0  0  0  0  0  0
   -2.1118   -6.0508   29.7720 N   0  0  0  0  0  0  0  0  0  0  0  0
   -2.2753   -5.0035   28.8329 C   0  0  0  0  0  0  0  0  0  0  0  0
   -3.1754   -4.7709   28.0903 O   0  0  0  0  0  0  0  0  0  0  0  0
   -1.2339   -3.9190   28.7860 C   0  0  0  0  0  0  0  0  0  0  0  0
   -0.7571   -3.0779   29.8378 C   0  0  0  0  0  0  0  0  0  0  0  0
   -0.0151   -2.0897   29.2347 C   0  0  0  0  0  0  0  0  0  0  0  0
   -0.0999   -2.3363   27.9027 N   0  0  0  0  0  0  0  0  0  0  0  0
   -0.8771   -3.3766   27.5972 N   0  0  0  0  0  0  0  0  0  0  0  0
   -2.9701   -7.2661   30.0531 C   0  0  0  0  0  0  0  0  0  0  0  0
   -6.3628  -14.3420   31.9673 H   0  0  0  0  0  0  0  0  0  0  0  0
   -7.0321  -13.3092   33.1810 H   0  0  0  0  0  0  0  0  0  0  0  0
   -8.0961  -14.5080   32.4431 H   0  0  0  0  0  0  0  0  0  0  0  0
   -7.1980  -10.8066   30.1896 H   0  0  0  0  0  0  0  0  0  0  0  0
   -6.8876  -12.1252   28.7085 H   0  0  0  0  0  0  0  0  0  0  0  0
   -6.4564   -8.7700   30.8010 H   0  0  0  0  0  0  0  0  0  0  0  0
   -4.6889   -7.2779   31.1661 H   0  0  0  0  0  0  0  0  0  0  0  0
   -5.9522   -5.3632   30.2443 H   0  0  0  0  0  0  0  0  0  0  0  0
   -5.6172   -6.0123   31.7115 H   0  0  0  0  0  0  0  0  0  0  0  0
   -3.8129   -4.0335   30.6020 H   0  0  0  0  0  0  0  0  0  0  0  0
   -4.1453   -4.5827   32.2054 H   0  0  0  0  0  0  0  0  0  0  0  0
   -1.9160   -4.8872   31.4498 H   0  0  0  0  0  0  0  0  0  0  0  0
   -2.5099   -6.3448   31.9632 H   0  0  0  0  0  0  0  0  0  0  0  0
   -0.9265   -3.1683   30.8975 H   0  0  0  0  0  0  0  0  0  0  0  0
    0.5443   -1.2552   29.6291 H   0  0  0  0  0  0  0  0  0  0  0  0
    0.3079   -1.8099   27.1378 H   0  0  0  0  0  0  0  0  0  0  0  0
   -2.7719   -7.8800   29.1703 H   0  0  0  0  0  0  0  0  0  0  0  0
   -2.5072   -7.8094   30.8834 H   0  0  0  0  0  0  0  0  0  0  0  0
  1  2  1  0
  2  3  1  0
  2  4  1  0
  2  5  1  0
  5  6  1  0
  6  7  2  0
  6  8  1  0
  8  9  1  0
  9 10  1  0
 10 11  1  0
 11 12  1  0
 12 13  1  0
 13 14  1  0
 14 15  2  0
 14 16  1  0
 16 17  1  0
 17 18  2  0
 18 19  1  0
 19 20  1  0
 13 21  1  0
 21  9  1  0
 20 16  2  0
  1 22  1  0
  1 23  1  0
  1 24  1  0
  5 25  1  0
  5 26  1  0
  8 27  1  0
  9 28  1  0
 10 29  1  0
 10 30  1  0
 11 31  1  0
 11 32  1  0
 12 33  1  0
 12 34  1  0
 17 35  1  0
 18 36  1  0
 19 37  1  0
 21 38  1  0
 21 39  1  0
M  END
>  <Energy>  (708) 
442.7768571289493

>  <compound_id>  (708) 
35627

>  <target_id>  (708) 
1

>  <reference_id>  (708) 
96

>  <inspiration_ids>  (708) 
[44, 96]

>  <energy_score>  (708) 
360.6554515652334

>  <distance_score>  (708) 
10.537872735064017

>  <path>  (708) 
/opt/xchem-fragalysis-2/maxwin/BulkDock/SCRATCH/511013/C35627-P96/C35627-P96.minimised.mol

>  <scratch_subdir>  (708) 
/opt/xchem-fragalysis-2/maxwin/BulkDock/SCRATCH/511013/C35627-P96

>  <fragmenstein_runtime>  (708) 
16.942047834396362

>  <fragmenstein_outcome>  (708) 
too moved

>  <fragmenstein_mode>  (708) 
expansion

>  <fragmenstein_error>  (708) 


$$$$
C35628-P44
     RDKit          3D

 39 41  0  0  0  0  0  0  0  0999 V2000
   -8.0346  -14.5321   31.7175 O   0  0  0  0  0  0  0  0  0  0  0  0
   -6.8210  -14.3073   31.4589 C   0  0  0  0  0  0  0  0  0  0  0  0
   -6.5977  -12.2796   31.5671 C   0  0  0  0  0  0  0  0  0  0  0  0
   -6.3546  -10.8300   30.5222 C   0  0  0  0  0  0  0  0  0  0  0  0
   -6.9872   -9.4699   29.4226 C   0  0  0  0  0  0  0  0  0  0  0  0
   -8.2681   -9.0106   28.7975 C   0  0  0  0  0  0  0  0  0  0  0  0
   -8.3115   -7.9788   27.7990 C   0  0  0  0  0  0  0  0  0  0  0  0
   -7.1302   -7.3273   27.7172 C   0  0  0  0  0  0  0  0  0  0  0  0
   -6.1685   -7.7454   29.0389 S   0  0  0  0  0  0  0  0  0  0  0  0
   -6.0092  -16.1522   31.7979 C   0  0  0  0  0  0  0  0  0  0  0  0
   -4.7538  -16.0580   31.7998 O   0  0  0  0  0  0  0  0  0  0  0  0
   -7.2167  -17.7938   31.9919 N   0  0  0  0  0  0  0  0  0  0  0  0
   -7.6671  -18.2107   33.2759 C   0  0  0  0  0  0  0  0  0  0  0  0
   -8.3338  -19.3456   34.2656 C   0  0  0  0  0  0  0  0  0  0  0  0
   -7.3498  -20.5003   34.4884 C   0  0  0  0  0  0  0  0  0  0  0  0
   -6.2843  -20.5360   33.3797 C   0  0  0  0  0  0  0  0  0  0  0  0
   -6.8049  -19.8048   32.1055 C   0  0  0  0  0  0  0  0  0  0  0  0
   -7.6422  -21.4219   31.3145 C   0  0  0  0  0  0  0  0  0  0  0  0
   -7.7623  -22.4867   29.2450 C   0  0  0  0  0  0  0  0  0  0  0  0
   -7.2957  -22.1419   27.8103 C   0  0  0  0  0  0  0  0  0  0  0  0
   -6.3033  -22.4521   28.5963 N   0  0  0  0  0  0  0  0  0  0  0  0
   -7.4160  -22.8515   29.8001 N   0  0  0  0  0  0  0  0  0  0  0  0
   -7.3179  -12.0969   32.3888 H   0  0  0  0  0  0  0  0  0  0  0  0
   -7.5013  -10.5936   30.5870 H   0  0  0  0  0  0  0  0  0  0  0  0
   -9.2157   -9.4500   29.0842 H   0  0  0  0  0  0  0  0  0  0  0  0
   -9.1928   -7.7313   27.2206 H   0  0  0  0  0  0  0  0  0  0  0  0
   -6.8859   -6.5001   27.0651 H   0  0  0  0  0  0  0  0  0  0  0  0
   -8.2702  -17.4014   33.6281 H   0  0  0  0  0  0  0  0  0  0  0  0
   -6.6826  -18.5136   33.3872 H   0  0  0  0  0  0  0  0  0  0  0  0
   -8.5327  -18.9241   35.2649 H   0  0  0  0  0  0  0  0  0  0  0  0
   -9.3501  -19.6249   34.0019 H   0  0  0  0  0  0  0  0  0  0  0  0
   -6.8826  -20.4289   35.4756 H   0  0  0  0  0  0  0  0  0  0  0  0
   -7.8911  -21.4465   34.5258 H   0  0  0  0  0  0  0  0  0  0  0  0
   -6.0497  -21.5984   33.3046 H   0  0  0  0  0  0  0  0  0  0  0  0
   -5.2862  -20.1854   33.6028 H   0  0  0  0  0  0  0  0  0  0  0  0
   -7.0169  -19.7041   31.0561 H   0  0  0  0  0  0  0  0  0  0  0  0
   -8.8903  -22.6484   28.6562 H   0  0  0  0  0  0  0  0  0  0  0  0
   -7.5281  -22.5835   26.8653 H   0  0  0  0  0  0  0  0  0  0  0  0
   -5.2849  -22.5891   28.6776 H   0  0  0  0  0  0  0  0  0  0  0  0
  1  2  2  0
  2  3  1  0
  3  4  2  3
  4  5  1  0
  5  6  2  0
  6  7  1  0
  7  8  2  0
  8  9  1  0
  2 10  1  0
 10 11  2  0
 10 12  1  0
 12 13  1  0
 13 14  1  0
 14 15  1  0
 15 16  1  0
 16 17  1  0
 17 18  1  0
 18 19  1  0
 19 20  2  0
 20 21  1  0
 21 22  1  0
  9  5  1  0
 17 12  1  0
 22 18  2  0
  3 23  1  0
  4 24  1  0
  6 25  1  0
  7 26  1  0
  8 27  1  0
 13 28  1  0
 13 29  1  0
 14 30  1  0
 14 31  1  0
 15 32  1  0
 15 33  1  0
 16 34  1  0
 16 35  1  0
 17 36  1  0
 19 37  1  0
 20 38  1  0
 21 39  1  0
M  END
>  <Energy>  (709) 
2133.2647737889192

>  <compound_id>  (709) 
35628

>  <target_id>  (709) 
1

>  <reference_id>  (709) 
44

>  <inspiration_ids>  (709) 
[44, 96]

>  <energy_score>  (709) 
1999.1572972038916

>  <distance_score>  (709) 
9.734425532046362

>  <path>  (709) 
/opt/xchem-fragalysis-2/maxwin/BulkDock/SCRATCH/511013/C35628-P44/C35628-P44.minimised.mol

>  <scratch_subdir>  (709) 
/opt/xchem-fragalysis-2/maxwin/BulkDock/SCRATCH/511013/C35628-P44

>  <fragmenstein_runtime>  (709) 
19.958397150039673

>  <fragmenstein_outcome>  (709) 
too moved

>  <fragmenstein_mode>  (709) 
expansion

>  <fragmenstein_error>  (709) 


$$$$
C35628-P96
     RDKit          3D

 39 41  0  0  0  0  0  0  0  0999 V2000
    0.8984  -11.9236   29.5400 O   0  0  0  0  0  0  0  0  0  0  0  0
    0.3706  -11.5471   30.5807 C   0  0  0  0  0  0  0  0  0  0  0  0
   -0.0436  -10.0570   30.7632 C   0  0  0  0  0  0  0  0  0  0  0  0
    0.0295   -9.1458   29.7587 C   0  0  0  0  0  0  0  0  0  0  0  0
   -0.6212   -7.8505   29.7552 C   0  0  0  0  0  0  0  0  0  0  0  0
   -1.1850   -7.0738   30.7622 C   0  0  0  0  0  0  0  0  0  0  0  0
   -1.8598   -5.8982   30.2862 C   0  0  0  0  0  0  0  0  0  0  0  0
   -1.7766   -5.7768   28.9200 C   0  0  0  0  0  0  0  0  0  0  0  0
   -0.9028   -7.0698   28.2208 S   0  0  0  0  0  0  0  0  0  0  0  0
    0.0831  -12.5860   31.7692 C   0  0  0  0  0  0  0  0  0  0  0  0
   -0.0858  -12.0823   32.8515 O   0  0  0  0  0  0  0  0  0  0  0  0
    0.0399  -13.9997   31.3557 N   0  0  0  0  0  0  0  0  0  0  0  0
    1.4174  -14.6132   31.4623 C   0  0  0  0  0  0  0  0  0  0  0  0
    2.1636  -14.7169   32.8039 C   0  0  0  0  0  0  0  0  0  0  0  0
    1.5152  -15.7185   33.7247 C   0  0  0  0  0  0  0  0  0  0  0  0
    0.0526  -15.4016   33.6620 C   0  0  0  0  0  0  0  0  0  0  0  0
   -0.3641  -15.3193   32.1813 C   0  0  0  0  0  0  0  0  0  0  0  0
   -0.5382  -16.7775   31.5808 C   0  0  0  0  0  0  0  0  0  0  0  0
   -1.5069  -17.7588   31.9956 C   0  0  0  0  0  0  0  0  0  0  0  0
   -1.2337  -18.9161   31.3105 C   0  0  0  0  0  0  0  0  0  0  0  0
   -0.1272  -18.6297   30.5783 N   0  0  0  0  0  0  0  0  0  0  0  0
    0.3305  -17.3714   30.7444 N   0  0  0  0  0  0  0  0  0  0  0  0
   -0.5179   -9.8449   31.7150 H   0  0  0  0  0  0  0  0  0  0  0  0
    0.4868   -9.4657   28.8215 H   0  0  0  0  0  0  0  0  0  0  0  0
   -1.1381   -7.3482   31.8088 H   0  0  0  0  0  0  0  0  0  0  0  0
   -2.3579   -5.1786   30.9239 H   0  0  0  0  0  0  0  0  0  0  0  0
   -2.1714   -4.9893   28.2948 H   0  0  0  0  0  0  0  0  0  0  0  0
    2.0343  -13.8874   30.9072 H   0  0  0  0  0  0  0  0  0  0  0  0
    1.5506  -15.4855   30.8206 H   0  0  0  0  0  0  0  0  0  0  0  0
    3.2051  -15.0077   32.6232 H   0  0  0  0  0  0  0  0  0  0  0  0
    2.1947  -13.7323   33.2868 H   0  0  0  0  0  0  0  0  0  0  0  0
    1.7175  -16.7409   33.3869 H   0  0  0  0  0  0  0  0  0  0  0  0
    1.9027  -15.6270   34.7445 H   0  0  0  0  0  0  0  0  0  0  0  0
   -0.1196  -14.4395   34.1552 H   0  0  0  0  0  0  0  0  0  0  0  0
   -0.5014  -16.1703   34.2080 H   0  0  0  0  0  0  0  0  0  0  0  0
   -1.4208  -15.0372   32.2716 H   0  0  0  0  0  0  0  0  0  0  0  0
   -2.2903  -17.6418   32.7218 H   0  0  0  0  0  0  0  0  0  0  0  0
   -1.6960  -19.8919   31.3056 H   0  0  0  0  0  0  0  0  0  0  0  0
    0.3849  -19.2398   29.9500 H   0  0  0  0  0  0  0  0  0  0  0  0
  1  2  2  0
  2  3  1  0
  3  4  2  3
  4  5  1  0
  5  6  2  0
  6  7  1  0
  7  8  2  0
  8  9  1  0
  2 10  1  0
 10 11  2  0
 10 12  1  0
 12 13  1  0
 13 14  1  0
 14 15  1  0
 15 16  1  0
 16 17  1  0
 17 18  1  0
 18 19  1  0
 19 20  2  0
 20 21  1  0
 21 22  1  0
  9  5  1  0
 17 12  1  0
 22 18  2  0
  3 23  1  0
  4 24  1  0
  6 25  1  0
  7 26  1  0
  8 27  1  0
 13 28  1  0
 13 29  1  0
 14 30  1  0
 14 31  1  0
 15 32  1  0
 15 33  1  0
 16 34  1  0
 16 35  1  0
 17 36  1  0
 19 37  1  0
 20 38  1  0
 21 39  1  0
M  END
>  <Energy>  (710) 
162.02336188581751

>  <compound_id>  (710) 
35628

>  <target_id>  (710) 
1

>  <reference_id>  (710) 
96

>  <inspiration_ids>  (710) 
[44, 96]

>  <energy_score>  (710) 
27.91588530077871

>  <distance_score>  (710) 
11.772176975996963

>  <path>  (710) 
/opt/xchem-fragalysis-2/maxwin/BulkDock/SCRATCH/511013/C35628-P96/C35628-P96.minimised.mol

>  <scratch_subdir>  (710) 
/opt/xchem-fragalysis-2/maxwin/BulkDock/SCRATCH/511013/C35628-P96

>  <fragmenstein_runtime>  (710) 
15.024281024932861

>  <fragmenstein_outcome>  (710) 
too moved

>  <fragmenstein_mode>  (710) 
expansion

>  <fragmenstein_error>  (710) 


$$$$
C35630-P44
     RDKit          3D

 52 53  0  0  0  0  0  0  0  0999 V2000
   -0.4155    1.9494   26.5883 C   0  0  0  0  0  0  0  0  0  0  0  0
   -0.9022    0.5136   26.8214 C   0  0  0  0  0  0  0  0  0  0  0  0
   -2.3117    0.0741   26.2087 C   0  0  0  0  0  0  0  0  0  0  0  0
   -3.0804    1.3363   25.7810 C   0  0  0  0  0  0  0  0  0  0  0  0
   -2.6031   -1.6283   25.8166 C   0  0  0  0  0  0  0  0  0  0  0  0
   -1.9136   -2.2264   27.2107 N   0  0  0  0  0  0  0  0  0  0  0  0
   -1.9354   -1.7355   28.5720 C   0  0  0  0  0  0  0  0  0  0  0  0
   -1.1506   -2.6647   29.4793 C   0  0  0  0  0  0  0  0  0  0  0  0
   -2.3900   -0.7247   29.0363 O   0  0  0  0  0  0  0  0  0  0  0  0
   -2.8080   -2.8230   24.2013 C   0  0  0  0  0  0  0  0  0  0  0  0
   -3.9141   -2.8567   23.8796 O   0  0  0  0  0  0  0  0  0  0  0  0
   -1.7562   -3.7670   23.4579 N   0  0  0  0  0  0  0  0  0  0  0  0
   -1.1358   -3.0438   22.2485 C   0  0  0  0  0  0  0  0  0  0  0  0
   -1.9347   -2.7683   20.9366 C   0  0  0  0  0  0  0  0  0  0  0  0
   -2.3534   -4.0380   20.1997 C   0  0  0  0  0  0  0  0  0  0  0  0
   -2.9818   -4.8943   21.2625 C   0  0  0  0  0  0  0  0  0  0  0  0
   -3.3950   -6.2771   20.8933 N   0  0  0  0  0  0  0  0  0  0  0  0
   -2.6140   -7.4537   20.6120 C   0  0  0  0  0  0  0  0  0  0  0  0
   -1.4284   -7.6005   20.5251 O   0  0  0  0  0  0  0  0  0  0  0  0
   -3.4735   -8.7264   20.5118 C   0  0  0  0  0  0  0  0  0  0  0  0
   -3.0396  -10.0813   20.7625 C   0  0  0  0  0  0  0  0  0  0  0  0
   -4.1277  -10.8990   20.5710 C   0  0  0  0  0  0  0  0  0  0  0  0
   -5.1083  -10.0670   20.1350 N   0  0  0  0  0  0  0  0  0  0  0  0
   -4.7871   -8.7500   20.1888 N   0  0  0  0  0  0  0  0  0  0  0  0
   -1.9268   -4.8637   22.4074 C   0  0  0  0  0  0  0  0  0  0  0  0
    0.6226    2.0421   26.9261 H   0  0  0  0  0  0  0  0  0  0  0  0
   -0.4525    2.2635   25.5443 H   0  0  0  0  0  0  0  0  0  0  0  0
   -1.0016    2.6624   27.1779 H   0  0  0  0  0  0  0  0  0  0  0  0
   -0.1132   -0.1952   26.5956 H   0  0  0  0  0  0  0  0  0  0  0  0
   -0.9488    0.4757   27.9114 H   0  0  0  0  0  0  0  0  0  0  0  0
   -2.8586    0.0250   27.1449 H   0  0  0  0  0  0  0  0  0  0  0  0
   -3.0590    2.0821   26.5884 H   0  0  0  0  0  0  0  0  0  0  0  0
   -4.1469    1.1698   25.6473 H   0  0  0  0  0  0  0  0  0  0  0  0
   -2.6356    1.8374   24.9193 H   0  0  0  0  0  0  0  0  0  0  0  0
   -3.6102   -1.8475   26.1373 H   0  0  0  0  0  0  0  0  0  0  0  0
   -1.5233   -3.1507   27.2025 H   0  0  0  0  0  0  0  0  0  0  0  0
   -1.7459   -2.8692   30.3740 H   0  0  0  0  0  0  0  0  0  0  0  0
   -0.2199   -2.1671   29.7669 H   0  0  0  0  0  0  0  0  0  0  0  0
   -0.8987   -3.6201   29.0143 H   0  0  0  0  0  0  0  0  0  0  0  0
   -0.1307   -3.4454   22.0384 H   0  0  0  0  0  0  0  0  0  0  0  0
   -0.9526   -2.0426   22.5951 H   0  0  0  0  0  0  0  0  0  0  0  0
   -1.3041   -2.1957   20.2532 H   0  0  0  0  0  0  0  0  0  0  0  0
   -2.8176   -2.1604   21.1645 H   0  0  0  0  0  0  0  0  0  0  0  0
   -3.0534   -3.8152   19.3878 H   0  0  0  0  0  0  0  0  0  0  0  0
   -1.4815   -4.5317   19.7540 H   0  0  0  0  0  0  0  0  0  0  0  0
   -3.9086   -4.3856   21.5287 H   0  0  0  0  0  0  0  0  0  0  0  0
   -4.3846   -6.5075   20.8064 H   0  0  0  0  0  0  0  0  0  0  0  0
   -2.0432  -10.3876   21.0520 H   0  0  0  0  0  0  0  0  0  0  0  0
   -4.2581  -11.9694   20.6390 H   0  0  0  0  0  0  0  0  0  0  0  0
   -6.0390  -10.3148   19.8145 H   0  0  0  0  0  0  0  0  0  0  0  0
   -2.2686   -5.6681   23.0766 H   0  0  0  0  0  0  0  0  0  0  0  0
   -0.9526   -5.2863   22.0975 H   0  0  0  0  0  0  0  0  0  0  0  0
  1  2  1  0
  2  3  1  0
  3  4  1  0
  3  5  1  0
  5  6  1  0
  6  7  1  0
  7  8  1  0
  7  9  2  0
  5 10  1  0
 10 11  2  0
 10 12  1  0
 12 13  1  0
 13 14  1  0
 14 15  1  0
 15 16  1  0
 16 17  1  0
 17 18  1  0
 18 19  2  0
 18 20  1  0
 20 21  1  0
 21 22  2  0
 22 23  1  0
 23 24  1  0
 16 25  1  0
 25 12  1  0
 24 20  2  0
  1 26  1  0
  1 27  1  0
  1 28  1  0
  2 29  1  0
  2 30  1  0
  3 31  1  0
  4 32  1  0
  4 33  1  0
  4 34  1  0
  5 35  1  0
  6 36  1  0
  8 37  1  0
  8 38  1  0
  8 39  1  0
 13 40  1  0
 13 41  1  0
 14 42  1  0
 14 43  1  0
 15 44  1  0
 15 45  1  0
 16 46  1  0
 17 47  1  0
 21 48  1  0
 22 49  1  0
 23 50  1  0
 25 51  1  0
 25 52  1  0
M  END
>  <Energy>  (711) 
321.78977179079311

>  <compound_id>  (711) 
35630

>  <target_id>  (711) 
1

>  <reference_id>  (711) 
44

>  <inspiration_ids>  (711) 
[44, 96]

>  <energy_score>  (711) 
223.38205861636402

>  <distance_score>  (711) 
13.151624146378628

>  <path>  (711) 
/opt/xchem-fragalysis-2/maxwin/BulkDock/SCRATCH/511013/C35630-P44/C35630-P44.minimised.mol

>  <scratch_subdir>  (711) 
/opt/xchem-fragalysis-2/maxwin/BulkDock/SCRATCH/511013/C35630-P44

>  <fragmenstein_runtime>  (711) 
23.333164930343628

>  <fragmenstein_outcome>  (711) 
too moved

>  <fragmenstein_mode>  (711) 
expansion

>  <fragmenstein_error>  (711) 


$$$$
C35630-P96
     RDKit          3D

 52 53  0  0  0  0  0  0  0  0999 V2000
   -3.7061   -6.6369   36.4632 C   0  0  0  0  0  0  0  0  0  0  0  0
   -4.9008   -5.8831   35.8958 C   0  0  0  0  0  0  0  0  0  0  0  0
   -4.5273   -4.5981   35.1225 C   0  0  0  0  0  0  0  0  0  0  0  0
   -5.8097   -3.8634   34.7073 C   0  0  0  0  0  0  0  0  0  0  0  0
   -3.5330   -4.8379   33.9550 C   0  0  0  0  0  0  0  0  0  0  0  0
   -3.0434   -3.5492   33.4063 N   0  0  0  0  0  0  0  0  0  0  0  0
   -1.7875   -3.1997   32.7855 C   0  0  0  0  0  0  0  0  0  0  0  0
   -1.8055   -1.8072   32.1830 C   0  0  0  0  0  0  0  0  0  0  0  0
   -0.7901   -3.8410   32.6258 O   0  0  0  0  0  0  0  0  0  0  0  0
   -4.0517   -5.8339   32.8509 C   0  0  0  0  0  0  0  0  0  0  0  0
   -5.1974   -6.1748   32.7404 O   0  0  0  0  0  0  0  0  0  0  0  0
   -2.8842   -6.2421   32.1278 N   0  0  0  0  0  0  0  0  0  0  0  0
   -2.6643   -5.3168   30.9203 C   0  0  0  0  0  0  0  0  0  0  0  0
   -3.2017   -5.4864   29.5423 C   0  0  0  0  0  0  0  0  0  0  0  0
   -4.2475   -6.5704   29.6163 C   0  0  0  0  0  0  0  0  0  0  0  0
   -3.4517   -7.8533   29.5231 C   0  0  0  0  0  0  0  0  0  0  0  0
   -4.2198   -9.4096   28.8538 N   0  0  0  0  0  0  0  0  0  0  0  0
   -5.6839  -10.1731   29.2093 C   0  0  0  0  0  0  0  0  0  0  0  0
   -6.4866   -9.6977   29.9408 O   0  0  0  0  0  0  0  0  0  0  0  0
   -6.2514  -11.9043   28.6892 C   0  0  0  0  0  0  0  0  0  0  0  0
   -7.2123  -12.5296   27.5444 C   0  0  0  0  0  0  0  0  0  0  0  0
   -7.6394  -13.8010   27.8448 C   0  0  0  0  0  0  0  0  0  0  0  0
   -7.2180  -13.9357   29.1009 N   0  0  0  0  0  0  0  0  0  0  0  0
   -6.7146  -12.8268   29.6250 N   0  0  0  0  0  0  0  0  0  0  0  0
   -2.6925   -7.3355   31.0531 C   0  0  0  0  0  0  0  0  0  0  0  0
   -3.0613   -5.9726   37.0472 H   0  0  0  0  0  0  0  0  0  0  0  0
   -3.1082   -7.0983   35.6719 H   0  0  0  0  0  0  0  0  0  0  0  0
   -4.0500   -7.4407   37.1224 H   0  0  0  0  0  0  0  0  0  0  0  0
   -5.4853   -6.5617   35.2647 H   0  0  0  0  0  0  0  0  0  0  0  0
   -5.5534   -5.6092   36.7347 H   0  0  0  0  0  0  0  0  0  0  0  0
   -4.0199   -3.9369   35.8399 H   0  0  0  0  0  0  0  0  0  0  0  0
   -5.5906   -2.8907   34.2604 H   0  0  0  0  0  0  0  0  0  0  0  0
   -6.4085   -4.4390   33.9968 H   0  0  0  0  0  0  0  0  0  0  0  0
   -6.4394   -3.6729   35.5839 H   0  0  0  0  0  0  0  0  0  0  0  0
   -2.6491   -5.3290   34.3719 H   0  0  0  0  0  0  0  0  0  0  0  0
   -3.6832   -2.7957   33.2915 H   0  0  0  0  0  0  0  0  0  0  0  0
   -1.9480   -1.8937   31.1020 H   0  0  0  0  0  0  0  0  0  0  0  0
   -0.8412   -1.3268   32.3774 H   0  0  0  0  0  0  0  0  0  0  0  0
   -2.5797   -1.1630   32.5952 H   0  0  0  0  0  0  0  0  0  0  0  0
   -1.5929   -5.0838   30.8535 H   0  0  0  0  0  0  0  0  0  0  0  0
   -3.1196   -4.3702   31.2080 H   0  0  0  0  0  0  0  0  0  0  0  0
   -3.5017   -4.5277   29.1523 H   0  0  0  0  0  0  0  0  0  0  0  0
   -2.3724   -5.7317   28.8640 H   0  0  0  0  0  0  0  0  0  0  0  0
   -4.9453   -6.3718   28.8700 H   0  0  0  0  0  0  0  0  0  0  0  0
   -4.8855   -6.6182   30.4943 H   0  0  0  0  0  0  0  0  0  0  0  0
   -2.5962   -7.8529   28.8406 H   0  0  0  0  0  0  0  0  0  0  0  0
   -3.6612  -10.0357   28.2767 H   0  0  0  0  0  0  0  0  0  0  0  0
   -7.4616  -12.0629   26.6003 H   0  0  0  0  0  0  0  0  0  0  0  0
   -8.2285  -14.5313   27.3109 H   0  0  0  0  0  0  0  0  0  0  0  0
   -7.3772  -14.7121   29.7308 H   0  0  0  0  0  0  0  0  0  0  0  0
   -2.4401   -8.1706   31.7130 H   0  0  0  0  0  0  0  0  0  0  0  0
   -1.7591   -7.0030   30.6994 H   0  0  0  0  0  0  0  0  0  0  0  0
  1  2  1  0
  2  3  1  0
  3  4  1  0
  3  5  1  0
  5  6  1  0
  6  7  1  0
  7  8  1  0
  7  9  2  0
  5 10  1  0
 10 11  2  0
 10 12  1  0
 12 13  1  0
 13 14  1  0
 14 15  1  0
 15 16  1  0
 16 17  1  0
 17 18  1  0
 18 19  2  0
 18 20  1  0
 20 21  1  0
 21 22  2  0
 22 23  1  0
 23 24  1  0
 16 25  1  0
 25 12  1  0
 24 20  2  0
  1 26  1  0
  1 27  1  0
  1 28  1  0
  2 29  1  0
  2 30  1  0
  3 31  1  0
  4 32  1  0
  4 33  1  0
  4 34  1  0
  5 35  1  0
  6 36  1  0
  8 37  1  0
  8 38  1  0
  8 39  1  0
 13 40  1  0
 13 41  1  0
 14 42  1  0
 14 43  1  0
 15 44  1  0
 15 45  1  0
 16 46  1  0
 17 47  1  0
 21 48  1  0
 22 49  1  0
 23 50  1  0
 25 51  1  0
 25 52  1  0
M  END
>  <Energy>  (712) 
411.95054229089652

>  <compound_id>  (712) 
35630

>  <target_id>  (712) 
1

>  <reference_id>  (712) 
96

>  <inspiration_ids>  (712) 
[44, 96]

>  <energy_score>  (712) 
313.5428291164692

>  <distance_score>  (712) 
10.644379082682255

>  <path>  (712) 
/opt/xchem-fragalysis-2/maxwin/BulkDock/SCRATCH/511013/C35630-P96/C35630-P96.minimised.mol

>  <scratch_subdir>  (712) 
/opt/xchem-fragalysis-2/maxwin/BulkDock/SCRATCH/511013/C35630-P96

>  <fragmenstein_runtime>  (712) 
14.907464742660522

>  <fragmenstein_outcome>  (712) 
too moved

>  <fragmenstein_mode>  (712) 
expansion

>  <fragmenstein_error>  (712) 


$$$$
C35632-P44
     RDKit          3D

 47 48  0  0  0  0  0  0  0  0999 V2000
   -3.4781  -16.9581   27.6069 C   0  0  0  0  0  0  0  0  0  0  0  0
   -2.0662  -16.4486   27.8930 C   0  0  0  0  0  0  0  0  0  0  0  0
   -1.7094  -14.8787   28.0888 C   0  0  0  0  0  0  0  0  0  0  0  0
   -2.3801  -13.9909   29.1485 N   0  0  0  0  0  0  0  0  0  0  0  0
   -2.7258  -15.0171   30.2531 C   0  0  0  0  0  0  0  0  0  0  0  0
   -2.5798  -12.1233   29.2675 C   0  0  0  0  0  0  0  0  0  0  0  0
   -1.4218  -10.5145   29.7257 C   0  0  0  0  0  0  0  0  0  0  0  0
   -0.5683  -10.2779   28.9320 O   0  0  0  0  0  0  0  0  0  0  0  0
   -1.7588   -9.5791   31.0235 N   0  0  0  0  0  0  0  0  0  0  0  0
   -1.2120   -8.2493   31.4598 C   0  0  0  0  0  0  0  0  0  0  0  0
   -0.7217   -7.3619   30.3402 C   0  0  0  0  0  0  0  0  0  0  0  0
   -0.2077   -6.0585   30.9264 C   0  0  0  0  0  0  0  0  0  0  0  0
    0.1735   -6.2553   32.4039 C   0  0  0  0  0  0  0  0  0  0  0  0
    1.0896   -7.4143   32.7165 N   0  0  0  0  0  0  0  0  0  0  0  0
    2.2014   -7.4173   31.8200 C   0  0  0  0  0  0  0  0  0  0  0  0
    2.3446   -7.9589   30.7560 O   0  0  0  0  0  0  0  0  0  0  0  0
    3.3451   -6.6352   32.3750 C   0  0  0  0  0  0  0  0  0  0  0  0
    4.6268   -6.4976   31.7704 C   0  0  0  0  0  0  0  0  0  0  0  0
    5.3553   -5.7050   32.6215 C   0  0  0  0  0  0  0  0  0  0  0  0
    4.5233   -5.4118   33.6575 N   0  0  0  0  0  0  0  0  0  0  0  0
    3.2966   -5.9431   33.5335 N   0  0  0  0  0  0  0  0  0  0  0  0
   -0.2186   -8.1786   32.6742 C   0  0  0  0  0  0  0  0  0  0  0  0
   -3.8990  -16.4760   26.7195 H   0  0  0  0  0  0  0  0  0  0  0  0
   -3.4279  -18.0273   27.3786 H   0  0  0  0  0  0  0  0  0  0  0  0
   -4.1570  -16.8299   28.4506 H   0  0  0  0  0  0  0  0  0  0  0  0
   -1.4476  -16.7650   27.0403 H   0  0  0  0  0  0  0  0  0  0  0  0
   -1.6646  -17.0231   28.7362 H   0  0  0  0  0  0  0  0  0  0  0  0
   -0.6650  -15.0227   28.3880 H   0  0  0  0  0  0  0  0  0  0  0  0
   -1.7338  -14.3847   27.1082 H   0  0  0  0  0  0  0  0  0  0  0  0
   -3.6672  -15.5408   30.0736 H   0  0  0  0  0  0  0  0  0  0  0  0
   -2.7309  -14.7224   31.3080 H   0  0  0  0  0  0  0  0  0  0  0  0
   -1.9482  -15.7912   30.2995 H   0  0  0  0  0  0  0  0  0  0  0  0
   -3.5862  -11.9768   29.6093 H   0  0  0  0  0  0  0  0  0  0  0  0
   -2.7973  -11.9860   28.1959 H   0  0  0  0  0  0  0  0  0  0  0  0
   -2.5686   -9.9451   31.4821 H   0  0  0  0  0  0  0  0  0  0  0  0
   -2.1229   -7.7727   31.8435 H   0  0  0  0  0  0  0  0  0  0  0  0
   -1.5002   -7.1868   29.5982 H   0  0  0  0  0  0  0  0  0  0  0  0
    0.0875   -7.8813   29.8278 H   0  0  0  0  0  0  0  0  0  0  0  0
   -0.9586   -5.2667   30.8823 H   0  0  0  0  0  0  0  0  0  0  0  0
    0.6452   -5.6998   30.3385 H   0  0  0  0  0  0  0  0  0  0  0  0
   -0.6727   -6.1111   33.1005 H   0  0  0  0  0  0  0  0  0  0  0  0
    0.7814   -5.3684   32.6415 H   0  0  0  0  0  0  0  0  0  0  0  0
    4.9559   -6.9354   30.8376 H   0  0  0  0  0  0  0  0  0  0  0  0
    6.3712   -5.3385   32.5844 H   0  0  0  0  0  0  0  0  0  0  0  0
    4.7244   -4.8530   34.4805 H   0  0  0  0  0  0  0  0  0  0  0  0
    0.1797   -9.1864   32.7840 H   0  0  0  0  0  0  0  0  0  0  0  0
   -0.7607   -8.0437   33.6268 H   0  0  0  0  0  0  0  0  0  0  0  0
  1  2  1  0
  2  3  1  0
  3  4  1  0
  4  5  1  0
  4  6  1  0
  6  7  1  0
  7  8  2  0
  7  9  1  0
  9 10  1  0
 10 11  1  0
 11 12  1  0
 12 13  1  0
 13 14  1  0
 14 15  1  0
 15 16  2  0
 15 17  1  0
 17 18  1  0
 18 19  2  0
 19 20  1  0
 20 21  1  0
 14 22  1  0
 22 10  1  0
 21 17  2  0
  1 23  1  0
  1 24  1  0
  1 25  1  0
  2 26  1  0
  2 27  1  0
  3 28  1  0
  3 29  1  0
  5 30  1  0
  5 31  1  0
  5 32  1  0
  6 33  1  0
  6 34  1  0
  9 35  1  0
 10 36  1  0
 11 37  1  0
 11 38  1  0
 12 39  1  0
 12 40  1  0
 13 41  1  0
 13 42  1  0
 18 43  1  0
 19 44  1  0
 20 45  1  0
 22 46  1  0
 22 47  1  0
M  END
>  <Energy>  (713) 
377.73461406745747

>  <compound_id>  (713) 
35632

>  <target_id>  (713) 
1

>  <reference_id>  (713) 
44

>  <inspiration_ids>  (713) 
[44, 96]

>  <energy_score>  (713) 
239.0482209447017

>  <distance_score>  (713) 
11.675578672007036

>  <path>  (713) 
/opt/xchem-fragalysis-2/maxwin/BulkDock/SCRATCH/511013/C35632-P44/C35632-P44.minimised.mol

>  <scratch_subdir>  (713) 
/opt/xchem-fragalysis-2/maxwin/BulkDock/SCRATCH/511013/C35632-P44

>  <fragmenstein_runtime>  (713) 
40.44855713844299

>  <fragmenstein_outcome>  (713) 
too moved

>  <fragmenstein_mode>  (713) 
expansion

>  <fragmenstein_error>  (713) 


$$$$
C35632-P96
     RDKit          3D

 47 48  0  0  0  0  0  0  0  0999 V2000
   -4.3401  -15.0063   28.3032 C   0  0  0  0  0  0  0  0  0  0  0  0
   -3.0867  -14.1494   28.5403 C   0  0  0  0  0  0  0  0  0  0  0  0
   -2.7907  -12.6370   27.9076 C   0  0  0  0  0  0  0  0  0  0  0  0
   -3.6912  -11.0593   28.0669 N   0  0  0  0  0  0  0  0  0  0  0  0
   -5.2466  -10.8657   28.3799 C   0  0  0  0  0  0  0  0  0  0  0  0
   -3.2833   -9.6009   27.9594 C   0  0  0  0  0  0  0  0  0  0  0  0
   -2.3391   -8.2085   28.2385 C   0  0  0  0  0  0  0  0  0  0  0  0
   -1.3743   -7.9907   27.5468 O   0  0  0  0  0  0  0  0  0  0  0  0
   -2.9834   -7.3552   29.3363 N   0  0  0  0  0  0  0  0  0  0  0  0
   -2.6776   -5.9740   29.8017 C   0  0  0  0  0  0  0  0  0  0  0  0
   -1.8993   -5.0225   28.9074 C   0  0  0  0  0  0  0  0  0  0  0  0
   -1.8137   -3.6756   29.6058 C   0  0  0  0  0  0  0  0  0  0  0  0
   -2.2040   -3.7782   31.0913 C   0  0  0  0  0  0  0  0  0  0  0  0
   -1.4110   -4.7577   31.9010 N   0  0  0  0  0  0  0  0  0  0  0  0
   -1.2460   -4.2720   33.2310 C   0  0  0  0  0  0  0  0  0  0  0  0
   -1.9216   -4.4385   34.2136 O   0  0  0  0  0  0  0  0  0  0  0  0
    0.0099   -3.4827   33.3907 C   0  0  0  0  0  0  0  0  0  0  0  0
    0.7004   -3.2575   34.6170 C   0  0  0  0  0  0  0  0  0  0  0  0
    1.7891   -2.4855   34.2939 C   0  0  0  0  0  0  0  0  0  0  0  0
    1.7102   -2.2835   32.9497 N   0  0  0  0  0  0  0  0  0  0  0  0
    0.6288   -2.8337   32.3873 N   0  0  0  0  0  0  0  0  0  0  0  0
   -2.4303   -5.7376   31.3159 C   0  0  0  0  0  0  0  0  0  0  0  0
   -4.4574  -15.2388   27.2407 H   0  0  0  0  0  0  0  0  0  0  0  0
   -4.2299  -15.9616   28.8286 H   0  0  0  0  0  0  0  0  0  0  0  0
   -5.2581  -14.5422   28.6687 H   0  0  0  0  0  0  0  0  0  0  0  0
   -2.2563  -14.7510   28.1386 H   0  0  0  0  0  0  0  0  0  0  0  0
   -2.8711  -14.1265   29.6143 H   0  0  0  0  0  0  0  0  0  0  0  0
   -1.7927  -12.5274   28.3620 H   0  0  0  0  0  0  0  0  0  0  0  0
   -2.4249  -12.7587   26.8805 H   0  0  0  0  0  0  0  0  0  0  0  0
   -5.7808  -10.5737   27.4828 H   0  0  0  0  0  0  0  0  0  0  0  0
   -5.4561  -10.0832   29.1101 H   0  0  0  0  0  0  0  0  0  0  0  0
   -5.8329  -11.7046   28.7865 H   0  0  0  0  0  0  0  0  0  0  0  0
   -3.5022   -9.5063   26.9140 H   0  0  0  0  0  0  0  0  0  0  0  0
   -3.9910   -9.2438   28.6541 H   0  0  0  0  0  0  0  0  0  0  0  0
   -3.7297   -7.8770   29.7689 H   0  0  0  0  0  0  0  0  0  0  0  0
   -3.6953   -5.5820   29.6911 H   0  0  0  0  0  0  0  0  0  0  0  0
   -0.8977   -5.3908   28.7116 H   0  0  0  0  0  0  0  0  0  0  0  0
   -2.3691   -4.9135   27.9241 H   0  0  0  0  0  0  0  0  0  0  0  0
   -2.4760   -2.9543   29.1143 H   0  0  0  0  0  0  0  0  0  0  0  0
   -0.7990   -3.2734   29.5057 H   0  0  0  0  0  0  0  0  0  0  0  0
   -1.9432   -2.7843   31.4893 H   0  0  0  0  0  0  0  0  0  0  0  0
   -3.2739   -3.7809   31.2865 H   0  0  0  0  0  0  0  0  0  0  0  0
    0.4268   -3.6330   35.5932 H   0  0  0  0  0  0  0  0  0  0  0  0
    2.5982   -2.0804   34.8838 H   0  0  0  0  0  0  0  0  0  0  0  0
    2.3490   -1.7715   32.3502 H   0  0  0  0  0  0  0  0  0  0  0  0
   -3.3785   -5.6683   31.8798 H   0  0  0  0  0  0  0  0  0  0  0  0
   -2.0791   -6.6989   31.7090 H   0  0  0  0  0  0  0  0  0  0  0  0
  1  2  1  0
  2  3  1  0
  3  4  1  0
  4  5  1  0
  4  6  1  0
  6  7  1  0
  7  8  2  0
  7  9  1  0
  9 10  1  0
 10 11  1  0
 11 12  1  0
 12 13  1  0
 13 14  1  0
 14 15  1  0
 15 16  2  0
 15 17  1  0
 17 18  1  0
 18 19  2  0
 19 20  1  0
 20 21  1  0
 14 22  1  0
 22 10  1  0
 21 17  2  0
  1 23  1  0
  1 24  1  0
  1 25  1  0
  2 26  1  0
  2 27  1  0
  3 28  1  0
  3 29  1  0
  5 30  1  0
  5 31  1  0
  5 32  1  0
  6 33  1  0
  6 34  1  0
  9 35  1  0
 10 36  1  0
 11 37  1  0
 11 38  1  0
 12 39  1  0
 12 40  1  0
 13 41  1  0
 13 42  1  0
 18 43  1  0
 19 44  1  0
 20 45  1  0
 22 46  1  0
 22 47  1  0
M  END
>  <Energy>  (714) 
363.28300423287533

>  <compound_id>  (714) 
35632

>  <target_id>  (714) 
1

>  <reference_id>  (714) 
96

>  <inspiration_ids>  (714) 
[44, 96]

>  <energy_score>  (714) 
224.59661111011633

>  <distance_score>  (714) 
11.192168951067165

>  <path>  (714) 
/opt/xchem-fragalysis-2/maxwin/BulkDock/SCRATCH/511013/C35632-P96/C35632-P96.minimised.mol

>  <scratch_subdir>  (714) 
/opt/xchem-fragalysis-2/maxwin/BulkDock/SCRATCH/511013/C35632-P96

>  <fragmenstein_runtime>  (714) 
23.001899003982544

>  <fragmenstein_outcome>  (714) 
too moved

>  <fragmenstein_mode>  (714) 
expansion

>  <fragmenstein_error>  (714) 


$$$$
C35633-P44
     RDKit          3D

 57 58  0  0  0  0  0  0  0  0999 V2000
   -7.9321  -15.8921   33.8178 C   0  0  0  0  0  0  0  0  0  0  0  0
   -8.0049  -14.7770   32.7646 C   0  0  0  0  0  0  0  0  0  0  0  0
   -6.6232  -14.2069   32.2836 C   0  0  0  0  0  0  0  0  0  0  0  0
   -5.8052  -15.4425   31.8016 C   0  0  0  0  0  0  0  0  0  0  0  0
   -6.5884  -13.0068   31.0246 C   0  0  0  0  0  0  0  0  0  0  0  0
   -6.1884  -10.9244   30.7036 C   0  0  0  0  0  0  0  0  0  0  0  0
   -5.4198  -10.5693   31.5151 O   0  0  0  0  0  0  0  0  0  0  0  0
   -6.5934   -9.4968   29.3695 N   0  0  0  0  0  0  0  0  0  0  0  0
   -5.7949   -7.5731   29.0498 C   0  0  0  0  0  0  0  0  0  0  0  0
   -6.0094   -5.3626   28.7803 C   0  0  0  0  0  0  0  0  0  0  0  0
   -6.1683   -4.2162   30.1927 C   0  0  0  0  0  0  0  0  0  0  0  0
   -7.0494   -4.8798   27.5730 C   0  0  0  0  0  0  0  0  0  0  0  0
   -4.8124   -3.6262   28.3847 C   0  0  0  0  0  0  0  0  0  0  0  0
   -4.0689   -2.4821   27.0339 C   0  0  0  0  0  0  0  0  0  0  0  0
   -2.6020   -1.5419   27.2494 C   0  0  0  0  0  0  0  0  0  0  0  0
   -1.7540   -0.7694   28.2877 N   0  0  0  0  0  0  0  0  0  0  0  0
   -1.8052    0.6317   28.0224 C   0  0  0  0  0  0  0  0  0  0  0  0
   -2.5550    1.4729   28.4281 O   0  0  0  0  0  0  0  0  0  0  0  0
   -0.6785    1.1136   27.1905 C   0  0  0  0  0  0  0  0  0  0  0  0
    0.6876    0.7680   27.4183 C   0  0  0  0  0  0  0  0  0  0  0  0
    1.4176    1.8024   26.8817 C   0  0  0  0  0  0  0  0  0  0  0  0
    0.5075    2.6449   26.3154 N   0  0  0  0  0  0  0  0  0  0  0  0
   -0.7583    2.2160   26.4172 N   0  0  0  0  0  0  0  0  0  0  0  0
   -2.4999   -1.5652   29.1881 C   0  0  0  0  0  0  0  0  0  0  0  0
   -3.1052   -2.9972   29.2809 C   0  0  0  0  0  0  0  0  0  0  0  0
   -8.9389  -16.1310   34.1757 H   0  0  0  0  0  0  0  0  0  0  0  0
   -7.3370  -15.5694   34.6780 H   0  0  0  0  0  0  0  0  0  0  0  0
   -7.4948  -16.8112   33.4214 H   0  0  0  0  0  0  0  0  0  0  0  0
   -8.5730  -15.1463   31.9055 H   0  0  0  0  0  0  0  0  0  0  0  0
   -8.5770  -13.9632   33.2253 H   0  0  0  0  0  0  0  0  0  0  0  0
   -6.1601  -13.8343   33.1832 H   0  0  0  0  0  0  0  0  0  0  0  0
   -4.8336  -15.1846   31.3816 H   0  0  0  0  0  0  0  0  0  0  0  0
   -6.3569  -15.9962   31.0337 H   0  0  0  0  0  0  0  0  0  0  0  0
   -5.5898  -16.1228   32.6311 H   0  0  0  0  0  0  0  0  0  0  0  0
   -5.7808  -13.4523   30.3755 H   0  0  0  0  0  0  0  0  0  0  0  0
   -7.1528  -13.6840   30.3178 H   0  0  0  0  0  0  0  0  0  0  0  0
   -7.3120   -9.8318   28.7610 H   0  0  0  0  0  0  0  0  0  0  0  0
   -5.4340   -7.9525   28.0506 H   0  0  0  0  0  0  0  0  0  0  0  0
   -4.7165   -7.7561   29.1937 H   0  0  0  0  0  0  0  0  0  0  0  0
   -5.8488   -4.7339   31.0490 H   0  0  0  0  0  0  0  0  0  0  0  0
   -5.4911   -3.3938   30.3642 H   0  0  0  0  0  0  0  0  0  0  0  0
   -7.1214   -3.6690   30.2133 H   0  0  0  0  0  0  0  0  0  0  0  0
   -8.1032   -5.0868   27.6574 H   0  0  0  0  0  0  0  0  0  0  0  0
   -6.7830   -5.3139   26.6189 H   0  0  0  0  0  0  0  0  0  0  0  0
   -7.0971   -3.7977   27.4535 H   0  0  0  0  0  0  0  0  0  0  0  0
   -5.6761   -3.0380   28.2591 H   0  0  0  0  0  0  0  0  0  0  0  0
   -3.6169   -2.9699   26.1471 H   0  0  0  0  0  0  0  0  0  0  0  0
   -4.7802   -2.2611   26.2575 H   0  0  0  0  0  0  0  0  0  0  0  0
   -2.6217   -0.8808   26.3709 H   0  0  0  0  0  0  0  0  0  0  0  0
   -1.8353   -2.2752   27.0160 H   0  0  0  0  0  0  0  0  0  0  0  0
    1.0614   -0.0477   28.0202 H   0  0  0  0  0  0  0  0  0  0  0  0
    2.4763    2.0168   26.8656 H   0  0  0  0  0  0  0  0  0  0  0  0
    0.6753    3.5276   25.8432 H   0  0  0  0  0  0  0  0  0  0  0  0
   -1.6618   -1.7247   29.8981 H   0  0  0  0  0  0  0  0  0  0  0  0
   -3.0298   -0.8373   29.8249 H   0  0  0  0  0  0  0  0  0  0  0  0
   -3.2641   -2.9786   30.3938 H   0  0  0  0  0  0  0  0  0  0  0  0
   -2.2309   -3.6503   29.1258 H   0  0  0  0  0  0  0  0  0  0  0  0
  1  2  1  0
  2  3  1  0
  3  4  1  0
  3  5  1  0
  5  6  1  0
  6  7  2  0
  6  8  1  0
  8  9  1  0
  9 10  1  0
 10 11  1  0
 10 12  1  0
 10 13  1  0
 13 14  1  0
 14 15  1  0
 15 16  1  0
 16 17  1  0
 17 18  2  0
 17 19  1  0
 19 20  1  0
 20 21  2  0
 21 22  1  0
 22 23  1  0
 16 24  1  0
 24 25  1  0
 25 13  1  0
 23 19  2  0
  1 26  1  0
  1 27  1  0
  1 28  1  0
  2 29  1  0
  2 30  1  0
  3 31  1  0
  4 32  1  0
  4 33  1  0
  4 34  1  0
  5 35  1  0
  5 36  1  0
  8 37  1  0
  9 38  1  0
  9 39  1  0
 11 40  1  0
 11 41  1  0
 11 42  1  0
 12 43  1  0
 12 44  1  0
 12 45  1  0
 13 46  1  0
 14 47  1  0
 14 48  1  0
 15 49  1  0
 15 50  1  0
 20 51  1  0
 21 52  1  0
 22 53  1  0
 24 54  1  0
 24 55  1  0
 25 56  1  0
 25 57  1  0
M  END
>  <Energy>  (715) 
1204.7781789810474

>  <compound_id>  (715) 
35633

>  <target_id>  (715) 
1

>  <reference_id>  (715) 
44

>  <inspiration_ids>  (715) 
[44, 96]

>  <energy_score>  (715) 
1090.3299139684768

>  <distance_score>  (715) 
8.769132862868661

>  <path>  (715) 
/opt/xchem-fragalysis-2/maxwin/BulkDock/SCRATCH/511013/C35633-P44/C35633-P44.minimised.mol

>  <scratch_subdir>  (715) 
/opt/xchem-fragalysis-2/maxwin/BulkDock/SCRATCH/511013/C35633-P44

>  <fragmenstein_runtime>  (715) 
39.107465744018555

>  <fragmenstein_outcome>  (715) 
too moved

>  <fragmenstein_mode>  (715) 
expansion

>  <fragmenstein_error>  (715) 


$$$$
C35633-P96
     RDKit          3D

 57 58  0  0  0  0  0  0  0  0999 V2000
   -2.8818  -18.0606   27.1190 C   0  0  0  0  0  0  0  0  0  0  0  0
   -2.9392  -16.7754   26.2899 C   0  0  0  0  0  0  0  0  0  0  0  0
   -1.6028  -16.3001   25.6033 C   0  0  0  0  0  0  0  0  0  0  0  0
   -0.4912  -16.1211   26.6392 C   0  0  0  0  0  0  0  0  0  0  0  0
   -1.8262  -14.9485   24.8107 C   0  0  0  0  0  0  0  0  0  0  0  0
   -0.7462  -14.2321   23.9093 C   0  0  0  0  0  0  0  0  0  0  0  0
    0.3749  -14.6490   23.8429 O   0  0  0  0  0  0  0  0  0  0  0  0
   -1.3570  -13.0238   23.3253 N   0  0  0  0  0  0  0  0  0  0  0  0
   -0.7509  -11.8948   22.5549 C   0  0  0  0  0  0  0  0  0  0  0  0
   -1.6974  -11.1524   21.5138 C   0  0  0  0  0  0  0  0  0  0  0  0
   -3.1785  -11.4594   21.8203 C   0  0  0  0  0  0  0  0  0  0  0  0
   -1.4178  -11.8056   20.1343 C   0  0  0  0  0  0  0  0  0  0  0  0
   -1.6127   -9.5851   21.3627 C   0  0  0  0  0  0  0  0  0  0  0  0
   -0.5143   -8.9852   20.5030 C   0  0  0  0  0  0  0  0  0  0  0  0
   -0.4338   -7.4634   20.7617 C   0  0  0  0  0  0  0  0  0  0  0  0
   -1.7163   -6.6552   20.7691 N   0  0  0  0  0  0  0  0  0  0  0  0
   -2.4724   -6.9220   19.5829 C   0  0  0  0  0  0  0  0  0  0  0  0
   -3.3248   -7.7430   19.3680 O   0  0  0  0  0  0  0  0  0  0  0  0
   -2.1148   -5.9292   18.5240 C   0  0  0  0  0  0  0  0  0  0  0  0
   -1.3681   -4.7224   18.6677 C   0  0  0  0  0  0  0  0  0  0  0  0
   -1.3369   -4.1520   17.4197 C   0  0  0  0  0  0  0  0  0  0  0  0
   -2.0346   -4.9945   16.6126 N   0  0  0  0  0  0  0  0  0  0  0  0
   -2.4919   -6.0883   17.2382 N   0  0  0  0  0  0  0  0  0  0  0  0
   -1.8237   -7.2422   22.1696 C   0  0  0  0  0  0  0  0  0  0  0  0
   -1.6155   -8.7166   22.5951 C   0  0  0  0  0  0  0  0  0  0  0  0
   -3.8877  -18.3422   27.4427 H   0  0  0  0  0  0  0  0  0  0  0  0
   -2.2661  -17.9280   28.0131 H   0  0  0  0  0  0  0  0  0  0  0  0
   -2.4679  -18.8832   26.5282 H   0  0  0  0  0  0  0  0  0  0  0  0
   -3.3128  -15.9692   26.9330 H   0  0  0  0  0  0  0  0  0  0  0  0
   -3.6831  -16.9209   25.4977 H   0  0  0  0  0  0  0  0  0  0  0  0
   -1.2853  -17.0647   24.8840 H   0  0  0  0  0  0  0  0  0  0  0  0
   -0.7803  -15.3956   27.4070 H   0  0  0  0  0  0  0  0  0  0  0  0
   -0.2585  -17.0682   27.1356 H   0  0  0  0  0  0  0  0  0  0  0  0
    0.4340  -15.7688   26.1744 H   0  0  0  0  0  0  0  0  0  0  0  0
   -2.0621  -14.1931   25.5700 H   0  0  0  0  0  0  0  0  0  0  0  0
   -2.6880  -15.1081   24.1507 H   0  0  0  0  0  0  0  0  0  0  0  0
   -2.3101  -12.9408   23.6562 H   0  0  0  0  0  0  0  0  0  0  0  0
    0.1511  -12.2838   22.0687 H   0  0  0  0  0  0  0  0  0  0  0  0
   -0.3969  -11.1742   23.2950 H   0  0  0  0  0  0  0  0  0  0  0  0
   -3.3876  -12.5338   21.7810 H   0  0  0  0  0  0  0  0  0  0  0  0
   -3.4384  -11.0698   22.8051 H   0  0  0  0  0  0  0  0  0  0  0  0
   -3.8571  -10.9980   21.0928 H   0  0  0  0  0  0  0  0  0  0  0  0
   -0.3775  -11.6577   19.8248 H   0  0  0  0  0  0  0  0  0  0  0  0
   -1.5979  -12.8867   20.1648 H   0  0  0  0  0  0  0  0  0  0  0  0
   -2.0640  -11.3858   19.3548 H   0  0  0  0  0  0  0  0  0  0  0  0
   -2.5423   -9.3395   20.8392 H   0  0  0  0  0  0  0  0  0  0  0  0
   -0.7158   -9.1743   19.4419 H   0  0  0  0  0  0  0  0  0  0  0  0
    0.4586   -9.4364   20.7314 H   0  0  0  0  0  0  0  0  0  0  0  0
    0.2648   -7.2267   21.5700 H   0  0  0  0  0  0  0  0  0  0  0  0
    0.1149   -7.0712   19.8907 H   0  0  0  0  0  0  0  0  0  0  0  0
   -0.9331   -4.3201   19.5722 H   0  0  0  0  0  0  0  0  0  0  0  0
   -0.9057   -3.2313   17.0535 H   0  0  0  0  0  0  0  0  0  0  0  0
   -2.2375   -4.8891   15.6243 H   0  0  0  0  0  0  0  0  0  0  0  0
   -2.8931   -7.0671   22.3698 H   0  0  0  0  0  0  0  0  0  0  0  0
   -1.3462   -6.5671   22.8877 H   0  0  0  0  0  0  0  0  0  0  0  0
   -0.6648   -8.8106   23.1359 H   0  0  0  0  0  0  0  0  0  0  0  0
   -2.3911   -9.0079   23.2962 H   0  0  0  0  0  0  0  0  0  0  0  0
  1  2  1  0
  2  3  1  0
  3  4  1  0
  3  5  1  0
  5  6  1  0
  6  7  2  0
  6  8  1  0
  8  9  1  0
  9 10  1  0
 10 11  1  0
 10 12  1  0
 10 13  1  0
 13 14  1  0
 14 15  1  0
 15 16  1  0
 16 17  1  0
 17 18  2  0
 17 19  1  0
 19 20  1  0
 20 21  2  0
 21 22  1  0
 22 23  1  0
 16 24  1  0
 24 25  1  0
 25 13  1  0
 23 19  2  0
  1 26  1  0
  1 27  1  0
  1 28  1  0
  2 29  1  0
  2 30  1  0
  3 31  1  0
  4 32  1  0
  4 33  1  0
  4 34  1  0
  5 35  1  0
  5 36  1  0
  8 37  1  0
  9 38  1  0
  9 39  1  0
 11 40  1  0
 11 41  1  0
 11 42  1  0
 12 43  1  0
 12 44  1  0
 12 45  1  0
 13 46  1  0
 14 47  1  0
 14 48  1  0
 15 49  1  0
 15 50  1  0
 20 51  1  0
 21 52  1  0
 22 53  1  0
 24 54  1  0
 24 55  1  0
 25 56  1  0
 25 57  1  0
M  END
>  <Energy>  (716) 
153.53195564376554

>  <compound_id>  (716) 
35633

>  <target_id>  (716) 
1

>  <reference_id>  (716) 
96

>  <inspiration_ids>  (716) 
[44, 96]

>  <energy_score>  (716) 
39.083690631190734

>  <distance_score>  (716) 
13.331338453318185

>  <path>  (716) 
/opt/xchem-fragalysis-2/maxwin/BulkDock/SCRATCH/511013/C35633-P96/C35633-P96.minimised.mol

>  <scratch_subdir>  (716) 
/opt/xchem-fragalysis-2/maxwin/BulkDock/SCRATCH/511013/C35633-P96

>  <fragmenstein_runtime>  (716) 
52.14612889289856

>  <fragmenstein_outcome>  (716) 
too moved

>  <fragmenstein_mode>  (716) 
expansion

>  <fragmenstein_error>  (716) 


$$$$
C35637-P44
     RDKit          3D

 49 50  0  0  0  0  0  0  0  0999 V2000
  -14.3382  -19.2620   28.1153 C   0  0  0  0  0  0  0  0  0  0  0  0
  -14.1501  -17.8367   28.6149 C   0  0  0  0  0  0  0  0  0  0  0  0
  -14.3469  -16.7348   27.5610 C   0  0  0  0  0  0  0  0  0  0  0  0
  -14.3114  -15.2482   28.0757 C   0  0  0  0  0  0  0  0  0  0  0  0
  -13.3746  -15.1655   29.1446 O   0  0  0  0  0  0  0  0  0  0  0  0
  -13.9699  -15.2383   30.4359 C   0  0  0  0  0  0  0  0  0  0  0  0
  -14.0016  -14.2147   26.8777 C   0  0  0  0  0  0  0  0  0  0  0  0
  -14.0688  -14.6337   25.7540 O   0  0  0  0  0  0  0  0  0  0  0  0
  -13.7049  -12.8765   27.3760 N   0  0  0  0  0  0  0  0  0  0  0  0
  -13.2990  -11.6454   26.6627 C   0  0  0  0  0  0  0  0  0  0  0  0
  -13.7322  -10.2699   27.2392 C   0  0  0  0  0  0  0  0  0  0  0  0
  -13.4252   -9.0763   26.3294 C   0  0  0  0  0  0  0  0  0  0  0  0
  -13.9180   -7.7887   27.0335 C   0  0  0  0  0  0  0  0  0  0  0  0
  -13.0924   -7.2579   28.2056 N   0  0  0  0  0  0  0  0  0  0  0  0
  -13.3320   -5.8599   28.3799 C   0  0  0  0  0  0  0  0  0  0  0  0
  -14.1423   -5.2848   29.0568 O   0  0  0  0  0  0  0  0  0  0  0  0
  -12.3450   -5.0328   27.6303 C   0  0  0  0  0  0  0  0  0  0  0  0
  -12.2370   -3.6136   27.6954 C   0  0  0  0  0  0  0  0  0  0  0  0
  -11.1949   -3.2806   26.8678 C   0  0  0  0  0  0  0  0  0  0  0  0
  -10.7401   -4.4565   26.3578 N   0  0  0  0  0  0  0  0  0  0  0  0
  -11.4223   -5.5338   26.7840 N   0  0  0  0  0  0  0  0  0  0  0  0
  -13.6959   -8.4461   28.8930 C   0  0  0  0  0  0  0  0  0  0  0  0
  -13.1283   -9.8272   28.5604 C   0  0  0  0  0  0  0  0  0  0  0  0
  -15.4041  -19.4784   27.9858 H   0  0  0  0  0  0  0  0  0  0  0  0
  -13.8580  -19.4366   27.1521 H   0  0  0  0  0  0  0  0  0  0  0  0
  -13.9370  -19.9650   28.8483 H   0  0  0  0  0  0  0  0  0  0  0  0
  -13.1443  -17.7366   29.0266 H   0  0  0  0  0  0  0  0  0  0  0  0
  -14.8877  -17.6928   29.4055 H   0  0  0  0  0  0  0  0  0  0  0  0
  -15.2961  -16.8902   27.0326 H   0  0  0  0  0  0  0  0  0  0  0  0
  -13.5669  -16.8508   26.8025 H   0  0  0  0  0  0  0  0  0  0  0  0
  -15.3154  -14.9759   28.4300 H   0  0  0  0  0  0  0  0  0  0  0  0
  -14.3534  -14.2477   30.7008 H   0  0  0  0  0  0  0  0  0  0  0  0
  -14.8018  -15.9406   30.4889 H   0  0  0  0  0  0  0  0  0  0  0  0
  -13.2069  -15.5165   31.1634 H   0  0  0  0  0  0  0  0  0  0  0  0
  -13.6511  -12.9050   28.3895 H   0  0  0  0  0  0  0  0  0  0  0  0
  -12.2140  -11.6898   26.5451 H   0  0  0  0  0  0  0  0  0  0  0  0
  -13.7089  -11.7459   25.6502 H   0  0  0  0  0  0  0  0  0  0  0  0
  -14.8230  -10.3280   27.3683 H   0  0  0  0  0  0  0  0  0  0  0  0
  -13.9472   -9.1941   25.3730 H   0  0  0  0  0  0  0  0  0  0  0  0
  -12.3517   -9.0060   26.1177 H   0  0  0  0  0  0  0  0  0  0  0  0
  -13.7973   -7.0151   26.2583 H   0  0  0  0  0  0  0  0  0  0  0  0
  -15.0103   -7.7514   27.1942 H   0  0  0  0  0  0  0  0  0  0  0  0
  -12.8468   -2.9437   28.2862 H   0  0  0  0  0  0  0  0  0  0  0  0
  -10.7447   -2.3331   26.6073 H   0  0  0  0  0  0  0  0  0  0  0  0
   -9.9668   -4.5982   25.7159 H   0  0  0  0  0  0  0  0  0  0  0  0
  -14.7921   -8.4082   29.0187 H   0  0  0  0  0  0  0  0  0  0  0  0
  -13.3734   -8.2662   29.9313 H   0  0  0  0  0  0  0  0  0  0  0  0
  -13.4075  -10.5351   29.3465 H   0  0  0  0  0  0  0  0  0  0  0  0
  -12.0385   -9.7599   28.5061 H   0  0  0  0  0  0  0  0  0  0  0  0
  1  2  1  0
  2  3  1  0
  3  4  1  0
  4  5  1  0
  5  6  1  0
  4  7  1  0
  7  8  2  0
  7  9  1  0
  9 10  1  0
 10 11  1  0
 11 12  1  0
 12 13  1  0
 13 14  1  0
 14 15  1  0
 15 16  2  0
 15 17  1  0
 17 18  1  0
 18 19  2  0
 19 20  1  0
 20 21  1  0
 14 22  1  0
 22 23  1  0
 23 11  1  0
 21 17  2  0
  1 24  1  0
  1 25  1  0
  1 26  1  0
  2 27  1  0
  2 28  1  0
  3 29  1  0
  3 30  1  0
  4 31  1  0
  6 32  1  0
  6 33  1  0
  6 34  1  0
  9 35  1  0
 10 36  1  0
 10 37  1  0
 11 38  1  0
 12 39  1  0
 12 40  1  0
 13 41  1  0
 13 42  1  0
 18 43  1  0
 19 44  1  0
 20 45  1  0
 22 46  1  0
 22 47  1  0
 23 48  1  0
 23 49  1  0
M  END
>  <Energy>  (717) 
145.53385130017242

>  <compound_id>  (717) 
35637

>  <target_id>  (717) 
1

>  <reference_id>  (717) 
44

>  <inspiration_ids>  (717) 
[44, 96]

>  <energy_score>  (717) 
41.08640629830825

>  <distance_score>  (717) 
14.193241724557078

>  <path>  (717) 
/opt/xchem-fragalysis-2/maxwin/BulkDock/SCRATCH/511013/C35637-P44/C35637-P44.minimised.mol

>  <scratch_subdir>  (717) 
/opt/xchem-fragalysis-2/maxwin/BulkDock/SCRATCH/511013/C35637-P44

>  <fragmenstein_runtime>  (717) 
48.67588424682617

>  <fragmenstein_outcome>  (717) 
too moved

>  <fragmenstein_mode>  (717) 
expansion

>  <fragmenstein_error>  (717) 


$$$$
C35637-P96
     RDKit          3D

 49 50  0  0  0  0  0  0  0  0999 V2000
  -10.3875  -16.7955   24.7041 C   0  0  0  0  0  0  0  0  0  0  0  0
  -10.0172  -15.8829   25.8764 C   0  0  0  0  0  0  0  0  0  0  0  0
   -8.9132  -14.7665   26.1805 C   0  0  0  0  0  0  0  0  0  0  0  0
   -8.7697  -13.5482   25.3776 C   0  0  0  0  0  0  0  0  0  0  0  0
   -8.1417  -14.1745   24.1920 O   0  0  0  0  0  0  0  0  0  0  0  0
   -8.3175  -15.0534   23.0072 C   0  0  0  0  0  0  0  0  0  0  0  0
   -8.1090  -11.7442   25.4356 C   0  0  0  0  0  0  0  0  0  0  0  0
   -7.0477  -11.5801   25.9299 O   0  0  0  0  0  0  0  0  0  0  0  0
   -9.1181  -10.5077   24.6042 N   0  0  0  0  0  0  0  0  0  0  0  0
   -8.8072   -9.0283   24.2480 C   0  0  0  0  0  0  0  0  0  0  0  0
   -9.2275   -7.7414   25.0542 C   0  0  0  0  0  0  0  0  0  0  0  0
  -10.6215   -7.2505   24.7025 C   0  0  0  0  0  0  0  0  0  0  0  0
  -10.6130   -6.3938   23.4215 C   0  0  0  0  0  0  0  0  0  0  0  0
   -9.9191   -5.0348   23.4495 N   0  0  0  0  0  0  0  0  0  0  0  0
  -10.4702   -4.2220   24.4893 C   0  0  0  0  0  0  0  0  0  0  0  0
  -10.1412   -4.0962   25.6405 O   0  0  0  0  0  0  0  0  0  0  0  0
  -11.5991   -3.3869   23.9821 C   0  0  0  0  0  0  0  0  0  0  0  0
  -12.3235   -2.4231   24.7406 C   0  0  0  0  0  0  0  0  0  0  0  0
  -13.2528   -1.8947   23.8800 C   0  0  0  0  0  0  0  0  0  0  0  0
  -13.0598   -2.5309   22.6926 N   0  0  0  0  0  0  0  0  0  0  0  0
  -12.0831   -3.4496   22.7232 N   0  0  0  0  0  0  0  0  0  0  0  0
   -8.6954   -5.8991   23.4281 C   0  0  0  0  0  0  0  0  0  0  0  0
   -8.2905   -6.5660   24.7476 C   0  0  0  0  0  0  0  0  0  0  0  0
  -10.7457  -16.2921   23.8133 H   0  0  0  0  0  0  0  0  0  0  0  0
   -9.5939  -17.4914   24.4188 H   0  0  0  0  0  0  0  0  0  0  0  0
  -11.2187  -17.4404   25.0203 H   0  0  0  0  0  0  0  0  0  0  0  0
  -10.9726  -15.5603   26.3027 H   0  0  0  0  0  0  0  0  0  0  0  0
   -9.5537  -16.6938   26.4246 H   0  0  0  0  0  0  0  0  0  0  0  0
   -8.0856  -15.3599   26.4479 H   0  0  0  0  0  0  0  0  0  0  0  0
   -8.7281  -14.2603   27.1060 H   0  0  0  0  0  0  0  0  0  0  0  0
   -9.7710  -13.1644   25.5727 H   0  0  0  0  0  0  0  0  0  0  0  0
   -7.3744  -15.0993   22.4364 H   0  0  0  0  0  0  0  0  0  0  0  0
   -8.6006  -16.0690   23.2508 H   0  0  0  0  0  0  0  0  0  0  0  0
   -8.8948  -14.6459   22.1611 H   0  0  0  0  0  0  0  0  0  0  0  0
  -10.0175  -10.9073   24.3534 H   0  0  0  0  0  0  0  0  0  0  0  0
   -7.7429   -9.0165   24.0615 H   0  0  0  0  0  0  0  0  0  0  0  0
   -9.2509   -8.9358   23.2484 H   0  0  0  0  0  0  0  0  0  0  0  0
   -9.2032   -7.9073   26.1292 H   0  0  0  0  0  0  0  0  0  0  0  0
  -11.3039   -8.0992   24.5758 H   0  0  0  0  0  0  0  0  0  0  0  0
  -11.0215   -6.6613   25.5367 H   0  0  0  0  0  0  0  0  0  0  0  0
  -11.6737   -6.1305   23.2838 H   0  0  0  0  0  0  0  0  0  0  0  0
  -10.4247   -6.9724   22.5010 H   0  0  0  0  0  0  0  0  0  0  0  0
  -12.1639   -2.1624   25.7781 H   0  0  0  0  0  0  0  0  0  0  0  0
  -14.0121   -1.1363   24.0038 H   0  0  0  0  0  0  0  0  0  0  0  0
  -13.5589   -2.3921   21.8202 H   0  0  0  0  0  0  0  0  0  0  0  0
   -7.9138   -5.1378   23.2791 H   0  0  0  0  0  0  0  0  0  0  0  0
   -8.5595   -6.5219   22.5284 H   0  0  0  0  0  0  0  0  0  0  0  0
   -7.2506   -6.8911   24.7011 H   0  0  0  0  0  0  0  0  0  0  0  0
   -8.3347   -5.8339   25.5595 H   0  0  0  0  0  0  0  0  0  0  0  0
  1  2  1  0
  2  3  1  0
  3  4  1  0
  4  5  1  0
  5  6  1  0
  4  7  1  0
  7  8  2  0
  7  9  1  0
  9 10  1  0
 10 11  1  0
 11 12  1  0
 12 13  1  0
 13 14  1  0
 14 15  1  0
 15 16  2  0
 15 17  1  0
 17 18  1  0
 18 19  2  0
 19 20  1  0
 20 21  1  0
 14 22  1  0
 22 23  1  0
 23 11  1  0
 21 17  2  0
  1 24  1  0
  1 25  1  0
  1 26  1  0
  2 27  1  0
  2 28  1  0
  3 29  1  0
  3 30  1  0
  4 31  1  0
  6 32  1  0
  6 33  1  0
  6 34  1  0
  9 35  1  0
 10 36  1  0
 10 37  1  0
 11 38  1  0
 12 39  1  0
 12 40  1  0
 13 41  1  0
 13 42  1  0
 18 43  1  0
 19 44  1  0
 20 45  1  0
 22 46  1  0
 22 47  1  0
 23 48  1  0
 23 49  1  0
M  END
>  <Energy>  (718) 
355.77333661216289

>  <compound_id>  (718) 
35637

>  <target_id>  (718) 
1

>  <reference_id>  (718) 
96

>  <inspiration_ids>  (718) 
[44, 96]

>  <energy_score>  (718) 
251.32589161030324

>  <distance_score>  (718) 
12.481101185046276

>  <path>  (718) 
/opt/xchem-fragalysis-2/maxwin/BulkDock/SCRATCH/511013/C35637-P96/C35637-P96.minimised.mol

>  <scratch_subdir>  (718) 
/opt/xchem-fragalysis-2/maxwin/BulkDock/SCRATCH/511013/C35637-P96

>  <fragmenstein_runtime>  (718) 
28.96832823753357

>  <fragmenstein_outcome>  (718) 
too moved

>  <fragmenstein_mode>  (718) 
expansion

>  <fragmenstein_error>  (718) 


$$$$
C35638-P44
     RDKit          3D

 53 54  0  0  0  0  0  0  0  0999 V2000
   -5.9642  -12.3219   23.9637 C   0  0  0  0  0  0  0  0  0  0  0  0
   -6.4602  -11.8741   25.2079 C   0  0  0  0  0  0  0  0  0  0  0  0
   -7.2774  -11.9171   26.3427 C   0  0  0  0  0  0  0  0  0  0  0  0
   -6.6767   -9.7275   26.8152 C   0  0  0  0  0  0  0  0  0  0  0  0
   -5.4213   -8.4715   28.0073 N   0  0  0  0  0  0  0  0  0  0  0  0
   -3.6422   -7.7016   27.6995 C   0  0  0  0  0  0  0  0  0  0  0  0
   -3.0470   -7.7553   26.6142 O   0  0  0  0  0  0  0  0  0  0  0  0
   -2.3389   -6.9570   29.1474 C   0  0  0  0  0  0  0  0  0  0  0  0
   -2.2526   -7.3523   30.8462 C   0  0  0  0  0  0  0  0  0  0  0  0
   -0.9681   -8.2268   29.1099 C   0  0  0  0  0  0  0  0  0  0  0  0
   -0.9938   -5.6088   29.2574 N   0  0  0  0  0  0  0  0  0  0  0  0
   -1.2505   -4.0988   29.4534 C   0  0  0  0  0  0  0  0  0  0  0  0
   -0.1404   -3.1883   28.9203 C   0  0  0  0  0  0  0  0  0  0  0  0
    1.2326   -3.6553   29.3440 C   0  0  0  0  0  0  0  0  0  0  0  0
    1.0857   -4.5401   30.5652 C   0  0  0  0  0  0  0  0  0  0  0  0
    0.1989   -5.7872   30.2658 C   0  0  0  0  0  0  0  0  0  0  0  0
   -7.4495  -13.7815   27.3765 N   0  0  0  0  0  0  0  0  0  0  0  0
   -8.2841  -15.5913   26.8902 C   0  0  0  0  0  0  0  0  0  0  0  0
   -8.8765  -15.5669   25.8488 O   0  0  0  0  0  0  0  0  0  0  0  0
   -8.2105  -17.5946   27.6209 C   0  0  0  0  0  0  0  0  0  0  0  0
   -7.3027  -19.5236   26.9855 C   0  0  0  0  0  0  0  0  0  0  0  0
   -7.9073  -20.7674   27.6028 C   0  0  0  0  0  0  0  0  0  0  0  0
   -8.9779  -19.7412   28.3479 N   0  0  0  0  0  0  0  0  0  0  0  0
   -8.9956  -18.3068   28.3929 N   0  0  0  0  0  0  0  0  0  0  0  0
   -6.5213  -11.8176   23.1618 H   0  0  0  0  0  0  0  0  0  0  0  0
   -5.9354  -13.3565   23.6387 H   0  0  0  0  0  0  0  0  0  0  0  0
   -4.9256  -12.1356   24.2151 H   0  0  0  0  0  0  0  0  0  0  0  0
   -6.6097  -12.8832   25.4965 H   0  0  0  0  0  0  0  0  0  0  0  0
   -6.9912  -11.0196   24.8089 H   0  0  0  0  0  0  0  0  0  0  0  0
   -8.3370  -11.5894   26.1283 H   0  0  0  0  0  0  0  0  0  0  0  0
   -7.5155   -9.1634   26.4902 H   0  0  0  0  0  0  0  0  0  0  0  0
   -5.9377  -10.3118   26.4294 H   0  0  0  0  0  0  0  0  0  0  0  0
   -5.7331   -8.2346   28.9246 H   0  0  0  0  0  0  0  0  0  0  0  0
   -3.1076   -7.8966   31.2550 H   0  0  0  0  0  0  0  0  0  0  0  0
   -1.4216   -7.9900   31.1773 H   0  0  0  0  0  0  0  0  0  0  0  0
   -2.0350   -6.4653   31.4401 H   0  0  0  0  0  0  0  0  0  0  0  0
   -0.5754   -8.5039   28.1447 H   0  0  0  0  0  0  0  0  0  0  0  0
   -0.1031   -7.9587   29.7067 H   0  0  0  0  0  0  0  0  0  0  0  0
   -1.1409   -9.2072   29.5729 H   0  0  0  0  0  0  0  0  0  0  0  0
   -2.1495   -3.6588   29.0624 H   0  0  0  0  0  0  0  0  0  0  0  0
   -1.3766   -3.9176   30.5341 H   0  0  0  0  0  0  0  0  0  0  0  0
   -0.1895   -3.1163   27.8362 H   0  0  0  0  0  0  0  0  0  0  0  0
   -0.3116   -2.1748   29.3047 H   0  0  0  0  0  0  0  0  0  0  0  0
    1.8821   -2.7992   29.5558 H   0  0  0  0  0  0  0  0  0  0  0  0
    1.7063   -4.2204   28.5326 H   0  0  0  0  0  0  0  0  0  0  0  0
    0.6617   -3.9671   31.3996 H   0  0  0  0  0  0  0  0  0  0  0  0
    2.0749   -4.8770   30.8983 H   0  0  0  0  0  0  0  0  0  0  0  0
   -0.1246   -6.1601   31.2364 H   0  0  0  0  0  0  0  0  0  0  0  0
    0.9364   -6.4873   29.8596 H   0  0  0  0  0  0  0  0  0  0  0  0
   -7.0437  -13.8571   28.2994 H   0  0  0  0  0  0  0  0  0  0  0  0
   -6.2301  -19.5010   26.5964 H   0  0  0  0  0  0  0  0  0  0  0  0
   -7.8080  -21.8405   27.7563 H   0  0  0  0  0  0  0  0  0  0  0  0
   -9.9252  -20.1326   28.3371 H   0  0  0  0  0  0  0  0  0  0  0  0
  1  2  1  0
  2  3  1  0
  3  4  1  0
  4  5  1  0
  5  6  1  0
  6  7  2  0
  6  8  1  0
  8  9  1  0
  8 10  1  0
  8 11  1  0
 11 12  1  0
 12 13  1  0
 13 14  1  0
 14 15  1  0
 15 16  1  0
  3 17  1  0
 17 18  1  0
 18 19  2  0
 18 20  1  0
 20 21  1  0
 21 22  2  0
 22 23  1  0
 23 24  1  0
 16 11  1  0
 24 20  2  0
  1 25  1  0
  1 26  1  0
  1 27  1  0
  2 28  1  0
  2 29  1  0
  3 30  1  0
  4 31  1  0
  4 32  1  0
  5 33  1  0
  9 34  1  0
  9 35  1  0
  9 36  1  0
 10 37  1  0
 10 38  1  0
 10 39  1  0
 12 40  1  0
 12 41  1  0
 13 42  1  0
 13 43  1  0
 14 44  1  0
 14 45  1  0
 15 46  1  0
 15 47  1  0
 16 48  1  0
 16 49  1  0
 17 50  1  0
 21 51  1  0
 22 52  1  0
 23 53  1  0
M  END
>  <Energy>  (719) 
1750.4745432435632

>  <compound_id>  (719) 
35638

>  <target_id>  (719) 
1

>  <reference_id>  (719) 
44

>  <inspiration_ids>  (719) 
[44, 96]

>  <energy_score>  (719) 
1605.6891646545132

>  <distance_score>  (719) 
7.2595439442944905

>  <path>  (719) 
/opt/xchem-fragalysis-2/maxwin/BulkDock/SCRATCH/511013/C35638-P44/C35638-P44.minimised.mol

>  <scratch_subdir>  (719) 
/opt/xchem-fragalysis-2/maxwin/BulkDock/SCRATCH/511013/C35638-P44

>  <fragmenstein_runtime>  (719) 
30.73243474960327

>  <fragmenstein_outcome>  (719) 
too moved

>  <fragmenstein_mode>  (719) 
expansion

>  <fragmenstein_error>  (719) 


$$$$
C35638-P96
     RDKit          3D

 53 54  0  0  0  0  0  0  0  0999 V2000
   -7.7551  -12.1221   25.5082 C   0  0  0  0  0  0  0  0  0  0  0  0
   -8.6124  -13.1589   26.1014 C   0  0  0  0  0  0  0  0  0  0  0  0
   -7.7333  -13.6113   27.2309 C   0  0  0  0  0  0  0  0  0  0  0  0
   -6.4822  -12.3358   28.3227 C   0  0  0  0  0  0  0  0  0  0  0  0
   -5.6340  -10.6461   28.8569 N   0  0  0  0  0  0  0  0  0  0  0  0
   -4.2303   -9.8137   28.2574 C   0  0  0  0  0  0  0  0  0  0  0  0
   -3.6123  -10.1695   27.3105 O   0  0  0  0  0  0  0  0  0  0  0  0
   -3.3172   -8.1753   29.1173 C   0  0  0  0  0  0  0  0  0  0  0  0
   -4.5162   -7.2979   30.0179 C   0  0  0  0  0  0  0  0  0  0  0  0
   -1.9706   -7.9061   27.9577 C   0  0  0  0  0  0  0  0  0  0  0  0
   -2.9755   -6.3398   29.1811 N   0  0  0  0  0  0  0  0  0  0  0  0
   -2.5611   -5.2570   28.1500 C   0  0  0  0  0  0  0  0  0  0  0  0
   -1.6861   -4.0578   28.5492 C   0  0  0  0  0  0  0  0  0  0  0  0
   -2.0719   -3.4146   29.8632 C   0  0  0  0  0  0  0  0  0  0  0  0
   -2.4004   -4.4471   30.9335 C   0  0  0  0  0  0  0  0  0  0  0  0
   -2.2668   -5.9006   30.4536 C   0  0  0  0  0  0  0  0  0  0  0  0
   -7.7900  -15.6038   27.4883 N   0  0  0  0  0  0  0  0  0  0  0  0
   -8.9904  -16.7900   27.0969 C   0  0  0  0  0  0  0  0  0  0  0  0
   -9.9827  -16.5230   26.4411 O   0  0  0  0  0  0  0  0  0  0  0  0
   -8.9281  -18.5737   27.9127 C   0  0  0  0  0  0  0  0  0  0  0  0
   -9.5473  -20.3104   28.0774 C   0  0  0  0  0  0  0  0  0  0  0  0
  -10.7568  -20.8142   28.4595 C   0  0  0  0  0  0  0  0  0  0  0  0
  -10.7791  -19.9278   29.4319 N   0  0  0  0  0  0  0  0  0  0  0  0
   -9.8504  -18.9190   29.3622 N   0  0  0  0  0  0  0  0  0  0  0  0
   -7.3311  -12.7227   24.7498 H   0  0  0  0  0  0  0  0  0  0  0  0
   -8.0829  -11.2611   24.9327 H   0  0  0  0  0  0  0  0  0  0  0  0
   -7.1257  -11.6672   26.2094 H   0  0  0  0  0  0  0  0  0  0  0  0
   -9.6004  -12.7829   26.3755 H   0  0  0  0  0  0  0  0  0  0  0  0
   -8.7855  -14.0264   25.4505 H   0  0  0  0  0  0  0  0  0  0  0  0
   -8.6120  -13.2946   27.7913 H   0  0  0  0  0  0  0  0  0  0  0  0
   -7.1522  -12.1412   29.1630 H   0  0  0  0  0  0  0  0  0  0  0  0
   -5.9231  -13.0725   28.9069 H   0  0  0  0  0  0  0  0  0  0  0  0
   -5.9330  -10.2068   29.7093 H   0  0  0  0  0  0  0  0  0  0  0  0
   -5.0271   -6.4794   29.5015 H   0  0  0  0  0  0  0  0  0  0  0  0
   -4.2364   -6.8832   30.9920 H   0  0  0  0  0  0  0  0  0  0  0  0
   -5.3743   -7.9305   30.2772 H   0  0  0  0  0  0  0  0  0  0  0  0
   -1.1021   -8.5127   28.0251 H   0  0  0  0  0  0  0  0  0  0  0  0
   -2.1638   -8.0866   26.9068 H   0  0  0  0  0  0  0  0  0  0  0  0
   -1.3602   -7.0132   28.0292 H   0  0  0  0  0  0  0  0  0  0  0  0
   -2.1381   -5.6040   27.1967 H   0  0  0  0  0  0  0  0  0  0  0  0
   -3.5101   -4.8640   27.8601 H   0  0  0  0  0  0  0  0  0  0  0  0
   -0.6460   -4.3836   28.5971 H   0  0  0  0  0  0  0  0  0  0  0  0
   -1.7179   -3.3015   27.7556 H   0  0  0  0  0  0  0  0  0  0  0  0
   -2.9127   -2.7388   29.7133 H   0  0  0  0  0  0  0  0  0  0  0  0
   -1.2506   -2.7737   30.2071 H   0  0  0  0  0  0  0  0  0  0  0  0
   -3.3637   -4.2692   31.3901 H   0  0  0  0  0  0  0  0  0  0  0  0
   -1.6903   -4.3046   31.7608 H   0  0  0  0  0  0  0  0  0  0  0  0
   -2.3972   -6.5939   31.2899 H   0  0  0  0  0  0  0  0  0  0  0  0
   -1.2232   -5.8875   30.2559 H   0  0  0  0  0  0  0  0  0  0  0  0
   -7.0005  -16.0842   27.9613 H   0  0  0  0  0  0  0  0  0  0  0  0
   -8.7428  -21.0444   28.2958 H   0  0  0  0  0  0  0  0  0  0  0  0
  -11.2039  -21.7930   28.5281 H   0  0  0  0  0  0  0  0  0  0  0  0
  -11.3390  -19.9712   30.2741 H   0  0  0  0  0  0  0  0  0  0  0  0
  1  2  1  0
  2  3  1  0
  3  4  1  0
  4  5  1  0
  5  6  1  0
  6  7  2  0
  6  8  1  0
  8  9  1  0
  8 10  1  0
  8 11  1  0
 11 12  1  0
 12 13  1  0
 13 14  1  0
 14 15  1  0
 15 16  1  0
  3 17  1  0
 17 18  1  0
 18 19  2  0
 18 20  1  0
 20 21  1  0
 21 22  2  0
 22 23  1  0
 23 24  1  0
 16 11  1  0
 24 20  2  0
  1 25  1  0
  1 26  1  0
  1 27  1  0
  2 28  1  0
  2 29  1  0
  3 30  1  0
  4 31  1  0
  4 32  1  0
  5 33  1  0
  9 34  1  0
  9 35  1  0
  9 36  1  0
 10 37  1  0
 10 38  1  0
 10 39  1  0
 12 40  1  0
 12 41  1  0
 13 42  1  0
 13 43  1  0
 14 44  1  0
 14 45  1  0
 15 46  1  0
 15 47  1  0
 16 48  1  0
 16 49  1  0
 17 50  1  0
 21 51  1  0
 22 52  1  0
 23 53  1  0
M  END
>  <Energy>  (720) 
1119.6200416222682

>  <compound_id>  (720) 
35638

>  <target_id>  (720) 
1

>  <reference_id>  (720) 
96

>  <inspiration_ids>  (720) 
[44, 96]

>  <energy_score>  (720) 
974.8346630331957

>  <distance_score>  (720) 
7.203916154702386

>  <path>  (720) 
/opt/xchem-fragalysis-2/maxwin/BulkDock/SCRATCH/511013/C35638-P96/C35638-P96.minimised.mol

>  <scratch_subdir>  (720) 
/opt/xchem-fragalysis-2/maxwin/BulkDock/SCRATCH/511013/C35638-P96

>  <fragmenstein_runtime>  (720) 
16.589438915252686

>  <fragmenstein_outcome>  (720) 
too moved

>  <fragmenstein_mode>  (720) 
expansion

>  <fragmenstein_error>  (720) 


$$$$
C35639-P44
     RDKit          3D

 42 43  0  0  0  0  0  0  0  0999 V2000
   -6.5129  -13.6140   31.0819 C   0  0  0  0  0  0  0  0  0  0  0  0
   -6.6881  -11.8301   31.5292 C   0  0  0  0  0  0  0  0  0  0  0  0
   -6.5997  -10.4377   30.1031 O   0  0  0  0  0  0  0  0  0  0  0  0
   -7.2749   -9.5595   28.7515 C   0  0  0  0  0  0  0  0  0  0  0  0
   -8.4929   -9.2935   28.9170 O   0  0  0  0  0  0  0  0  0  0  0  0
   -6.5693   -9.0462   26.9089 C   0  0  0  0  0  0  0  0  0  0  0  0
   -6.3727   -7.7606   25.4674 C   0  0  0  0  0  0  0  0  0  0  0  0
   -5.2362   -7.4423   24.0354 C   0  0  0  0  0  0  0  0  0  0  0  0
   -3.6533   -7.3975   24.0792 C   0  0  0  0  0  0  0  0  0  0  0  0
   -2.8375   -6.0973   23.4919 C   0  0  0  0  0  0  0  0  0  0  0  0
   -3.5029   -4.7291   23.5042 N   0  0  0  0  0  0  0  0  0  0  0  0
   -2.9121   -3.0471   24.1468 C   0  0  0  0  0  0  0  0  0  0  0  0
   -2.9573   -1.9133   25.6938 C   0  0  0  0  0  0  0  0  0  0  0  0
   -2.7578   -0.3896   25.9232 C   0  0  0  0  0  0  0  0  0  0  0  0
   -2.1988   -0.0928   27.1471 C   0  0  0  0  0  0  0  0  0  0  0  0
   -2.0546   -1.3013   27.6695 N   0  0  0  0  0  0  0  0  0  0  0  0
   -2.4130   -2.2675   26.8651 N   0  0  0  0  0  0  0  0  0  0  0  0
   -4.7576   -4.9100   22.6784 C   0  0  0  0  0  0  0  0  0  0  0  0
   -5.6498   -6.2945   22.9581 C   0  0  0  0  0  0  0  0  0  0  0  0
   -7.4013  -14.1835   31.3116 H   0  0  0  0  0  0  0  0  0  0  0  0
   -6.2466  -13.7602   30.0344 H   0  0  0  0  0  0  0  0  0  0  0  0
   -5.8095  -14.2132   31.6434 H   0  0  0  0  0  0  0  0  0  0  0  0
   -7.6328  -11.6895   32.0914 H   0  0  0  0  0  0  0  0  0  0  0  0
   -5.9555  -11.5219   32.2999 H   0  0  0  0  0  0  0  0  0  0  0  0
   -6.3402   -9.9243   26.3162 H   0  0  0  0  0  0  0  0  0  0  0  0
   -7.6280   -9.1260   26.5520 H   0  0  0  0  0  0  0  0  0  0  0  0
   -6.6939   -6.7580   25.7664 H   0  0  0  0  0  0  0  0  0  0  0  0
   -7.2346   -8.0951   24.8612 H   0  0  0  0  0  0  0  0  0  0  0  0
   -5.4584   -8.3737   23.4868 H   0  0  0  0  0  0  0  0  0  0  0  0
   -3.3058   -8.2367   23.4577 H   0  0  0  0  0  0  0  0  0  0  0  0
   -3.2819   -7.6525   25.0777 H   0  0  0  0  0  0  0  0  0  0  0  0
   -2.6063   -6.4009   22.4632 H   0  0  0  0  0  0  0  0  0  0  0  0
   -1.8766   -6.0395   23.9958 H   0  0  0  0  0  0  0  0  0  0  0  0
   -2.2940   -2.5465   23.3990 H   0  0  0  0  0  0  0  0  0  0  0  0
   -3.7765   -2.6180   23.8059 H   0  0  0  0  0  0  0  0  0  0  0  0
   -3.0129    0.4875   25.3707 H   0  0  0  0  0  0  0  0  0  0  0  0
   -1.9423    0.8323   27.6393 H   0  0  0  0  0  0  0  0  0  0  0  0
   -1.6756   -1.5703   28.5676 H   0  0  0  0  0  0  0  0  0  0  0  0
   -5.4301   -4.0451   22.7457 H   0  0  0  0  0  0  0  0  0  0  0  0
   -4.5144   -4.9443   21.6105 H   0  0  0  0  0  0  0  0  0  0  0  0
   -5.6425   -6.8068   21.9840 H   0  0  0  0  0  0  0  0  0  0  0  0
   -6.7010   -6.0199   23.1157 H   0  0  0  0  0  0  0  0  0  0  0  0
  1  2  1  0
  2  3  1  0
  3  4  1  0
  4  5  2  0
  4  6  1  0
  6  7  1  0
  7  8  1  0
  8  9  1  0
  9 10  1  0
 10 11  1  0
 11 12  1  0
 12 13  1  0
 13 14  1  0
 14 15  2  0
 15 16  1  0
 16 17  1  0
 11 18  1  0
 18 19  1  0
 19  8  1  0
 17 13  2  0
  1 20  1  0
  1 21  1  0
  1 22  1  0
  2 23  1  0
  2 24  1  0
  6 25  1  0
  6 26  1  0
  7 27  1  0
  7 28  1  0
  8 29  1  0
  9 30  1  0
  9 31  1  0
 10 32  1  0
 10 33  1  0
 12 34  1  0
 12 35  1  0
 14 36  1  0
 15 37  1  0
 16 38  1  0
 18 39  1  0
 18 40  1  0
 19 41  1  0
 19 42  1  0
M  END
>  <Energy>  (721) 
665.20565342103964

>  <compound_id>  (721) 
35639

>  <target_id>  (721) 
1

>  <reference_id>  (721) 
44

>  <inspiration_ids>  (721) 
[44, 96]

>  <energy_score>  (721) 
581.2911081670824

>  <distance_score>  (721) 
10.783748397500213

>  <path>  (721) 
/opt/xchem-fragalysis-2/maxwin/BulkDock/SCRATCH/511013/C35639-P44/C35639-P44.minimised.mol

>  <scratch_subdir>  (721) 
/opt/xchem-fragalysis-2/maxwin/BulkDock/SCRATCH/511013/C35639-P44

>  <fragmenstein_runtime>  (721) 
34.6913685798645

>  <fragmenstein_outcome>  (721) 
too moved

>  <fragmenstein_mode>  (721) 
expansion

>  <fragmenstein_error>  (721) 


$$$$
C35639-P96
     RDKit          3D

 42 43  0  0  0  0  0  0  0  0999 V2000
   -7.5937  -13.3906   31.9277 C   0  0  0  0  0  0  0  0  0  0  0  0
   -7.4234  -12.3074   30.3444 C   0  0  0  0  0  0  0  0  0  0  0  0
   -7.0704  -10.5377   30.3821 O   0  0  0  0  0  0  0  0  0  0  0  0
   -5.9541   -9.6975   29.6579 C   0  0  0  0  0  0  0  0  0  0  0  0
   -5.3342  -10.2141   28.7268 O   0  0  0  0  0  0  0  0  0  0  0  0
   -5.6134   -8.0179   30.3516 C   0  0  0  0  0  0  0  0  0  0  0  0
   -4.5153   -6.7742   30.3955 C   0  0  0  0  0  0  0  0  0  0  0  0
   -2.9542   -6.3853   30.5063 C   0  0  0  0  0  0  0  0  0  0  0  0
   -2.4048   -5.6721   29.2338 C   0  0  0  0  0  0  0  0  0  0  0  0
   -1.7645   -4.2878   29.2283 C   0  0  0  0  0  0  0  0  0  0  0  0
   -2.2610   -3.4570   30.3162 N   0  0  0  0  0  0  0  0  0  0  0  0
   -1.5747   -2.1272   30.2863 C   0  0  0  0  0  0  0  0  0  0  0  0
   -1.9023   -1.3443   29.0387 C   0  0  0  0  0  0  0  0  0  0  0  0
   -3.0641   -0.5755   28.7793 C   0  0  0  0  0  0  0  0  0  0  0  0
   -2.9056   -0.1039   27.4998 C   0  0  0  0  0  0  0  0  0  0  0  0
   -1.7078   -0.5882   27.0667 N   0  0  0  0  0  0  0  0  0  0  0  0
   -1.0587   -1.3162   27.9916 N   0  0  0  0  0  0  0  0  0  0  0  0
   -1.9102   -4.1462   31.5631 C   0  0  0  0  0  0  0  0  0  0  0  0
   -2.6703   -5.4759   31.7559 C   0  0  0  0  0  0  0  0  0  0  0  0
   -6.8743  -14.2347   31.9790 H   0  0  0  0  0  0  0  0  0  0  0  0
   -8.6145  -13.7673   31.9998 H   0  0  0  0  0  0  0  0  0  0  0  0
   -7.2139  -12.9624   32.8665 H   0  0  0  0  0  0  0  0  0  0  0  0
   -6.6115  -12.5987   29.6643 H   0  0  0  0  0  0  0  0  0  0  0  0
   -8.3829  -12.5602   29.9542 H   0  0  0  0  0  0  0  0  0  0  0  0
   -6.1387   -7.9179   31.2813 H   0  0  0  0  0  0  0  0  0  0  0  0
   -6.2431   -7.4931   29.6860 H   0  0  0  0  0  0  0  0  0  0  0  0
   -4.8672   -6.4080   31.3669 H   0  0  0  0  0  0  0  0  0  0  0  0
   -4.9134   -6.1171   29.6448 H   0  0  0  0  0  0  0  0  0  0  0  0
   -2.4033   -7.3181   30.6415 H   0  0  0  0  0  0  0  0  0  0  0  0
   -1.7472   -6.3652   28.6953 H   0  0  0  0  0  0  0  0  0  0  0  0
   -3.2455   -5.4673   28.6037 H   0  0  0  0  0  0  0  0  0  0  0  0
   -2.0150   -3.8377   28.2595 H   0  0  0  0  0  0  0  0  0  0  0  0
   -0.6850   -4.3573   29.2128 H   0  0  0  0  0  0  0  0  0  0  0  0
   -0.4862   -2.2438   30.3766 H   0  0  0  0  0  0  0  0  0  0  0  0
   -1.9056   -1.5345   31.1487 H   0  0  0  0  0  0  0  0  0  0  0  0
   -3.9082   -0.4199   29.4371 H   0  0  0  0  0  0  0  0  0  0  0  0
   -3.5315    0.5020   26.8618 H   0  0  0  0  0  0  0  0  0  0  0  0
   -1.2739   -0.4615   26.1574 H   0  0  0  0  0  0  0  0  0  0  0  0
   -0.8323   -4.3360   31.6292 H   0  0  0  0  0  0  0  0  0  0  0  0
   -2.1544   -3.5064   32.4214 H   0  0  0  0  0  0  0  0  0  0  0  0
   -2.0990   -6.0803   32.4743 H   0  0  0  0  0  0  0  0  0  0  0  0
   -3.5956   -5.2371   32.2900 H   0  0  0  0  0  0  0  0  0  0  0  0
  1  2  1  0
  2  3  1  0
  3  4  1  0
  4  5  2  0
  4  6  1  0
  6  7  1  0
  7  8  1  0
  8  9  1  0
  9 10  1  0
 10 11  1  0
 11 12  1  0
 12 13  1  0
 13 14  1  0
 14 15  2  0
 15 16  1  0
 16 17  1  0
 11 18  1  0
 18 19  1  0
 19  8  1  0
 17 13  2  0
  1 20  1  0
  1 21  1  0
  1 22  1  0
  2 23  1  0
  2 24  1  0
  6 25  1  0
  6 26  1  0
  7 27  1  0
  7 28  1  0
  8 29  1  0
  9 30  1  0
  9 31  1  0
 10 32  1  0
 10 33  1  0
 12 34  1  0
 12 35  1  0
 14 36  1  0
 15 37  1  0
 16 38  1  0
 18 39  1  0
 18 40  1  0
 19 41  1  0
 19 42  1  0
M  END
>  <Energy>  (722) 
246.48276358801826

>  <compound_id>  (722) 
35639

>  <target_id>  (722) 
1

>  <reference_id>  (722) 
96

>  <inspiration_ids>  (722) 
[44, 96]

>  <energy_score>  (722) 
162.56821833406957

>  <distance_score>  (722) 
9.721510078727029

>  <path>  (722) 
/opt/xchem-fragalysis-2/maxwin/BulkDock/SCRATCH/511013/C35639-P96/C35639-P96.minimised.mol

>  <scratch_subdir>  (722) 
/opt/xchem-fragalysis-2/maxwin/BulkDock/SCRATCH/511013/C35639-P96

>  <fragmenstein_runtime>  (722) 
21.8289475440979

>  <fragmenstein_outcome>  (722) 
too moved

>  <fragmenstein_mode>  (722) 
expansion

>  <fragmenstein_error>  (722) 


$$$$
C35640-P44
     RDKit          3D

 41 42  0  0  0  0  0  0  0  0999 V2000
   -9.7582  -13.8804   34.2155 C   0  0  0  0  0  0  0  0  0  0  0  0
   -8.7535  -12.6985   34.2994 C   0  0  0  0  0  0  0  0  0  0  0  0
   -8.4552  -11.7144   32.9729 O   0  0  0  0  0  0  0  0  0  0  0  0
   -9.3617  -10.5521   32.2278 C   0  0  0  0  0  0  0  0  0  0  0  0
   -9.5711  -10.6593   31.0246 O   0  0  0  0  0  0  0  0  0  0  0  0
  -10.2927   -8.9066   33.1801 C   0  0  0  0  0  0  0  0  0  0  0  0
   -9.7617   -7.2218   32.9969 C   0  0  0  0  0  0  0  0  0  0  0  0
   -9.8785   -6.1398   34.0768 C   0  0  0  0  0  0  0  0  0  0  0  0
   -9.4412   -4.7918   33.4593 C   0  0  0  0  0  0  0  0  0  0  0  0
   -8.9409   -3.8024   34.5192 C   0  0  0  0  0  0  0  0  0  0  0  0
   -7.6666   -4.2318   35.2418 N   0  0  0  0  0  0  0  0  0  0  0  0
   -6.9301   -3.0835   35.6624 C   0  0  0  0  0  0  0  0  0  0  0  0
   -6.9690   -2.4660   36.6920 O   0  0  0  0  0  0  0  0  0  0  0  0
   -5.9104   -2.7349   34.6180 C   0  0  0  0  0  0  0  0  0  0  0  0
   -5.6088   -3.4445   33.4144 C   0  0  0  0  0  0  0  0  0  0  0  0
   -4.5408   -2.7921   32.8515 C   0  0  0  0  0  0  0  0  0  0  0  0
   -4.2483   -1.7690   33.6987 N   0  0  0  0  0  0  0  0  0  0  0  0
   -5.0880   -1.6717   34.7372 N   0  0  0  0  0  0  0  0  0  0  0  0
   -8.6371   -5.0979   35.9857 C   0  0  0  0  0  0  0  0  0  0  0  0
   -8.9579   -6.4034   35.2567 C   0  0  0  0  0  0  0  0  0  0  0  0
  -10.7987  -13.6017   34.3850 H   0  0  0  0  0  0  0  0  0  0  0  0
   -9.5518  -14.5898   35.0260 H   0  0  0  0  0  0  0  0  0  0  0  0
   -9.6699  -14.4027   33.2679 H   0  0  0  0  0  0  0  0  0  0  0  0
   -7.9043  -13.2145   34.5912 H   0  0  0  0  0  0  0  0  0  0  0  0
   -8.7886  -12.0658   35.2046 H   0  0  0  0  0  0  0  0  0  0  0  0
  -10.3990   -9.0282   34.2843 H   0  0  0  0  0  0  0  0  0  0  0  0
  -11.3062   -8.7213   32.8241 H   0  0  0  0  0  0  0  0  0  0  0  0
   -8.6950   -7.1894   32.7785 H   0  0  0  0  0  0  0  0  0  0  0  0
  -10.3051   -6.8528   32.1135 H   0  0  0  0  0  0  0  0  0  0  0  0
  -10.9152   -6.0602   34.4240 H   0  0  0  0  0  0  0  0  0  0  0  0
   -8.6328   -4.9476   32.7326 H   0  0  0  0  0  0  0  0  0  0  0  0
  -10.2791   -4.3535   32.9042 H   0  0  0  0  0  0  0  0  0  0  0  0
   -8.6331   -2.9236   33.9288 H   0  0  0  0  0  0  0  0  0  0  0  0
   -9.7291   -3.3491   35.1453 H   0  0  0  0  0  0  0  0  0  0  0  0
   -6.0954   -4.3332   33.0406 H   0  0  0  0  0  0  0  0  0  0  0  0
   -3.9587   -2.9713   31.9587 H   0  0  0  0  0  0  0  0  0  0  0  0
   -3.4887   -1.0996   33.6327 H   0  0  0  0  0  0  0  0  0  0  0  0
   -8.0275   -5.4087   36.8496 H   0  0  0  0  0  0  0  0  0  0  0  0
   -9.4782   -4.6144   36.5104 H   0  0  0  0  0  0  0  0  0  0  0  0
   -8.0183   -6.8658   34.9284 H   0  0  0  0  0  0  0  0  0  0  0  0
   -9.4334   -7.1123   35.9444 H   0  0  0  0  0  0  0  0  0  0  0  0
  1  2  1  0
  2  3  1  0
  3  4  1  0
  4  5  2  0
  4  6  1  0
  6  7  1  0
  7  8  1  0
  8  9  1  0
  9 10  1  0
 10 11  1  0
 11 12  1  0
 12 13  2  0
 12 14  1  0
 14 15  1  0
 15 16  2  0
 16 17  1  0
 17 18  1  0
 11 19  1  0
 19 20  1  0
 20  8  1  0
 18 14  2  0
  1 21  1  0
  1 22  1  0
  1 23  1  0
  2 24  1  0
  2 25  1  0
  6 26  1  0
  6 27  1  0
  7 28  1  0
  7 29  1  0
  8 30  1  0
  9 31  1  0
  9 32  1  0
 10 33  1  0
 10 34  1  0
 15 35  1  0
 16 36  1  0
 17 37  1  0
 19 38  1  0
 19 39  1  0
 20 40  1  0
 20 41  1  0
M  END
>  <Energy>  (723) 
310.84552757080291

>  <compound_id>  (723) 
35640

>  <target_id>  (723) 
1

>  <reference_id>  (723) 
44

>  <inspiration_ids>  (723) 
[44, 96]

>  <energy_score>  (723) 
229.8391025754712

>  <distance_score>  (723) 
12.158775232700403

>  <path>  (723) 
/opt/xchem-fragalysis-2/maxwin/BulkDock/SCRATCH/511013/C35640-P44/C35640-P44.minimised.mol

>  <scratch_subdir>  (723) 
/opt/xchem-fragalysis-2/maxwin/BulkDock/SCRATCH/511013/C35640-P44

>  <fragmenstein_runtime>  (723) 
23.93782353401184

>  <fragmenstein_outcome>  (723) 
too moved

>  <fragmenstein_mode>  (723) 
expansion

>  <fragmenstein_error>  (723) 


$$$$
C35640-P96
     RDKit          3D

 41 42  0  0  0  0  0  0  0  0999 V2000
   -6.2372  -11.7474   28.9543 C   0  0  0  0  0  0  0  0  0  0  0  0
   -5.4377  -10.2057   28.9274 C   0  0  0  0  0  0  0  0  0  0  0  0
   -5.8170   -8.8263   29.9519 O   0  0  0  0  0  0  0  0  0  0  0  0
   -4.8434   -7.5420   30.1810 C   0  0  0  0  0  0  0  0  0  0  0  0
   -3.7277   -7.4740   29.6570 O   0  0  0  0  0  0  0  0  0  0  0  0
   -5.3757   -6.3781   31.0523 C   0  0  0  0  0  0  0  0  0  0  0  0
   -4.5054   -5.3313   31.7922 C   0  0  0  0  0  0  0  0  0  0  0  0
   -3.1582   -5.0030   31.1542 C   0  0  0  0  0  0  0  0  0  0  0  0
   -2.1814   -5.9091   31.8371 C   0  0  0  0  0  0  0  0  0  0  0  0
   -1.6699   -5.3037   33.1776 C   0  0  0  0  0  0  0  0  0  0  0  0
   -2.6279   -4.4274   33.9330 N   0  0  0  0  0  0  0  0  0  0  0  0
   -2.3462   -4.4845   35.3319 C   0  0  0  0  0  0  0  0  0  0  0  0
   -1.6259   -3.8014   36.0131 O   0  0  0  0  0  0  0  0  0  0  0  0
   -3.1117   -5.5759   36.0098 C   0  0  0  0  0  0  0  0  0  0  0  0
   -3.1117   -5.8271   37.4135 C   0  0  0  0  0  0  0  0  0  0  0  0
   -3.9138   -6.9249   37.5970 C   0  0  0  0  0  0  0  0  0  0  0  0
   -4.3415   -7.2772   36.3554 N   0  0  0  0  0  0  0  0  0  0  0  0
   -3.8828   -6.4858   35.3756 N   0  0  0  0  0  0  0  0  0  0  0  0
   -2.2048   -3.4297   32.8831 C   0  0  0  0  0  0  0  0  0  0  0  0
   -2.4686   -3.6709   31.3906 C   0  0  0  0  0  0  0  0  0  0  0  0
   -5.7104  -12.6679   28.9932 H   0  0  0  0  0  0  0  0  0  0  0  0
   -6.7745  -11.9480   28.0210 H   0  0  0  0  0  0  0  0  0  0  0  0
   -6.9764  -11.8205   29.7476 H   0  0  0  0  0  0  0  0  0  0  0  0
   -5.8853   -9.9243   28.0078 H   0  0  0  0  0  0  0  0  0  0  0  0
   -4.4035  -10.1543   28.5820 H   0  0  0  0  0  0  0  0  0  0  0  0
   -6.0649   -6.7745   31.7995 H   0  0  0  0  0  0  0  0  0  0  0  0
   -5.8680   -5.7395   30.3251 H   0  0  0  0  0  0  0  0  0  0  0  0
   -5.0953   -4.4270   31.9673 H   0  0  0  0  0  0  0  0  0  0  0  0
   -4.3790   -5.7456   32.7980 H   0  0  0  0  0  0  0  0  0  0  0  0
   -3.1924   -5.1766   30.0751 H   0  0  0  0  0  0  0  0  0  0  0  0
   -1.3809   -5.9921   31.1134 H   0  0  0  0  0  0  0  0  0  0  0  0
   -2.5670   -6.9200   32.0040 H   0  0  0  0  0  0  0  0  0  0  0  0
   -1.5190   -6.1854   33.8216 H   0  0  0  0  0  0  0  0  0  0  0  0
   -0.6472   -4.8935   33.1621 H   0  0  0  0  0  0  0  0  0  0  0  0
   -2.5813   -5.2657   38.1704 H   0  0  0  0  0  0  0  0  0  0  0  0
   -4.2051   -7.4747   38.4801 H   0  0  0  0  0  0  0  0  0  0  0  0
   -4.9457   -8.0504   36.1017 H   0  0  0  0  0  0  0  0  0  0  0  0
   -2.8490   -2.5822   33.1365 H   0  0  0  0  0  0  0  0  0  0  0  0
   -1.2053   -3.0060   33.0817 H   0  0  0  0  0  0  0  0  0  0  0  0
   -1.4841   -3.6978   30.8952 H   0  0  0  0  0  0  0  0  0  0  0  0
   -2.9313   -2.8331   30.8886 H   0  0  0  0  0  0  0  0  0  0  0  0
  1  2  1  0
  2  3  1  0
  3  4  1  0
  4  5  2  0
  4  6  1  0
  6  7  1  0
  7  8  1  0
  8  9  1  0
  9 10  1  0
 10 11  1  0
 11 12  1  0
 12 13  2  0
 12 14  1  0
 14 15  1  0
 15 16  2  0
 16 17  1  0
 17 18  1  0
 11 19  1  0
 19 20  1  0
 20  8  1  0
 18 14  2  0
  1 21  1  0
  1 22  1  0
  1 23  1  0
  2 24  1  0
  2 25  1  0
  6 26  1  0
  6 27  1  0
  7 28  1  0
  7 29  1  0
  8 30  1  0
  9 31  1  0
  9 32  1  0
 10 33  1  0
 10 34  1  0
 15 35  1  0
 16 36  1  0
 17 37  1  0
 19 38  1  0
 19 39  1  0
 20 40  1  0
 20 41  1  0
M  END
>  <Energy>  (724) 
223.47880205783358

>  <compound_id>  (724) 
35640

>  <target_id>  (724) 
1

>  <reference_id>  (724) 
96

>  <inspiration_ids>  (724) 
[44, 96]

>  <energy_score>  (724) 
142.47237706250377

>  <distance_score>  (724) 
11.813288611374219

>  <path>  (724) 
/opt/xchem-fragalysis-2/maxwin/BulkDock/SCRATCH/511013/C35640-P96/C35640-P96.minimised.mol

>  <scratch_subdir>  (724) 
/opt/xchem-fragalysis-2/maxwin/BulkDock/SCRATCH/511013/C35640-P96

>  <fragmenstein_runtime>  (724) 
24.470097303390503

>  <fragmenstein_outcome>  (724) 
too moved

>  <fragmenstein_mode>  (724) 
expansion

>  <fragmenstein_error>  (724) 


$$$$
C35641-P44
     RDKit          3D

 48 49  0  0  0  0  0  0  0  0999 V2000
   -0.9484   -4.7480   31.4076 C   0  0  0  0  0  0  0  0  0  0  0  0
   -1.7829   -3.5621   30.8781 C   0  0  0  0  0  0  0  0  0  0  0  0
   -0.8407   -2.3439   31.0329 C   0  0  0  0  0  0  0  0  0  0  0  0
   -1.6363   -0.7615   31.1621 S   0  0  0  0  0  0  0  0  0  0  0  0
   -0.2535    0.2730   31.5894 C   0  0  0  0  0  0  0  0  0  0  0  0
   -2.5295   -0.7852   32.3081 O   0  0  0  0  0  0  0  0  0  0  0  0
   -2.1030   -0.3241   29.8674 O   0  0  0  0  0  0  0  0  0  0  0  0
   -2.0801   -3.6443   29.3532 C   0  0  0  0  0  0  0  0  0  0  0  0
   -1.2127   -4.0818   28.6314 O   0  0  0  0  0  0  0  0  0  0  0  0
   -3.4993   -3.0022   29.0074 N   0  0  0  0  0  0  0  0  0  0  0  0
   -4.0777   -2.6546   27.6784 C   0  0  0  0  0  0  0  0  0  0  0  0
   -5.3698   -2.9569   27.2639 C   0  0  0  0  0  0  0  0  0  0  0  0
   -7.1212   -3.5249   27.9876 C   0  0  0  0  0  0  0  0  0  0  0  0
   -6.5680   -5.4098   27.8984 C   0  0  0  0  0  0  0  0  0  0  0  0
   -6.9466   -6.7244   26.2092 C   0  0  0  0  0  0  0  0  0  0  0  0
   -7.2125   -8.8097   26.7747 N   0  0  0  0  0  0  0  0  0  0  0  0
   -7.2138  -10.4734   25.7578 C   0  0  0  0  0  0  0  0  0  0  0  0
   -7.1356  -10.5226   24.5519 O   0  0  0  0  0  0  0  0  0  0  0  0
   -7.3528  -12.3255   26.4891 C   0  0  0  0  0  0  0  0  0  0  0  0
   -8.7996  -13.4279   27.0193 C   0  0  0  0  0  0  0  0  0  0  0  0
   -8.4302  -14.6295   27.4931 C   0  0  0  0  0  0  0  0  0  0  0  0
   -7.2184  -14.2204   27.8020 N   0  0  0  0  0  0  0  0  0  0  0  0
   -6.6142  -13.1925   27.1080 N   0  0  0  0  0  0  0  0  0  0  0  0
   -5.2810   -4.0914   28.8639 C   0  0  0  0  0  0  0  0  0  0  0  0
    0.0198   -4.8094   30.8958 H   0  0  0  0  0  0  0  0  0  0  0  0
   -0.7508   -4.6260   32.4788 H   0  0  0  0  0  0  0  0  0  0  0  0
   -1.4205   -5.7233   31.2832 H   0  0  0  0  0  0  0  0  0  0  0  0
   -2.6899   -3.3713   31.4495 H   0  0  0  0  0  0  0  0  0  0  0  0
   -0.2710   -2.4342   31.9664 H   0  0  0  0  0  0  0  0  0  0  0  0
   -0.1223   -2.2699   30.2082 H   0  0  0  0  0  0  0  0  0  0  0  0
   -0.6009    1.2980   31.7060 H   0  0  0  0  0  0  0  0  0  0  0  0
    0.4842    0.2225   30.7861 H   0  0  0  0  0  0  0  0  0  0  0  0
    0.1750   -0.0789   32.5296 H   0  0  0  0  0  0  0  0  0  0  0  0
   -3.4289   -2.5049   26.7550 H   0  0  0  0  0  0  0  0  0  0  0  0
   -3.7440   -1.6020   27.7455 H   0  0  0  0  0  0  0  0  0  0  0  0
   -5.5689   -2.4115   28.0522 H   0  0  0  0  0  0  0  0  0  0  0  0
   -5.3680   -2.5484   26.2387 H   0  0  0  0  0  0  0  0  0  0  0  0
   -7.4601   -3.2449   28.9909 H   0  0  0  0  0  0  0  0  0  0  0  0
   -7.9240   -3.2903   27.3013 H   0  0  0  0  0  0  0  0  0  0  0  0
   -7.6310   -5.3342   28.0539 H   0  0  0  0  0  0  0  0  0  0  0  0
   -6.5904   -6.5874   25.1602 H   0  0  0  0  0  0  0  0  0  0  0  0
   -7.9315   -6.1548   26.2445 H   0  0  0  0  0  0  0  0  0  0  0  0
   -7.2017   -9.0192   27.7676 H   0  0  0  0  0  0  0  0  0  0  0  0
   -9.8171  -13.1924   26.6941 H   0  0  0  0  0  0  0  0  0  0  0  0
   -8.9361  -15.5231   27.8226 H   0  0  0  0  0  0  0  0  0  0  0  0
   -6.6637  -14.6948   28.4970 H   0  0  0  0  0  0  0  0  0  0  0  0
   -5.5692   -4.7064   29.7740 H   0  0  0  0  0  0  0  0  0  0  0  0
   -5.8043   -3.4973   29.6343 H   0  0  0  0  0  0  0  0  0  0  0  0
  1  2  1  0
  2  3  1  0
  3  4  1  0
  4  5  1  0
  4  6  2  0
  4  7  2  0
  2  8  1  0
  8  9  2  0
  8 10  1  0
 10 11  1  0
 11 12  1  0
 12 13  1  0
 13 14  1  0
 14 15  1  0
 15 16  1  0
 16 17  1  0
 17 18  2  0
 17 19  1  0
 19 20  1  0
 20 21  2  0
 21 22  1  0
 22 23  1  0
 14 24  1  0
 24 10  1  0
 23 19  2  0
  1 25  1  0
  1 26  1  0
  1 27  1  0
  2 28  1  0
  3 29  1  0
  3 30  1  0
  5 31  1  0
  5 32  1  0
  5 33  1  0
 11 34  1  0
 11 35  1  0
 12 36  1  0
 12 37  1  0
 13 38  1  0
 13 39  1  0
 14 40  1  0
 15 41  1  0
 15 42  1  0
 16 43  1  0
 20 44  1  0
 21 45  1  0
 22 46  1  0
 24 47  1  0
 24 48  1  0
M  END
>  <Energy>  (725) 
1256.8277365024137

>  <compound_id>  (725) 
35641

>  <target_id>  (725) 
1

>  <reference_id>  (725) 
44

>  <inspiration_ids>  (725) 
[44, 96]

>  <energy_score>  (725) 
1204.6557124732356

>  <distance_score>  (725) 
8.994989087514197

>  <path>  (725) 
/opt/xchem-fragalysis-2/maxwin/BulkDock/SCRATCH/511013/C35641-P44/C35641-P44.minimised.mol

>  <scratch_subdir>  (725) 
/opt/xchem-fragalysis-2/maxwin/BulkDock/SCRATCH/511013/C35641-P44

>  <fragmenstein_runtime>  (725) 
33.17764115333557

>  <fragmenstein_outcome>  (725) 
too moved

>  <fragmenstein_mode>  (725) 
expansion

>  <fragmenstein_error>  (725) 


$$$$
C35641-P96
     RDKit          3D

 48 49  0  0  0  0  0  0  0  0999 V2000
   -1.7979   -4.5069   29.1464 C   0  0  0  0  0  0  0  0  0  0  0  0
   -1.4457   -3.1810   28.4873 C   0  0  0  0  0  0  0  0  0  0  0  0
    0.0455   -2.9024   28.5493 C   0  0  0  0  0  0  0  0  0  0  0  0
    0.6891   -1.4603   27.7390 S   0  0  0  0  0  0  0  0  0  0  0  0
   -0.2419   -0.0905   28.3875 C   0  0  0  0  0  0  0  0  0  0  0  0
    2.0546   -1.3027   28.2176 O   0  0  0  0  0  0  0  0  0  0  0  0
    0.4580   -1.5690   26.3137 O   0  0  0  0  0  0  0  0  0  0  0  0
   -2.0173   -2.9951   27.0829 C   0  0  0  0  0  0  0  0  0  0  0  0
   -2.4851   -1.8945   26.8921 O   0  0  0  0  0  0  0  0  0  0  0  0
   -1.8324   -4.1002   26.1821 N   0  0  0  0  0  0  0  0  0  0  0  0
   -2.0413   -4.1965   24.7876 C   0  0  0  0  0  0  0  0  0  0  0  0
   -1.9586   -5.5029   24.1264 C   0  0  0  0  0  0  0  0  0  0  0  0
   -3.3944   -5.8755   23.8542 C   0  0  0  0  0  0  0  0  0  0  0  0
   -4.7090   -5.8673   25.1063 C   0  0  0  0  0  0  0  0  0  0  0  0
   -6.3953   -7.1562   25.3201 C   0  0  0  0  0  0  0  0  0  0  0  0
   -6.7721   -9.1548   25.1684 N   0  0  0  0  0  0  0  0  0  0  0  0
   -7.6477  -10.0392   24.0621 C   0  0  0  0  0  0  0  0  0  0  0  0
   -8.2802   -9.6236   23.1977 O   0  0  0  0  0  0  0  0  0  0  0  0
   -7.8323  -11.5783   24.1452 C   0  0  0  0  0  0  0  0  0  0  0  0
   -8.2964  -12.4448   25.1992 C   0  0  0  0  0  0  0  0  0  0  0  0
   -8.9378  -13.5149   24.6098 C   0  0  0  0  0  0  0  0  0  0  0  0
   -8.7294  -13.3558   23.2840 N   0  0  0  0  0  0  0  0  0  0  0  0
   -8.0450  -12.2441   22.9728 N   0  0  0  0  0  0  0  0  0  0  0  0
   -3.2017   -5.1310   26.2000 C   0  0  0  0  0  0  0  0  0  0  0  0
   -1.4205   -4.5459   30.1727 H   0  0  0  0  0  0  0  0  0  0  0  0
   -2.8791   -4.6442   29.2119 H   0  0  0  0  0  0  0  0  0  0  0  0
   -1.3852   -5.3503   28.5902 H   0  0  0  0  0  0  0  0  0  0  0  0
   -1.9405   -2.4147   29.1029 H   0  0  0  0  0  0  0  0  0  0  0  0
    0.5999   -3.7227   28.1116 H   0  0  0  0  0  0  0  0  0  0  0  0
    0.3510   -2.7985   29.5963 H   0  0  0  0  0  0  0  0  0  0  0  0
   -0.1724   -0.1073   29.4768 H   0  0  0  0  0  0  0  0  0  0  0  0
    0.2059    0.8291   28.0040 H   0  0  0  0  0  0  0  0  0  0  0  0
   -1.2794   -0.1493   28.0677 H   0  0  0  0  0  0  0  0  0  0  0  0
   -2.8556   -3.5672   24.4971 H   0  0  0  0  0  0  0  0  0  0  0  0
   -1.2027   -3.6094   24.4001 H   0  0  0  0  0  0  0  0  0  0  0  0
   -1.5242   -5.4016   23.1334 H   0  0  0  0  0  0  0  0  0  0  0  0
   -1.3650   -6.2461   24.6662 H   0  0  0  0  0  0  0  0  0  0  0  0
   -3.2572   -6.8717   23.4262 H   0  0  0  0  0  0  0  0  0  0  0  0
   -3.5246   -5.1793   23.0538 H   0  0  0  0  0  0  0  0  0  0  0  0
   -4.9025   -5.7995   26.1833 H   0  0  0  0  0  0  0  0  0  0  0  0
   -6.6641   -6.9536   26.3800 H   0  0  0  0  0  0  0  0  0  0  0  0
   -7.2619   -7.0385   24.8112 H   0  0  0  0  0  0  0  0  0  0  0  0
   -6.1492   -9.8773   25.8329 H   0  0  0  0  0  0  0  0  0  0  0  0
   -8.2581  -12.3039   26.2620 H   0  0  0  0  0  0  0  0  0  0  0  0
   -9.4708  -14.3600   25.0204 H   0  0  0  0  0  0  0  0  0  0  0  0
   -9.0269  -13.9559   22.5220 H   0  0  0  0  0  0  0  0  0  0  0  0
   -2.5236   -5.9822   26.3700 H   0  0  0  0  0  0  0  0  0  0  0  0
   -3.5677   -5.0103   27.2207 H   0  0  0  0  0  0  0  0  0  0  0  0
  1  2  1  0
  2  3  1  0
  3  4  1  0
  4  5  1  0
  4  6  2  0
  4  7  2  0
  2  8  1  0
  8  9  2  0
  8 10  1  0
 10 11  1  0
 11 12  1  0
 12 13  1  0
 13 14  1  0
 14 15  1  0
 15 16  1  0
 16 17  1  0
 17 18  2  0
 17 19  1  0
 19 20  1  0
 20 21  2  0
 21 22  1  0
 22 23  1  0
 14 24  1  0
 24 10  1  0
 23 19  2  0
  1 25  1  0
  1 26  1  0
  1 27  1  0
  2 28  1  0
  3 29  1  0
  3 30  1  0
  5 31  1  0
  5 32  1  0
  5 33  1  0
 11 34  1  0
 11 35  1  0
 12 36  1  0
 12 37  1  0
 13 38  1  0
 13 39  1  0
 14 40  1  0
 15 41  1  0
 15 42  1  0
 16 43  1  0
 20 44  1  0
 21 45  1  0
 22 46  1  0
 24 47  1  0
 24 48  1  0
M  END
>  <Energy>  (726) 
585.41587012929017

>  <compound_id>  (726) 
35641

>  <target_id>  (726) 
1

>  <reference_id>  (726) 
96

>  <inspiration_ids>  (726) 
[44, 96]

>  <energy_score>  (726) 
533.2438461001193

>  <distance_score>  (726) 
9.952424792760963

>  <path>  (726) 
/opt/xchem-fragalysis-2/maxwin/BulkDock/SCRATCH/511013/C35641-P96/C35641-P96.minimised.mol

>  <scratch_subdir>  (726) 
/opt/xchem-fragalysis-2/maxwin/BulkDock/SCRATCH/511013/C35641-P96

>  <fragmenstein_runtime>  (726) 
17.36574697494507

>  <fragmenstein_outcome>  (726) 
too moved

>  <fragmenstein_mode>  (726) 
expansion

>  <fragmenstein_error>  (726) 


$$$$
C35642-P44
     RDKit          3D

 45 46  0  0  0  0  0  0  0  0999 V2000
    1.1418  -16.7813   29.6281 C   0  0  0  0  0  0  0  0  0  0  0  0
   -0.1266  -16.9796   30.4608 C   0  0  0  0  0  0  0  0  0  0  0  0
    0.0275  -18.1266   31.4648 C   0  0  0  0  0  0  0  0  0  0  0  0
   -0.4272  -19.7030   30.7679 S   0  0  0  0  0  0  0  0  0  0  0  0
   -0.1589  -20.8187   32.1235 C   0  0  0  0  0  0  0  0  0  0  0  0
   -1.8531  -19.6869   30.4971 O   0  0  0  0  0  0  0  0  0  0  0  0
    0.5236  -20.0492   29.7307 O   0  0  0  0  0  0  0  0  0  0  0  0
   -0.4493  -15.6780   31.2162 C   0  0  0  0  0  0  0  0  0  0  0  0
   -0.2675  -15.6010   32.4027 O   0  0  0  0  0  0  0  0  0  0  0  0
   -0.8965  -14.6963   30.2798 N   0  0  0  0  0  0  0  0  0  0  0  0
   -1.1751  -13.2254   30.4548 C   0  0  0  0  0  0  0  0  0  0  0  0
   -1.4686  -12.4255   29.1794 C   0  0  0  0  0  0  0  0  0  0  0  0
   -2.8488  -12.7948   28.6764 C   0  0  0  0  0  0  0  0  0  0  0  0
   -2.9994  -14.3048   28.7861 C   0  0  0  0  0  0  0  0  0  0  0  0
   -4.3664  -14.7704   28.6389 N   0  0  0  0  0  0  0  0  0  0  0  0
   -5.4096  -14.3534   27.7559 C   0  0  0  0  0  0  0  0  0  0  0  0
   -5.4511  -13.4592   26.9635 O   0  0  0  0  0  0  0  0  0  0  0  0
   -6.5601  -15.2870   27.9084 C   0  0  0  0  0  0  0  0  0  0  0  0
   -7.8524  -15.2107   27.3255 C   0  0  0  0  0  0  0  0  0  0  0  0
   -8.5131  -16.3429   27.7350 C   0  0  0  0  0  0  0  0  0  0  0  0
   -7.6120  -17.0429   28.4721 N   0  0  0  0  0  0  0  0  0  0  0  0
   -6.4502  -16.3984   28.6693 N   0  0  0  0  0  0  0  0  0  0  0  0
   -2.4161  -14.7467   30.1535 C   0  0  0  0  0  0  0  0  0  0  0  0
    1.9907  -16.5036   30.2629 H   0  0  0  0  0  0  0  0  0  0  0  0
    1.0117  -15.9811   28.8915 H   0  0  0  0  0  0  0  0  0  0  0  0
    1.4085  -17.6886   29.0797 H   0  0  0  0  0  0  0  0  0  0  0  0
   -0.9574  -17.1978   29.7801 H   0  0  0  0  0  0  0  0  0  0  0  0
   -0.6382  -18.0012   32.3265 H   0  0  0  0  0  0  0  0  0  0  0  0
    1.0560  -18.2087   31.8311 H   0  0  0  0  0  0  0  0  0  0  0  0
   -0.4171  -21.8264   31.7914 H   0  0  0  0  0  0  0  0  0  0  0  0
   -0.8003  -20.5241   32.9561 H   0  0  0  0  0  0  0  0  0  0  0  0
    0.8933  -20.7781   32.4112 H   0  0  0  0  0  0  0  0  0  0  0  0
   -1.7815  -12.9468   31.3337 H   0  0  0  0  0  0  0  0  0  0  0  0
   -0.1860  -12.8705   30.7806 H   0  0  0  0  0  0  0  0  0  0  0  0
   -0.7167  -12.6685   28.4193 H   0  0  0  0  0  0  0  0  0  0  0  0
   -1.3965  -11.3542   29.3814 H   0  0  0  0  0  0  0  0  0  0  0  0
   -2.9936  -12.4672   27.6445 H   0  0  0  0  0  0  0  0  0  0  0  0
   -3.6095  -12.3206   29.3032 H   0  0  0  0  0  0  0  0  0  0  0  0
   -2.4270  -14.7838   27.9818 H   0  0  0  0  0  0  0  0  0  0  0  0
   -4.6565  -15.6289   29.1133 H   0  0  0  0  0  0  0  0  0  0  0  0
   -8.2307  -14.4190   26.6928 H   0  0  0  0  0  0  0  0  0  0  0  0
   -9.5058  -16.7175   27.5385 H   0  0  0  0  0  0  0  0  0  0  0  0
   -7.6945  -17.9899   28.8382 H   0  0  0  0  0  0  0  0  0  0  0  0
   -2.9854  -14.3989   31.0349 H   0  0  0  0  0  0  0  0  0  0  0  0
   -2.6429  -15.8245   30.2030 H   0  0  0  0  0  0  0  0  0  0  0  0
  1  2  1  0
  2  3  1  0
  3  4  1  0
  4  5  1  0
  4  6  2  0
  4  7  2  0
  2  8  1  0
  8  9  2  0
  8 10  1  0
 10 11  1  0
 11 12  1  0
 12 13  1  0
 13 14  1  0
 14 15  1  0
 15 16  1  0
 16 17  2  0
 16 18  1  0
 18 19  1  0
 19 20  2  0
 20 21  1  0
 21 22  1  0
 14 23  1  0
 23 10  1  0
 22 18  2  0
  1 24  1  0
  1 25  1  0
  1 26  1  0
  2 27  1  0
  3 28  1  0
  3 29  1  0
  5 30  1  0
  5 31  1  0
  5 32  1  0
 11 33  1  0
 11 34  1  0
 12 35  1  0
 12 36  1  0
 13 37  1  0
 13 38  1  0
 14 39  1  0
 15 40  1  0
 19 41  1  0
 20 42  1  0
 21 43  1  0
 23 44  1  0
 23 45  1  0
M  END
>  <Energy>  (727) 
83.195742756862586

>  <compound_id>  (727) 
35642

>  <target_id>  (727) 
1

>  <reference_id>  (727) 
44

>  <inspiration_ids>  (727) 
[44, 96]

>  <energy_score>  (727) 
25.74808751296689

>  <distance_score>  (727) 
13.800744989809006

>  <path>  (727) 
/opt/xchem-fragalysis-2/maxwin/BulkDock/SCRATCH/511013/C35642-P44/C35642-P44.minimised.mol

>  <scratch_subdir>  (727) 
/opt/xchem-fragalysis-2/maxwin/BulkDock/SCRATCH/511013/C35642-P44

>  <fragmenstein_runtime>  (727) 
26.820323944091797

>  <fragmenstein_outcome>  (727) 
too moved

>  <fragmenstein_mode>  (727) 
expansion

>  <fragmenstein_error>  (727) 


$$$$
C35642-P96
     RDKit          3D

 45 46  0  0  0  0  0  0  0  0999 V2000
   -9.0776  -10.9538   17.9937 C   0  0  0  0  0  0  0  0  0  0  0  0
   -8.6952   -9.8254   18.9606 C   0  0  0  0  0  0  0  0  0  0  0  0
   -8.7234   -8.4938   18.1862 C   0  0  0  0  0  0  0  0  0  0  0  0
   -7.5072   -7.3331   18.7838 S   0  0  0  0  0  0  0  0  0  0  0  0
   -7.8141   -5.8906   17.7952 C   0  0  0  0  0  0  0  0  0  0  0  0
   -7.8119   -6.9878   20.1585 O   0  0  0  0  0  0  0  0  0  0  0  0
   -6.2084   -7.8517   18.4024 O   0  0  0  0  0  0  0  0  0  0  0  0
   -9.6506   -9.7497   20.1791 C   0  0  0  0  0  0  0  0  0  0  0  0
  -10.0437   -8.6799   20.5603 O   0  0  0  0  0  0  0  0  0  0  0  0
   -9.9875  -11.0680   20.6098 N   0  0  0  0  0  0  0  0  0  0  0  0
  -11.0065  -11.5395   21.5829 C   0  0  0  0  0  0  0  0  0  0  0  0
  -11.2834  -13.0214   21.3933 C   0  0  0  0  0  0  0  0  0  0  0  0
   -9.9658  -13.7607   21.2116 C   0  0  0  0  0  0  0  0  0  0  0  0
   -8.9403  -13.0614   22.0743 C   0  0  0  0  0  0  0  0  0  0  0  0
   -9.2182  -13.4393   23.4565 N   0  0  0  0  0  0  0  0  0  0  0  0
   -8.6865  -14.4921   24.2657 C   0  0  0  0  0  0  0  0  0  0  0  0
   -7.8193  -15.2843   24.0445 O   0  0  0  0  0  0  0  0  0  0  0  0
   -9.4563  -14.6136   25.5345 C   0  0  0  0  0  0  0  0  0  0  0  0
   -9.0903  -15.3470   26.6976 C   0  0  0  0  0  0  0  0  0  0  0  0
  -10.1536  -15.2246   27.5556 C   0  0  0  0  0  0  0  0  0  0  0  0
  -11.0608  -14.4424   26.9175 N   0  0  0  0  0  0  0  0  0  0  0  0
  -10.6912  -14.0816   25.6742 N   0  0  0  0  0  0  0  0  0  0  0  0
   -9.0187  -11.5315   21.7468 C   0  0  0  0  0  0  0  0  0  0  0  0
  -10.1216  -10.8647   17.6736 H   0  0  0  0  0  0  0  0  0  0  0  0
   -8.9507  -11.9386   18.4548 H   0  0  0  0  0  0  0  0  0  0  0  0
   -8.4418  -10.9394   17.1017 H   0  0  0  0  0  0  0  0  0  0  0  0
   -7.6869  -10.0223   19.3420 H   0  0  0  0  0  0  0  0  0  0  0  0
   -9.7011   -8.0034   18.2307 H   0  0  0  0  0  0  0  0  0  0  0  0
   -8.4715   -8.6468   17.1304 H   0  0  0  0  0  0  0  0  0  0  0  0
   -7.6886   -6.1500   16.7425 H   0  0  0  0  0  0  0  0  0  0  0  0
   -8.8290   -5.5393   17.9898 H   0  0  0  0  0  0  0  0  0  0  0  0
   -7.0918   -5.1228   18.0800 H   0  0  0  0  0  0  0  0  0  0  0  0
  -10.9565  -11.1883   22.6271 H   0  0  0  0  0  0  0  0  0  0  0  0
  -11.9210  -11.0233   21.2509 H   0  0  0  0  0  0  0  0  0  0  0  0
  -11.9120  -13.1911   20.5108 H   0  0  0  0  0  0  0  0  0  0  0  0
  -11.8405  -13.4059   22.2554 H   0  0  0  0  0  0  0  0  0  0  0  0
  -10.0819  -14.8208   21.4656 H   0  0  0  0  0  0  0  0  0  0  0  0
   -9.6593  -13.7218   20.1587 H   0  0  0  0  0  0  0  0  0  0  0  0
   -7.9400  -13.4442   21.8414 H   0  0  0  0  0  0  0  0  0  0  0  0
  -10.0114  -13.0181   23.9403 H   0  0  0  0  0  0  0  0  0  0  0  0
   -8.1770  -15.9013   26.8602 H   0  0  0  0  0  0  0  0  0  0  0  0
  -10.3556  -15.6184   28.5404 H   0  0  0  0  0  0  0  0  0  0  0  0
  -11.9539  -14.1167   27.2711 H   0  0  0  0  0  0  0  0  0  0  0  0
   -8.0337  -11.3159   21.3081 H   0  0  0  0  0  0  0  0  0  0  0  0
   -9.0212  -10.8871   22.6360 H   0  0  0  0  0  0  0  0  0  0  0  0
  1  2  1  0
  2  3  1  0
  3  4  1  0
  4  5  1  0
  4  6  2  0
  4  7  2  0
  2  8  1  0
  8  9  2  0
  8 10  1  0
 10 11  1  0
 11 12  1  0
 12 13  1  0
 13 14  1  0
 14 15  1  0
 15 16  1  0
 16 17  2  0
 16 18  1  0
 18 19  1  0
 19 20  2  0
 20 21  1  0
 21 22  1  0
 14 23  1  0
 23 10  1  0
 22 18  2  0
  1 24  1  0
  1 25  1  0
  1 26  1  0
  2 27  1  0
  3 28  1  0
  3 29  1  0
  5 30  1  0
  5 31  1  0
  5 32  1  0
 11 33  1  0
 11 34  1  0
 12 35  1  0
 12 36  1  0
 13 37  1  0
 13 38  1  0
 14 39  1  0
 15 40  1  0
 19 41  1  0
 20 42  1  0
 21 43  1  0
 23 44  1  0
 23 45  1  0
M  END
>  <Energy>  (728) 
93.689687307400916

>  <compound_id>  (728) 
35642

>  <target_id>  (728) 
1

>  <reference_id>  (728) 
96

>  <inspiration_ids>  (728) 
[44, 96]

>  <energy_score>  (728) 
36.24203206351217

>  <distance_score>  (728) 
14.869406626088692

>  <path>  (728) 
/opt/xchem-fragalysis-2/maxwin/BulkDock/SCRATCH/511013/C35642-P96/C35642-P96.minimised.mol

>  <scratch_subdir>  (728) 
/opt/xchem-fragalysis-2/maxwin/BulkDock/SCRATCH/511013/C35642-P96

>  <fragmenstein_runtime>  (728) 
18.378235816955566

>  <fragmenstein_outcome>  (728) 
too moved

>  <fragmenstein_mode>  (728) 
expansion

>  <fragmenstein_error>  (728) 


$$$$
C35644-P44
     RDKit          3D

 45 46  0  0  0  0  0  0  0  0999 V2000
   -6.9010  -10.9873   25.1850 C   0  0  0  0  0  0  0  0  0  0  0  0
   -6.2875  -11.5070   26.5383 C   0  0  0  0  0  0  0  0  0  0  0  0
   -6.3104   -9.3975   27.4553 C   0  0  0  0  0  0  0  0  0  0  0  0
   -5.1394   -8.1178   28.7143 N   0  0  0  0  0  0  0  0  0  0  0  0
   -4.2222   -8.4056   30.5887 C   0  0  0  0  0  0  0  0  0  0  0  0
   -2.9420   -7.5177   31.4178 C   0  0  0  0  0  0  0  0  0  0  0  0
   -1.6322   -7.4705   30.6772 C   0  0  0  0  0  0  0  0  0  0  0  0
   -1.7902   -7.4168   29.1452 C   0  0  0  0  0  0  0  0  0  0  0  0
   -3.3897   -7.5153   28.2977 C   0  0  0  0  0  0  0  0  0  0  0  0
   -7.4797  -13.3294   26.4856 N   0  0  0  0  0  0  0  0  0  0  0  0
   -6.6882  -12.4779   26.7557 C   0  0  0  0  0  0  0  0  0  0  0  0
   -8.4527  -14.2552   27.7198 C   0  0  0  0  0  0  0  0  0  0  0  0
   -8.5542  -14.1143   28.8499 O   0  0  0  0  0  0  0  0  0  0  0  0
   -9.4638  -15.5081   26.8101 N   0  0  0  0  0  0  0  0  0  0  0  0
  -10.9356  -16.7042   27.4181 C   0  0  0  0  0  0  0  0  0  0  0  0
  -11.4655  -18.1029   28.9266 C   0  0  0  0  0  0  0  0  0  0  0  0
  -11.1706  -20.0634   29.4707 C   0  0  0  0  0  0  0  0  0  0  0  0
  -12.3494  -20.7303   29.4827 C   0  0  0  0  0  0  0  0  0  0  0  0
  -13.1009  -19.6545   29.4237 N   0  0  0  0  0  0  0  0  0  0  0  0
  -12.7215  -18.3339   29.0664 N   0  0  0  0  0  0  0  0  0  0  0  0
   -6.5815  -11.5301   24.2952 H   0  0  0  0  0  0  0  0  0  0  0  0
   -7.9303  -11.0272   25.5105 H   0  0  0  0  0  0  0  0  0  0  0  0
   -7.0252   -9.9901   24.9641 H   0  0  0  0  0  0  0  0  0  0  0  0
   -5.1673  -11.7476   27.0370 H   0  0  0  0  0  0  0  0  0  0  0  0
   -7.1148   -8.9226   26.8962 H   0  0  0  0  0  0  0  0  0  0  0  0
   -6.9280   -9.4476   28.3933 H   0  0  0  0  0  0  0  0  0  0  0  0
   -3.7126   -9.3115   30.9804 H   0  0  0  0  0  0  0  0  0  0  0  0
   -4.9703   -8.6185   31.3414 H   0  0  0  0  0  0  0  0  0  0  0  0
   -3.2100   -6.5395   31.8275 H   0  0  0  0  0  0  0  0  0  0  0  0
   -2.7652   -8.0855   32.3450 H   0  0  0  0  0  0  0  0  0  0  0  0
   -1.0189   -6.6342   31.0365 H   0  0  0  0  0  0  0  0  0  0  0  0
   -1.0454   -8.3634   30.9363 H   0  0  0  0  0  0  0  0  0  0  0  0
   -1.1051   -8.1846   28.7786 H   0  0  0  0  0  0  0  0  0  0  0  0
   -1.4307   -6.4156   28.9446 H   0  0  0  0  0  0  0  0  0  0  0  0
   -3.5182   -7.0971   29.2256 H   0  0  0  0  0  0  0  0  0  0  0  0
   -3.2188   -7.1982   27.2837 H   0  0  0  0  0  0  0  0  0  0  0  0
   -6.5592  -12.8994   25.6621 H   0  0  0  0  0  0  0  0  0  0  0  0
   -6.2218  -13.4141   26.9941 H   0  0  0  0  0  0  0  0  0  0  0  0
   -6.7960  -12.7181   27.8652 H   0  0  0  0  0  0  0  0  0  0  0  0
   -9.1699  -15.5355   25.8472 H   0  0  0  0  0  0  0  0  0  0  0  0
  -10.9731  -17.0815   26.4174 H   0  0  0  0  0  0  0  0  0  0  0  0
  -11.7536  -15.9622   27.5293 H   0  0  0  0  0  0  0  0  0  0  0  0
  -10.4446  -20.7076   29.0458 H   0  0  0  0  0  0  0  0  0  0  0  0
  -12.6046  -21.7663   29.5412 H   0  0  0  0  0  0  0  0  0  0  0  0
  -14.0277  -19.5607   29.7564 H   0  0  0  0  0  0  0  0  0  0  0  0
  1  2  1  0
  2  3  1  0
  3  4  1  0
  4  5  1  0
  5  6  1  0
  6  7  1  0
  7  8  1  0
  8  9  1  0
  2 10  1  0
 10 11  1  0
 10 12  1  0
 12 13  2  0
 12 14  1  0
 14 15  1  0
 15 16  1  0
 16 17  1  0
 17 18  2  0
 18 19  1  0
 19 20  1  0
  9  4  1  0
 20 16  2  0
  1 21  1  0
  1 22  1  0
  1 23  1  0
  2 24  1  0
  3 25  1  0
  3 26  1  0
  5 27  1  0
  5 28  1  0
  6 29  1  0
  6 30  1  0
  7 31  1  0
  7 32  1  0
  8 33  1  0
  8 34  1  0
  9 35  1  0
  9 36  1  0
 11 37  1  0
 11 38  1  0
 11 39  1  0
 14 40  1  0
 15 41  1  0
 15 42  1  0
 17 43  1  0
 18 44  1  0
 19 45  1  0
M  END
>  <Energy>  (729) 
2065.8316639554346

>  <compound_id>  (729) 
35644

>  <target_id>  (729) 
1

>  <reference_id>  (729) 
44

>  <inspiration_ids>  (729) 
[44, 96]

>  <energy_score>  (729) 
2061.9352319650698

>  <distance_score>  (729) 
9.593635895201373

>  <path>  (729) 
/opt/xchem-fragalysis-2/maxwin/BulkDock/SCRATCH/511013/C35644-P44/C35644-P44.minimised.mol

>  <scratch_subdir>  (729) 
/opt/xchem-fragalysis-2/maxwin/BulkDock/SCRATCH/511013/C35644-P44

>  <fragmenstein_runtime>  (729) 
25.64893412590027

>  <fragmenstein_outcome>  (729) 
too moved

>  <fragmenstein_mode>  (729) 
expansion

>  <fragmenstein_error>  (729) 


$$$$
C35644-P96
     RDKit          3D

 45 46  0  0  0  0  0  0  0  0999 V2000
   -6.7484  -11.9636   29.4265 C   0  0  0  0  0  0  0  0  0  0  0  0
   -6.6229  -11.7362   27.8228 C   0  0  0  0  0  0  0  0  0  0  0  0
   -4.9485  -10.4836   28.1898 C   0  0  0  0  0  0  0  0  0  0  0  0
   -3.7520   -9.0141   28.6943 N   0  0  0  0  0  0  0  0  0  0  0  0
   -2.4910   -8.6006   27.9733 C   0  0  0  0  0  0  0  0  0  0  0  0
   -1.6601   -7.2264   27.5385 C   0  0  0  0  0  0  0  0  0  0  0  0
   -1.9812   -5.9371   28.3567 C   0  0  0  0  0  0  0  0  0  0  0  0
   -2.9208   -6.2252   29.5495 C   0  0  0  0  0  0  0  0  0  0  0  0
   -3.7778   -7.6069   29.6911 C   0  0  0  0  0  0  0  0  0  0  0  0
   -7.0581  -13.7232   27.6378 N   0  0  0  0  0  0  0  0  0  0  0  0
   -7.0483  -12.4522   27.3370 C   0  0  0  0  0  0  0  0  0  0  0  0
   -8.4022  -14.7779   26.9691 C   0  0  0  0  0  0  0  0  0  0  0  0
   -9.3448  -14.5453   26.3675 O   0  0  0  0  0  0  0  0  0  0  0  0
   -7.9789  -16.3720   27.6976 N   0  0  0  0  0  0  0  0  0  0  0  0
   -8.9322  -17.8813   27.8183 C   0  0  0  0  0  0  0  0  0  0  0  0
   -9.7965  -19.3652   29.0052 C   0  0  0  0  0  0  0  0  0  0  0  0
  -10.4124  -20.6597   28.4817 C   0  0  0  0  0  0  0  0  0  0  0  0
  -11.0618  -21.3097   29.4994 C   0  0  0  0  0  0  0  0  0  0  0  0
  -10.9064  -20.4954   30.5569 N   0  0  0  0  0  0  0  0  0  0  0  0
  -10.2303  -19.3703   30.3091 N   0  0  0  0  0  0  0  0  0  0  0  0
   -7.6445  -12.3169   29.9179 H   0  0  0  0  0  0  0  0  0  0  0  0
   -6.1371  -12.8333   29.5432 H   0  0  0  0  0  0  0  0  0  0  0  0
   -6.6562  -11.0277   29.9450 H   0  0  0  0  0  0  0  0  0  0  0  0
   -6.7873  -10.8202   27.1183 H   0  0  0  0  0  0  0  0  0  0  0  0
   -5.4083  -10.1390   29.0948 H   0  0  0  0  0  0  0  0  0  0  0  0
   -4.1549  -11.1905   28.2261 H   0  0  0  0  0  0  0  0  0  0  0  0
   -1.7929   -8.9588   28.6906 H   0  0  0  0  0  0  0  0  0  0  0  0
   -2.6770   -9.0262   27.0038 H   0  0  0  0  0  0  0  0  0  0  0  0
   -0.5996   -7.4985   27.5328 H   0  0  0  0  0  0  0  0  0  0  0  0
   -1.7564   -6.9931   26.4745 H   0  0  0  0  0  0  0  0  0  0  0  0
   -1.0755   -5.4252   28.6950 H   0  0  0  0  0  0  0  0  0  0  0  0
   -2.4457   -5.1931   27.6929 H   0  0  0  0  0  0  0  0  0  0  0  0
   -2.3061   -6.1299   30.4588 H   0  0  0  0  0  0  0  0  0  0  0  0
   -3.6029   -5.3907   29.6601 H   0  0  0  0  0  0  0  0  0  0  0  0
   -4.7778   -7.3805   30.0830 H   0  0  0  0  0  0  0  0  0  0  0  0
   -3.1472   -7.8727   30.5260 H   0  0  0  0  0  0  0  0  0  0  0  0
   -7.9696  -12.2597   26.5460 H   0  0  0  0  0  0  0  0  0  0  0  0
   -6.9429  -12.5274   26.1444 H   0  0  0  0  0  0  0  0  0  0  0  0
   -8.2178  -12.5234   27.7262 H   0  0  0  0  0  0  0  0  0  0  0  0
   -7.0524  -16.3351   28.0974 H   0  0  0  0  0  0  0  0  0  0  0  0
   -9.7909  -17.2739   28.3330 H   0  0  0  0  0  0  0  0  0  0  0  0
   -9.3889  -17.3391   26.9773 H   0  0  0  0  0  0  0  0  0  0  0  0
  -10.5313  -20.9636   27.4624 H   0  0  0  0  0  0  0  0  0  0  0  0
  -11.6470  -22.2154   29.5324 H   0  0  0  0  0  0  0  0  0  0  0  0
  -11.2616  -20.6215   31.4968 H   0  0  0  0  0  0  0  0  0  0  0  0
  1  2  1  0
  2  3  1  0
  3  4  1  0
  4  5  1  0
  5  6  1  0
  6  7  1  0
  7  8  1  0
  8  9  1  0
  2 10  1  0
 10 11  1  0
 10 12  1  0
 12 13  2  0
 12 14  1  0
 14 15  1  0
 15 16  1  0
 16 17  1  0
 17 18  2  0
 18 19  1  0
 19 20  1  0
  9  4  1  0
 20 16  2  0
  1 21  1  0
  1 22  1  0
  1 23  1  0
  2 24  1  0
  3 25  1  0
  3 26  1  0
  5 27  1  0
  5 28  1  0
  6 29  1  0
  6 30  1  0
  7 31  1  0
  7 32  1  0
  8 33  1  0
  8 34  1  0
  9 35  1  0
  9 36  1  0
 11 37  1  0
 11 38  1  0
 11 39  1  0
 14 40  1  0
 15 41  1  0
 15 42  1  0
 17 43  1  0
 18 44  1  0
 19 45  1  0
M  END
>  <Energy>  (730) 
1351.2422877583911

>  <compound_id>  (730) 
35644

>  <target_id>  (730) 
1

>  <reference_id>  (730) 
96

>  <inspiration_ids>  (730) 
[44, 96]

>  <energy_score>  (730) 
1347.3458557680203

>  <distance_score>  (730) 
8.909055424616081

>  <path>  (730) 
/opt/xchem-fragalysis-2/maxwin/BulkDock/SCRATCH/511013/C35644-P96/C35644-P96.minimised.mol

>  <scratch_subdir>  (730) 
/opt/xchem-fragalysis-2/maxwin/BulkDock/SCRATCH/511013/C35644-P96

>  <fragmenstein_runtime>  (730) 
11.43181848526001

>  <fragmenstein_outcome>  (730) 
too moved

>  <fragmenstein_mode>  (730) 
expansion

>  <fragmenstein_error>  (730) 


$$$$
C35645-P44
     RDKit          3D

 56 57  0  0  0  0  0  0  0  0999 V2000
   -5.8567  -17.7736   32.1199 C   0  0  0  0  0  0  0  0  0  0  0  0
   -5.8236  -17.4891   33.6220 C   0  0  0  0  0  0  0  0  0  0  0  0
   -7.2440  -17.4499   34.1889 C   0  0  0  0  0  0  0  0  0  0  0  0
   -5.0004  -16.2193   34.0253 C   0  0  0  0  0  0  0  0  0  0  0  0
   -5.2426  -14.9143   33.2085 C   0  0  0  0  0  0  0  0  0  0  0  0
   -4.9183  -13.4961   33.9103 N   0  0  0  0  0  0  0  0  0  0  0  0
   -5.4243  -11.7581   33.4395 C   0  0  0  0  0  0  0  0  0  0  0  0
   -6.1162  -11.5227   32.5049 O   0  0  0  0  0  0  0  0  0  0  0  0
   -4.8642  -10.2535   34.7117 C   0  0  0  0  0  0  0  0  0  0  0  0
   -5.2265  -10.5990   36.1530 C   0  0  0  0  0  0  0  0  0  0  0  0
   -3.6625   -9.0142   34.1683 N   0  0  0  0  0  0  0  0  0  0  0  0
   -3.4387   -8.3844   35.4243 C   0  0  0  0  0  0  0  0  0  0  0  0
   -2.1790   -8.4950   33.5115 C   0  0  0  0  0  0  0  0  0  0  0  0
   -0.8953   -7.9863   34.3269 C   0  0  0  0  0  0  0  0  0  0  0  0
   -0.3177   -6.7774   33.5983 C   0  0  0  0  0  0  0  0  0  0  0  0
   -0.6099   -6.8704   32.1002 C   0  0  0  0  0  0  0  0  0  0  0  0
   -0.3290   -8.1716   31.3968 N   0  0  0  0  0  0  0  0  0  0  0  0
    0.9905   -8.6401   31.7321 C   0  0  0  0  0  0  0  0  0  0  0  0
    1.3603   -9.3661   32.6182 O   0  0  0  0  0  0  0  0  0  0  0  0
    2.0086   -8.1914   30.7308 C   0  0  0  0  0  0  0  0  0  0  0  0
    2.0306   -7.0261   29.9149 C   0  0  0  0  0  0  0  0  0  0  0  0
    3.1991   -7.0884   29.1953 C   0  0  0  0  0  0  0  0  0  0  0  0
    3.8150   -8.2325   29.5939 N   0  0  0  0  0  0  0  0  0  0  0  0
    3.1242   -8.9204   30.5109 N   0  0  0  0  0  0  0  0  0  0  0  0
   -1.7389   -8.5442   32.0007 C   0  0  0  0  0  0  0  0  0  0  0  0
   -6.4224  -17.0101   31.5777 H   0  0  0  0  0  0  0  0  0  0  0  0
   -6.3194  -18.7441   31.9236 H   0  0  0  0  0  0  0  0  0  0  0  0
   -4.8411  -17.7989   31.7119 H   0  0  0  0  0  0  0  0  0  0  0  0
   -5.3202  -18.3403   34.1007 H   0  0  0  0  0  0  0  0  0  0  0  0
   -7.7662  -18.3924   34.0035 H   0  0  0  0  0  0  0  0  0  0  0  0
   -7.2214  -17.2980   35.2734 H   0  0  0  0  0  0  0  0  0  0  0  0
   -7.8244  -16.6323   33.7503 H   0  0  0  0  0  0  0  0  0  0  0  0
   -3.9343  -16.4636   33.9193 H   0  0  0  0  0  0  0  0  0  0  0  0
   -5.1366  -16.0395   35.0975 H   0  0  0  0  0  0  0  0  0  0  0  0
   -4.6122  -15.0104   32.3179 H   0  0  0  0  0  0  0  0  0  0  0  0
   -6.2805  -14.8302   32.8646 H   0  0  0  0  0  0  0  0  0  0  0  0
   -4.2624  -13.4554   34.6832 H   0  0  0  0  0  0  0  0  0  0  0  0
   -3.8805  -10.4363   35.2130 H   0  0  0  0  0  0  0  0  0  0  0  0
   -5.2275   -9.6827   36.7056 H   0  0  0  0  0  0  0  0  0  0  0  0
   -6.1850  -11.0738   36.2079 H   0  0  0  0  0  0  0  0  0  0  0  0
   -4.5659  -11.3300   36.6450 H   0  0  0  0  0  0  0  0  0  0  0  0
   -2.8740   -9.0241   36.1023 H   0  0  0  0  0  0  0  0  0  0  0  0
   -4.4597   -8.2373   35.6696 H   0  0  0  0  0  0  0  0  0  0  0  0
   -2.9906   -7.3929   35.3955 H   0  0  0  0  0  0  0  0  0  0  0  0
   -2.5016   -7.4667   33.4416 H   0  0  0  0  0  0  0  0  0  0  0  0
   -1.0704   -7.7174   35.3713 H   0  0  0  0  0  0  0  0  0  0  0  0
   -0.1058   -8.7375   34.3714 H   0  0  0  0  0  0  0  0  0  0  0  0
    0.7600   -6.7138   33.7906 H   0  0  0  0  0  0  0  0  0  0  0  0
   -0.7582   -5.8522   33.9892 H   0  0  0  0  0  0  0  0  0  0  0  0
   -1.5295   -6.3662   31.7812 H   0  0  0  0  0  0  0  0  0  0  0  0
    0.1237   -6.1747   31.6710 H   0  0  0  0  0  0  0  0  0  0  0  0
    1.2997   -6.2335   29.8622 H   0  0  0  0  0  0  0  0  0  0  0  0
    3.6402   -6.4290   28.4616 H   0  0  0  0  0  0  0  0  0  0  0  0
    4.7075   -8.6063   29.2867 H   0  0  0  0  0  0  0  0  0  0  0  0
   -1.7687   -9.5864   31.7060 H   0  0  0  0  0  0  0  0  0  0  0  0
   -2.5086   -8.0448   31.4061 H   0  0  0  0  0  0  0  0  0  0  0  0
  1  2  1  0
  2  3  1  0
  2  4  1  0
  4  5  1  0
  5  6  1  0
  6  7  1  0
  7  8  2  0
  7  9  1  0
  9 10  1  0
  9 11  1  0
 11 12  1  0
 11 13  1  0
 13 14  1  0
 14 15  1  0
 15 16  1  0
 16 17  1  0
 17 18  1  0
 18 19  2  0
 18 20  1  0
 20 21  1  0
 21 22  2  0
 22 23  1  0
 23 24  1  0
 17 25  1  0
 25 13  1  0
 24 20  2  0
  1 26  1  0
  1 27  1  0
  1 28  1  0
  2 29  1  0
  3 30  1  0
  3 31  1  0
  3 32  1  0
  4 33  1  0
  4 34  1  0
  5 35  1  0
  5 36  1  0
  6 37  1  0
  9 38  1  0
 10 39  1  0
 10 40  1  0
 10 41  1  0
 12 42  1  0
 12 43  1  0
 12 44  1  0
 13 45  1  0
 14 46  1  0
 14 47  1  0
 15 48  1  0
 15 49  1  0
 16 50  1  0
 16 51  1  0
 21 52  1  0
 22 53  1  0
 23 54  1  0
 25 55  1  0
 25 56  1  0
M  END
>  <Energy>  (731) 
526.71419341105877

>  <compound_id>  (731) 
35645

>  <target_id>  (731) 
1

>  <reference_id>  (731) 
44

>  <inspiration_ids>  (731) 
[44, 96]

>  <energy_score>  (731) 
374.84248942259535

>  <distance_score>  (731) 
10.625080578634044

>  <path>  (731) 
/opt/xchem-fragalysis-2/maxwin/BulkDock/SCRATCH/511013/C35645-P44/C35645-P44.minimised.mol

>  <scratch_subdir>  (731) 
/opt/xchem-fragalysis-2/maxwin/BulkDock/SCRATCH/511013/C35645-P44

>  <fragmenstein_runtime>  (731) 
62.106669664382935

>  <fragmenstein_outcome>  (731) 
too moved

>  <fragmenstein_mode>  (731) 
expansion

>  <fragmenstein_error>  (731) 


$$$$
C35645-P96
     RDKit          3D

 56 57  0  0  0  0  0  0  0  0999 V2000
  -10.9635  -15.0035   37.5022 C   0  0  0  0  0  0  0  0  0  0  0  0
  -10.1409  -14.4379   36.3568 C   0  0  0  0  0  0  0  0  0  0  0  0
  -11.0167  -14.3046   35.1123 C   0  0  0  0  0  0  0  0  0  0  0  0
   -9.2454  -13.2225   36.7333 C   0  0  0  0  0  0  0  0  0  0  0  0
   -9.7994  -11.9650   37.5009 C   0  0  0  0  0  0  0  0  0  0  0  0
   -9.0122  -10.6994   37.3036 N   0  0  0  0  0  0  0  0  0  0  0  0
   -7.8735  -10.1829   37.9992 C   0  0  0  0  0  0  0  0  0  0  0  0
   -7.2984  -10.5941   38.9784 O   0  0  0  0  0  0  0  0  0  0  0  0
   -7.2350   -8.7095   37.5183 C   0  0  0  0  0  0  0  0  0  0  0  0
   -8.4774   -8.0401   38.6962 C   0  0  0  0  0  0  0  0  0  0  0  0
   -6.5295   -7.8734   35.8676 N   0  0  0  0  0  0  0  0  0  0  0  0
   -7.2700   -8.0081   34.5276 C   0  0  0  0  0  0  0  0  0  0  0  0
   -5.5863   -6.5327   34.8379 C   0  0  0  0  0  0  0  0  0  0  0  0
   -4.1664   -6.6901   34.7012 C   0  0  0  0  0  0  0  0  0  0  0  0
   -3.7923   -7.6258   33.4948 C   0  0  0  0  0  0  0  0  0  0  0  0
   -3.3246   -6.7283   32.4199 C   0  0  0  0  0  0  0  0  0  0  0  0
   -3.9496   -5.4842   32.0760 N   0  0  0  0  0  0  0  0  0  0  0  0
   -3.0588   -4.4027   32.3454 C   0  0  0  0  0  0  0  0  0  0  0  0
   -2.9194   -3.7377   33.3293 O   0  0  0  0  0  0  0  0  0  0  0  0
   -2.2837   -4.0549   31.1156 C   0  0  0  0  0  0  0  0  0  0  0  0
   -1.6368   -2.8105   30.8793 C   0  0  0  0  0  0  0  0  0  0  0  0
   -1.1065   -2.9033   29.6184 C   0  0  0  0  0  0  0  0  0  0  0  0
   -1.3795   -4.1689   29.1934 N   0  0  0  0  0  0  0  0  0  0  0  0
   -2.1601   -4.8694   30.0415 N   0  0  0  0  0  0  0  0  0  0  0  0
   -5.2262   -6.1395   33.0025 C   0  0  0  0  0  0  0  0  0  0  0  0
  -10.3399  -15.1753   38.3856 H   0  0  0  0  0  0  0  0  0  0  0  0
  -11.4317  -15.9546   37.2279 H   0  0  0  0  0  0  0  0  0  0  0  0
  -11.7597  -14.3089   37.7906 H   0  0  0  0  0  0  0  0  0  0  0  0
   -9.3991  -15.1733   36.0748 H   0  0  0  0  0  0  0  0  0  0  0  0
  -10.4288  -13.9751   34.2514 H   0  0  0  0  0  0  0  0  0  0  0  0
  -11.4678  -15.2676   34.8483 H   0  0  0  0  0  0  0  0  0  0  0  0
  -11.8309  -13.5925   35.2765 H   0  0  0  0  0  0  0  0  0  0  0  0
   -8.7691  -12.9067   35.8054 H   0  0  0  0  0  0  0  0  0  0  0  0
   -8.4202  -13.6063   37.3507 H   0  0  0  0  0  0  0  0  0  0  0  0
  -10.8444  -11.7521   37.2634 H   0  0  0  0  0  0  0  0  0  0  0  0
   -9.7569  -12.1833   38.5743 H   0  0  0  0  0  0  0  0  0  0  0  0
   -9.2706  -10.0531   36.5791 H   0  0  0  0  0  0  0  0  0  0  0  0
   -6.4521   -8.6214   38.2788 H   0  0  0  0  0  0  0  0  0  0  0  0
   -8.9034   -8.8175   39.3446 H   0  0  0  0  0  0  0  0  0  0  0  0
   -9.3480   -7.5650   38.2322 H   0  0  0  0  0  0  0  0  0  0  0  0
   -8.0004   -7.3589   39.4148 H   0  0  0  0  0  0  0  0  0  0  0  0
   -6.9752   -7.2602   33.8640 H   0  0  0  0  0  0  0  0  0  0  0  0
   -8.2500   -8.2641   34.6522 H   0  0  0  0  0  0  0  0  0  0  0  0
   -7.5320   -8.5812   33.6946 H   0  0  0  0  0  0  0  0  0  0  0  0
   -6.1292   -5.6120   34.9013 H   0  0  0  0  0  0  0  0  0  0  0  0
   -3.6887   -5.7635   34.4351 H   0  0  0  0  0  0  0  0  0  0  0  0
   -3.8331   -6.9173   35.6826 H   0  0  0  0  0  0  0  0  0  0  0  0
   -3.1500   -8.4695   33.6482 H   0  0  0  0  0  0  0  0  0  0  0  0
   -4.6619   -8.1228   33.1839 H   0  0  0  0  0  0  0  0  0  0  0  0
   -2.3011   -6.4663   32.6814 H   0  0  0  0  0  0  0  0  0  0  0  0
   -3.1210   -7.1971   31.4515 H   0  0  0  0  0  0  0  0  0  0  0  0
   -1.6008   -1.9632   31.5503 H   0  0  0  0  0  0  0  0  0  0  0  0
   -0.5183   -2.2213   29.0226 H   0  0  0  0  0  0  0  0  0  0  0  0
   -1.0278   -4.6288   28.3572 H   0  0  0  0  0  0  0  0  0  0  0  0
   -5.7533   -6.7788   32.2836 H   0  0  0  0  0  0  0  0  0  0  0  0
   -5.6347   -5.1663   33.0540 H   0  0  0  0  0  0  0  0  0  0  0  0
  1  2  1  0
  2  3  1  0
  2  4  1  0
  4  5  1  0
  5  6  1  0
  6  7  1  0
  7  8  2  0
  7  9  1  0
  9 10  1  0
  9 11  1  0
 11 12  1  0
 11 13  1  0
 13 14  1  0
 14 15  1  0
 15 16  1  0
 16 17  1  0
 17 18  1  0
 18 19  2  0
 18 20  1  0
 20 21  1  0
 21 22  2  0
 22 23  1  0
 23 24  1  0
 17 25  1  0
 25 13  1  0
 24 20  2  0
  1 26  1  0
  1 27  1  0
  1 28  1  0
  2 29  1  0
  3 30  1  0
  3 31  1  0
  3 32  1  0
  4 33  1  0
  4 34  1  0
  5 35  1  0
  5 36  1  0
  6 37  1  0
  9 38  1  0
 10 39  1  0
 10 40  1  0
 10 41  1  0
 12 42  1  0
 12 43  1  0
 12 44  1  0
 13 45  1  0
 14 46  1  0
 14 47  1  0
 15 48  1  0
 15 49  1  0
 16 50  1  0
 16 51  1  0
 21 52  1  0
 22 53  1  0
 23 54  1  0
 25 55  1  0
 25 56  1  0
M  END
>  <Energy>  (732) 
701.17233853797552

>  <compound_id>  (732) 
35645

>  <target_id>  (732) 
1

>  <reference_id>  (732) 
96

>  <inspiration_ids>  (732) 
[44, 96]

>  <energy_score>  (732) 
549.3006345494998

>  <distance_score>  (732) 
11.371284718993339

>  <path>  (732) 
/opt/xchem-fragalysis-2/maxwin/BulkDock/SCRATCH/511013/C35645-P96/C35645-P96.minimised.mol

>  <scratch_subdir>  (732) 
/opt/xchem-fragalysis-2/maxwin/BulkDock/SCRATCH/511013/C35645-P96

>  <fragmenstein_runtime>  (732) 
33.899545192718506

>  <fragmenstein_outcome>  (732) 
too moved

>  <fragmenstein_mode>  (732) 
expansion

>  <fragmenstein_error>  (732) 


$$$$
C35646-P44
     RDKit          3D

 43 44  0  0  0  0  0  0  0  0999 V2000
  -12.0325  -13.1464   24.8111 C   0  0  0  0  0  0  0  0  0  0  0  0
  -11.7455  -12.4796   23.5710 O   0  0  0  0  0  0  0  0  0  0  0  0
  -12.1594  -11.0965   23.5536 C   0  0  0  0  0  0  0  0  0  0  0  0
  -11.7070  -10.1926   22.2804 C   0  0  0  0  0  0  0  0  0  0  0  0
  -10.2112   -9.9743   22.4445 C   0  0  0  0  0  0  0  0  0  0  0  0
   -9.5577  -10.9450   22.1747 O   0  0  0  0  0  0  0  0  0  0  0  0
   -9.8095   -8.6748   22.9984 N   0  0  0  0  0  0  0  0  0  0  0  0
   -8.4138   -8.1721   23.5249 C   0  0  0  0  0  0  0  0  0  0  0  0
   -7.1675   -6.5355   24.4737 C   0  0  0  0  0  0  0  0  0  0  0  0
   -7.2814   -5.7963   22.5528 C   0  0  0  0  0  0  0  0  0  0  0  0
   -6.2546   -5.7724   21.4628 C   0  0  0  0  0  0  0  0  0  0  0  0
   -5.3127   -6.8079   21.8517 C   0  0  0  0  0  0  0  0  0  0  0  0
   -5.3130   -7.2651   23.5117 C   0  0  0  0  0  0  0  0  0  0  0  0
   -6.0948   -7.7624   25.3903 N   0  0  0  0  0  0  0  0  0  0  0  0
   -5.0216   -7.8172   27.3174 C   0  0  0  0  0  0  0  0  0  0  0  0
   -3.8940   -7.4102   27.1495 O   0  0  0  0  0  0  0  0  0  0  0  0
   -5.1871   -8.0514   29.1628 C   0  0  0  0  0  0  0  0  0  0  0  0
   -4.2057   -8.4581   30.9192 C   0  0  0  0  0  0  0  0  0  0  0  0
   -2.9079   -8.0371   31.3666 C   0  0  0  0  0  0  0  0  0  0  0  0
   -2.5475   -7.3892   30.2419 N   0  0  0  0  0  0  0  0  0  0  0  0
   -3.5705   -7.4244   29.1981 N   0  0  0  0  0  0  0  0  0  0  0  0
  -11.7138  -14.1879   24.7222 H   0  0  0  0  0  0  0  0  0  0  0  0
  -11.4833  -12.6707   25.6277 H   0  0  0  0  0  0  0  0  0  0  0  0
  -13.1076  -13.1171   25.0094 H   0  0  0  0  0  0  0  0  0  0  0  0
  -11.8046  -10.6132   24.4703 H   0  0  0  0  0  0  0  0  0  0  0  0
  -13.2556  -11.0880   23.5701 H   0  0  0  0  0  0  0  0  0  0  0  0
  -11.9037  -10.7235   21.3445 H   0  0  0  0  0  0  0  0  0  0  0  0
  -12.2468   -9.2423   22.2947 H   0  0  0  0  0  0  0  0  0  0  0  0
  -10.6163   -8.0581   23.0182 H   0  0  0  0  0  0  0  0  0  0  0  0
   -8.3358   -7.9531   22.3508 H   0  0  0  0  0  0  0  0  0  0  0  0
   -8.0365   -9.2020   23.3326 H   0  0  0  0  0  0  0  0  0  0  0  0
   -7.0488   -5.5242   24.5088 H   0  0  0  0  0  0  0  0  0  0  0  0
   -7.5765   -4.7282   22.6742 H   0  0  0  0  0  0  0  0  0  0  0  0
   -8.1445   -6.1377   21.9554 H   0  0  0  0  0  0  0  0  0  0  0  0
   -6.7045   -6.0051   20.4886 H   0  0  0  0  0  0  0  0  0  0  0  0
   -5.7839   -4.7948   21.3158 H   0  0  0  0  0  0  0  0  0  0  0  0
   -4.2915   -6.4481   21.6409 H   0  0  0  0  0  0  0  0  0  0  0  0
   -5.3643   -7.6356   21.1500 H   0  0  0  0  0  0  0  0  0  0  0  0
   -4.5946   -8.0475   23.0950 H   0  0  0  0  0  0  0  0  0  0  0  0
   -4.5370   -6.5266   23.7033 H   0  0  0  0  0  0  0  0  0  0  0  0
   -4.7969   -8.7052   31.7564 H   0  0  0  0  0  0  0  0  0  0  0  0
   -2.3514   -8.1220   32.2883 H   0  0  0  0  0  0  0  0  0  0  0  0
   -1.6454   -6.9987   29.9778 H   0  0  0  0  0  0  0  0  0  0  0  0
  1  2  1  0
  2  3  1  0
  3  4  1  0
  4  5  1  0
  5  6  2  0
  5  7  1  0
  7  8  1  0
  8  9  1  0
  9 10  1  0
 10 11  1  0
 11 12  1  0
 12 13  1  0
 13 14  1  0
 14 15  1  0
 15 16  2  0
 15 17  1  0
 17 18  1  0
 18 19  2  0
 19 20  1  0
 20 21  1  0
 14  9  1  0
 21 17  2  0
  1 22  1  0
  1 23  1  0
  1 24  1  0
  3 25  1  0
  3 26  1  0
  4 27  1  0
  4 28  1  0
  7 29  1  0
  8 30  1  0
  8 31  1  0
  9 32  1  0
 10 33  1  0
 10 34  1  0
 11 35  1  0
 11 36  1  0
 12 37  1  0
 12 38  1  0
 13 39  1  0
 13 40  1  0
 18 41  1  0
 19 42  1  0
 20 43  1  0
M  END
>  <Energy>  (733) 
1461.2251446860898

>  <compound_id>  (733) 
35646

>  <target_id>  (733) 
1

>  <reference_id>  (733) 
44

>  <inspiration_ids>  (733) 
[44, 96]

>  <energy_score>  (733) 
1385.3343620712358

>  <distance_score>  (733) 
13.544900409833371

>  <path>  (733) 
/opt/xchem-fragalysis-2/maxwin/BulkDock/SCRATCH/511013/C35646-P44/C35646-P44.minimised.mol

>  <scratch_subdir>  (733) 
/opt/xchem-fragalysis-2/maxwin/BulkDock/SCRATCH/511013/C35646-P44

>  <fragmenstein_runtime>  (733) 
24.199333429336548

>  <fragmenstein_outcome>  (733) 
too moved

>  <fragmenstein_mode>  (733) 
expansion

>  <fragmenstein_error>  (733) 


$$$$
C35646-P96
     RDKit          3D

 43 44  0  0  0  0  0  0  0  0999 V2000
   -6.0827  -15.8402   33.2896 C   0  0  0  0  0  0  0  0  0  0  0  0
   -5.9517  -14.8301   34.2881 O   0  0  0  0  0  0  0  0  0  0  0  0
   -4.6569  -14.2025   34.2667 C   0  0  0  0  0  0  0  0  0  0  0  0
   -4.7740  -12.7360   34.7504 C   0  0  0  0  0  0  0  0  0  0  0  0
   -3.4319  -12.0119   35.0395 C   0  0  0  0  0  0  0  0  0  0  0  0
   -2.4639  -12.6748   35.2941 O   0  0  0  0  0  0  0  0  0  0  0  0
   -3.6207  -10.5643   35.0385 N   0  0  0  0  0  0  0  0  0  0  0  0
   -2.7164   -9.4724   35.4421 C   0  0  0  0  0  0  0  0  0  0  0  0
   -2.7188   -8.1066   34.5738 C   0  0  0  0  0  0  0  0  0  0  0  0
   -2.3011   -6.9421   35.5429 C   0  0  0  0  0  0  0  0  0  0  0  0
   -2.4735   -5.5609   34.9220 C   0  0  0  0  0  0  0  0  0  0  0  0
   -2.0185   -5.6240   33.4911 C   0  0  0  0  0  0  0  0  0  0  0  0
   -2.5349   -6.9439   32.9167 C   0  0  0  0  0  0  0  0  0  0  0  0
   -1.8021   -8.2145   33.2792 N   0  0  0  0  0  0  0  0  0  0  0  0
   -0.4322   -8.4306   33.6595 C   0  0  0  0  0  0  0  0  0  0  0  0
    0.4529   -7.6436   33.8736 O   0  0  0  0  0  0  0  0  0  0  0  0
   -0.0761   -9.8744   33.6843 C   0  0  0  0  0  0  0  0  0  0  0  0
    1.1211  -10.4368   34.2114 C   0  0  0  0  0  0  0  0  0  0  0  0
    0.9794  -11.7956   34.0759 C   0  0  0  0  0  0  0  0  0  0  0  0
   -0.2425  -11.9828   33.5029 N   0  0  0  0  0  0  0  0  0  0  0  0
   -0.8561  -10.8395   33.1659 N   0  0  0  0  0  0  0  0  0  0  0  0
   -6.9766  -16.4219   33.5154 H   0  0  0  0  0  0  0  0  0  0  0  0
   -6.2062  -15.3624   32.3131 H   0  0  0  0  0  0  0  0  0  0  0  0
   -5.2049  -16.4914   33.2676 H   0  0  0  0  0  0  0  0  0  0  0  0
   -4.2357  -14.2084   33.2541 H   0  0  0  0  0  0  0  0  0  0  0  0
   -3.9924  -14.7782   34.9194 H   0  0  0  0  0  0  0  0  0  0  0  0
   -5.3640  -12.1731   34.0270 H   0  0  0  0  0  0  0  0  0  0  0  0
   -5.3484  -12.7189   35.6856 H   0  0  0  0  0  0  0  0  0  0  0  0
   -4.5914  -10.3584   34.8536 H   0  0  0  0  0  0  0  0  0  0  0  0
   -1.7174   -9.8762   35.6047 H   0  0  0  0  0  0  0  0  0  0  0  0
   -3.0866   -9.2175   36.4433 H   0  0  0  0  0  0  0  0  0  0  0  0
   -3.7912   -8.0395   34.3253 H   0  0  0  0  0  0  0  0  0  0  0  0
   -1.2587   -7.0757   35.8549 H   0  0  0  0  0  0  0  0  0  0  0  0
   -2.9032   -6.9831   36.4587 H   0  0  0  0  0  0  0  0  0  0  0  0
   -1.9248   -4.8001   35.4864 H   0  0  0  0  0  0  0  0  0  0  0  0
   -3.5349   -5.2854   34.9562 H   0  0  0  0  0  0  0  0  0  0  0  0
   -0.9280   -5.5625   33.4230 H   0  0  0  0  0  0  0  0  0  0  0  0
   -2.4250   -4.7754   32.9297 H   0  0  0  0  0  0  0  0  0  0  0  0
   -2.2674   -6.8664   31.8513 H   0  0  0  0  0  0  0  0  0  0  0  0
   -3.6315   -6.9760   32.8489 H   0  0  0  0  0  0  0  0  0  0  0  0
    1.9474   -9.9039   34.6604 H   0  0  0  0  0  0  0  0  0  0  0  0
    1.6019  -12.6292   34.3655 H   0  0  0  0  0  0  0  0  0  0  0  0
   -0.7331  -12.8557   33.3340 H   0  0  0  0  0  0  0  0  0  0  0  0
  1  2  1  0
  2  3  1  0
  3  4  1  0
  4  5  1  0
  5  6  2  0
  5  7  1  0
  7  8  1  0
  8  9  1  0
  9 10  1  0
 10 11  1  0
 11 12  1  0
 12 13  1  0
 13 14  1  0
 14 15  1  0
 15 16  2  0
 15 17  1  0
 17 18  1  0
 18 19  2  0
 19 20  1  0
 20 21  1  0
 14  9  1  0
 21 17  2  0
  1 22  1  0
  1 23  1  0
  1 24  1  0
  3 25  1  0
  3 26  1  0
  4 27  1  0
  4 28  1  0
  7 29  1  0
  8 30  1  0
  8 31  1  0
  9 32  1  0
 10 33  1  0
 10 34  1  0
 11 35  1  0
 11 36  1  0
 12 37  1  0
 12 38  1  0
 13 39  1  0
 13 40  1  0
 18 41  1  0
 19 42  1  0
 20 43  1  0
M  END
>  <Energy>  (734) 
128.48425742370253

>  <compound_id>  (734) 
35646

>  <target_id>  (734) 
1

>  <reference_id>  (734) 
96

>  <inspiration_ids>  (734) 
[44, 96]

>  <energy_score>  (734) 
52.59347480884702

>  <distance_score>  (734) 
12.110502895765565

>  <path>  (734) 
/opt/xchem-fragalysis-2/maxwin/BulkDock/SCRATCH/511013/C35646-P96/C35646-P96.minimised.mol

>  <scratch_subdir>  (734) 
/opt/xchem-fragalysis-2/maxwin/BulkDock/SCRATCH/511013/C35646-P96

>  <fragmenstein_runtime>  (734) 
21.37912392616272

>  <fragmenstein_outcome>  (734) 
too moved

>  <fragmenstein_mode>  (734) 
expansion

>  <fragmenstein_error>  (734) 


$$$$
C35647-P44
     RDKit          3D

 37 39  0  0  0  0  0  0  0  0999 V2000
   -8.5103  -16.5253   26.8485 O   0  0  0  0  0  0  0  0  0  0  0  0
   -8.2773  -17.3015   27.7379 C   0  0  0  0  0  0  0  0  0  0  0  0
   -9.2772  -18.5444   27.9966 C   0  0  0  0  0  0  0  0  0  0  0  0
   -9.7598  -20.5494   27.8996 C   0  0  0  0  0  0  0  0  0  0  0  0
  -10.8251  -21.0183   28.7542 C   0  0  0  0  0  0  0  0  0  0  0  0
  -12.3196  -21.5666   27.2159 S   0  0  0  0  0  0  0  0  0  0  0  0
  -11.0644  -22.5827   27.3227 C   0  0  0  0  0  0  0  0  0  0  0  0
  -11.3957  -23.3117   28.4982 C   0  0  0  0  0  0  0  0  0  0  0  0
  -12.1590  -22.4823   29.6071 C   0  0  0  0  0  0  0  0  0  0  0  0
  -11.4631  -21.8985   30.8072 C   0  0  0  0  0  0  0  0  0  0  0  0
  -11.1533  -22.9848   31.6712 N   0  0  0  0  0  0  0  0  0  0  0  0
  -10.2577  -23.9810   31.1269 C   0  0  0  0  0  0  0  0  0  0  0  0
  -10.2057  -24.0075   29.1070 C   0  0  0  0  0  0  0  0  0  0  0  0
  -10.7691  -21.2542   27.0714 N   0  0  0  0  0  0  0  0  0  0  0  0
   -7.2397  -17.2834   28.7764 N   0  0  0  0  0  0  0  0  0  0  0  0
   -6.3185  -16.3523   29.0920 C   0  0  0  0  0  0  0  0  0  0  0  0
   -6.8018  -15.0251   29.3988 C   0  0  0  0  0  0  0  0  0  0  0  0
   -6.1588  -14.6654   30.5709 C   0  0  0  0  0  0  0  0  0  0  0  0
   -5.2334  -15.6472   30.7732 N   0  0  0  0  0  0  0  0  0  0  0  0
   -5.3288  -16.6849   29.9274 N   0  0  0  0  0  0  0  0  0  0  0  0
  -10.0835  -17.9022   28.4407 H   0  0  0  0  0  0  0  0  0  0  0  0
   -8.5440  -18.9363   28.6213 H   0  0  0  0  0  0  0  0  0  0  0  0
  -11.4460  -20.4014   29.3741 H   0  0  0  0  0  0  0  0  0  0  0  0
  -12.1567  -23.9397   28.0202 H   0  0  0  0  0  0  0  0  0  0  0  0
  -12.8670  -21.6656   29.3875 H   0  0  0  0  0  0  0  0  0  0  0  0
  -12.8594  -23.2321   29.8696 H   0  0  0  0  0  0  0  0  0  0  0  0
  -12.1750  -21.1324   31.1521 H   0  0  0  0  0  0  0  0  0  0  0  0
  -10.6634  -21.2017   30.7830 H   0  0  0  0  0  0  0  0  0  0  0  0
  -10.8663  -22.7702   32.5951 H   0  0  0  0  0  0  0  0  0  0  0  0
   -9.3247  -24.3226   31.6355 H   0  0  0  0  0  0  0  0  0  0  0  0
  -10.8400  -24.4640   31.8833 H   0  0  0  0  0  0  0  0  0  0  0  0
   -9.3709  -23.5293   28.5264 H   0  0  0  0  0  0  0  0  0  0  0  0
   -9.9639  -24.9982   28.7260 H   0  0  0  0  0  0  0  0  0  0  0  0
   -7.2863  -18.1374   29.3055 H   0  0  0  0  0  0  0  0  0  0  0  0
   -7.6480  -14.5433   28.9298 H   0  0  0  0  0  0  0  0  0  0  0  0
   -6.2273  -13.8153   31.2300 H   0  0  0  0  0  0  0  0  0  0  0  0
   -4.4794  -15.6803   31.4427 H   0  0  0  0  0  0  0  0  0  0  0  0
  1  2  2  0
  2  3  1  0
  3  4  1  0
  4  5  2  0
  5  6  1  0
  6  7  1  0
  7  8  1  0
  8  9  1  0
  9 10  1  0
 10 11  1  0
 11 12  1  0
 12 13  1  0
  7 14  2  0
  2 15  1  0
 15 16  1  0
 16 17  1  0
 17 18  2  0
 18 19  1  0
 19 20  1  0
 14  4  1  0
 20 16  2  0
 13  8  1  0
  3 21  1  0
  3 22  1  0
  5 23  1  0
  8 24  1  0
  9 25  1  0
  9 26  1  0
 10 27  1  0
 10 28  1  0
 11 29  1  0
 12 30  1  0
 12 31  1  0
 13 32  1  0
 13 33  1  0
 15 34  1  0
 17 35  1  0
 18 36  1  0
 19 37  1  0
M  END
>  <Energy>  (735) 
650.7336171583388

>  <compound_id>  (735) 
35647

>  <target_id>  (735) 
1

>  <reference_id>  (735) 
44

>  <inspiration_ids>  (735) 
[44, 96]

>  <energy_score>  (735) 
607.1072660337724

>  <distance_score>  (735) 
11.911382224713941

>  <path>  (735) 
/opt/xchem-fragalysis-2/maxwin/BulkDock/SCRATCH/511013/C35647-P44/C35647-P44.minimised.mol

>  <scratch_subdir>  (735) 
/opt/xchem-fragalysis-2/maxwin/BulkDock/SCRATCH/511013/C35647-P44

>  <fragmenstein_runtime>  (735) 
24.995296478271484

>  <fragmenstein_outcome>  (735) 
too moved

>  <fragmenstein_mode>  (735) 
expansion

>  <fragmenstein_error>  (735) 


$$$$
C35647-P96
     RDKit          3D

 37 39  0  0  0  0  0  0  0  0999 V2000
  -10.9837  -14.1410   26.5586 O   0  0  0  0  0  0  0  0  0  0  0  0
   -9.8948  -14.0714   27.0505 C   0  0  0  0  0  0  0  0  0  0  0  0
   -9.4021  -14.9883   28.1964 C   0  0  0  0  0  0  0  0  0  0  0  0
   -8.1237  -15.8365   28.0191 C   0  0  0  0  0  0  0  0  0  0  0  0
   -6.8409  -15.7751   28.5515 C   0  0  0  0  0  0  0  0  0  0  0  0
   -5.8507  -17.1139   27.8229 S   0  0  0  0  0  0  0  0  0  0  0  0
   -7.3228  -18.0110   27.7108 C   0  0  0  0  0  0  0  0  0  0  0  0
   -7.7756  -19.9296   27.4138 C   0  0  0  0  0  0  0  0  0  0  0  0
   -9.5478  -20.2579   28.2849 C   0  0  0  0  0  0  0  0  0  0  0  0
  -10.4178  -21.3966   28.8360 C   0  0  0  0  0  0  0  0  0  0  0  0
  -10.0373  -22.5767   28.1660 N   0  0  0  0  0  0  0  0  0  0  0  0
   -8.6442  -22.6715   28.4775 C   0  0  0  0  0  0  0  0  0  0  0  0
   -7.4517  -21.4820   27.7989 C   0  0  0  0  0  0  0  0  0  0  0  0
   -8.3483  -17.1250   27.6473 N   0  0  0  0  0  0  0  0  0  0  0  0
   -8.8444  -13.1581   26.8401 N   0  0  0  0  0  0  0  0  0  0  0  0
   -8.7086  -12.1431   25.9639 C   0  0  0  0  0  0  0  0  0  0  0  0
   -9.3023  -10.7968   24.8799 C   0  0  0  0  0  0  0  0  0  0  0  0
   -8.1419  -10.3589   24.2285 C   0  0  0  0  0  0  0  0  0  0  0  0
   -7.2654  -11.0638   24.9231 N   0  0  0  0  0  0  0  0  0  0  0  0
   -7.4466  -12.1065   25.6998 N   0  0  0  0  0  0  0  0  0  0  0  0
  -10.2427  -15.6643   28.3903 H   0  0  0  0  0  0  0  0  0  0  0  0
   -9.2878  -14.3698   29.0963 H   0  0  0  0  0  0  0  0  0  0  0  0
   -6.3466  -15.0059   29.1263 H   0  0  0  0  0  0  0  0  0  0  0  0
   -6.7369  -20.0473   27.5401 H   0  0  0  0  0  0  0  0  0  0  0  0
   -9.7804  -19.5293   29.0737 H   0  0  0  0  0  0  0  0  0  0  0  0
  -10.1937  -20.2136   27.4087 H   0  0  0  0  0  0  0  0  0  0  0  0
  -11.4744  -21.1870   28.6275 H   0  0  0  0  0  0  0  0  0  0  0  0
  -10.4100  -21.4986   29.9274 H   0  0  0  0  0  0  0  0  0  0  0  0
  -10.5557  -23.3664   28.5474 H   0  0  0  0  0  0  0  0  0  0  0  0
   -8.4567  -22.8538   29.5405 H   0  0  0  0  0  0  0  0  0  0  0  0
   -8.5542  -23.6970   28.1116 H   0  0  0  0  0  0  0  0  0  0  0  0
   -7.2881  -21.8730   26.7882 H   0  0  0  0  0  0  0  0  0  0  0  0
   -6.3878  -21.6282   28.0401 H   0  0  0  0  0  0  0  0  0  0  0  0
   -8.0411  -13.4556   27.3675 H   0  0  0  0  0  0  0  0  0  0  0  0
  -10.3310  -10.8303   24.4729 H   0  0  0  0  0  0  0  0  0  0  0  0
   -7.9395   -9.7290   23.4078 H   0  0  0  0  0  0  0  0  0  0  0  0
   -6.4816  -10.6201   25.3452 H   0  0  0  0  0  0  0  0  0  0  0  0
  1  2  2  0
  2  3  1  0
  3  4  1  0
  4  5  2  0
  5  6  1  0
  6  7  1  0
  7  8  1  0
  8  9  1  0
  9 10  1  0
 10 11  1  0
 11 12  1  0
 12 13  1  0
  7 14  2  0
  2 15  1  0
 15 16  1  0
 16 17  1  0
 17 18  2  0
 18 19  1  0
 19 20  1  0
 14  4  1  0
 20 16  2  0
 13  8  1  0
  3 21  1  0
  3 22  1  0
  5 23  1  0
  8 24  1  0
  9 25  1  0
  9 26  1  0
 10 27  1  0
 10 28  1  0
 11 29  1  0
 12 30  1  0
 12 31  1  0
 13 32  1  0
 13 33  1  0
 15 34  1  0
 17 35  1  0
 18 36  1  0
 19 37  1  0
M  END
>  <Energy>  (736) 
378.66776143087912

>  <compound_id>  (736) 
35647

>  <target_id>  (736) 
1

>  <reference_id>  (736) 
96

>  <inspiration_ids>  (736) 
[44, 96]

>  <energy_score>  (736) 
335.0414103063185

>  <distance_score>  (736) 
10.82253227422379

>  <path>  (736) 
/opt/xchem-fragalysis-2/maxwin/BulkDock/SCRATCH/511013/C35647-P96/C35647-P96.minimised.mol

>  <scratch_subdir>  (736) 
/opt/xchem-fragalysis-2/maxwin/BulkDock/SCRATCH/511013/C35647-P96

>  <fragmenstein_runtime>  (736) 
10.989233493804932

>  <fragmenstein_outcome>  (736) 
too moved

>  <fragmenstein_mode>  (736) 
expansion

>  <fragmenstein_error>  (736) 


$$$$
C15308-P44
     RDKit          3D

 57 58  0  0  0  0  0  0  0  0999 V2000
    0.1014   -5.4067   31.8694 C   0  0  0  0  0  0  0  0  0  0  0  0
   -0.0042   -6.3162   30.6504 C   0  0  0  0  0  0  0  0  0  0  0  0
   -0.5817   -7.7220   30.9581 C   0  0  0  0  0  0  0  0  0  0  0  0
   -0.6067   -8.8085   29.7944 C   0  0  0  0  0  0  0  0  0  0  0  0
   -1.3067  -10.2314   30.2749 C   0  0  0  0  0  0  0  0  0  0  0  0
   -2.2905  -11.4499   29.3496 C   0  0  0  0  0  0  0  0  0  0  0  0
   -2.9438  -13.1271   29.5412 C   0  0  0  0  0  0  0  0  0  0  0  0
   -2.7684  -14.8188   30.4734 C   0  0  0  0  0  0  0  0  0  0  0  0
   -3.4301  -16.0375   31.7989 C   0  0  0  0  0  0  0  0  0  0  0  0
   -3.0524  -17.9952   32.4622 C   0  0  0  0  0  0  0  0  0  0  0  0
   -4.0776  -19.6319   33.3585 C   0  0  0  0  0  0  0  0  0  0  0  0
   -3.3910  -20.1122   34.2403 O   0  0  0  0  0  0  0  0  0  0  0  0
   -5.7353  -20.2659   33.0782 N   0  0  0  0  0  0  0  0  0  0  0  0
   -7.1951  -19.6073   33.8804 C   0  0  0  0  0  0  0  0  0  0  0  0
   -9.0775  -20.1021   33.9811 C   0  0  0  0  0  0  0  0  0  0  0  0
   -9.5887  -21.5244   32.6456 C   0  0  0  0  0  0  0  0  0  0  0  0
   -9.7271  -23.3107   32.7641 O   0  0  0  0  0  0  0  0  0  0  0  0
  -10.7496  -21.2730   31.0075 C   0  0  0  0  0  0  0  0  0  0  0  0
  -10.9153  -21.9679   29.6632 C   0  0  0  0  0  0  0  0  0  0  0  0
  -11.9654  -21.4687   28.9185 C   0  0  0  0  0  0  0  0  0  0  0  0
  -12.5506  -20.5933   29.6937 N   0  0  0  0  0  0  0  0  0  0  0  0
  -12.0862  -21.0080   30.8727 N   0  0  0  0  0  0  0  0  0  0  0  0
   -8.0201  -21.7489   33.9072 C   0  0  0  0  0  0  0  0  0  0  0  0
   -6.4557  -21.4152   33.6908 C   0  0  0  0  0  0  0  0  0  0  0  0
   -0.8808   -5.2563   32.3286 H   0  0  0  0  0  0  0  0  0  0  0  0
    0.7683   -5.8416   32.6203 H   0  0  0  0  0  0  0  0  0  0  0  0
    0.4998   -4.4286   31.5826 H   0  0  0  0  0  0  0  0  0  0  0  0
    0.9864   -6.4203   30.1951 H   0  0  0  0  0  0  0  0  0  0  0  0
   -0.6593   -5.7854   29.9644 H   0  0  0  0  0  0  0  0  0  0  0  0
   -0.0192   -8.1473   31.7963 H   0  0  0  0  0  0  0  0  0  0  0  0
   -1.6092   -7.5867   31.3189 H   0  0  0  0  0  0  0  0  0  0  0  0
    0.4020   -8.9897   29.4141 H   0  0  0  0  0  0  0  0  0  0  0  0
   -1.1349   -8.3437   28.9776 H   0  0  0  0  0  0  0  0  0  0  0  0
   -0.6120  -10.8915   30.7046 H   0  0  0  0  0  0  0  0  0  0  0  0
   -1.8444   -9.8779   31.1636 H   0  0  0  0  0  0  0  0  0  0  0  0
   -3.2630  -11.2081   29.6636 H   0  0  0  0  0  0  0  0  0  0  0  0
   -2.2103  -11.3131   28.2814 H   0  0  0  0  0  0  0  0  0  0  0  0
   -2.2582  -13.5677   28.7722 H   0  0  0  0  0  0  0  0  0  0  0  0
   -3.9886  -12.8263   29.4290 H   0  0  0  0  0  0  0  0  0  0  0  0
   -1.8675  -15.2266   30.0232 H   0  0  0  0  0  0  0  0  0  0  0  0
   -3.6252  -15.1175   29.9592 H   0  0  0  0  0  0  0  0  0  0  0  0
   -2.8763  -15.3334   32.4330 H   0  0  0  0  0  0  0  0  0  0  0  0
   -4.4926  -15.8557   31.6206 H   0  0  0  0  0  0  0  0  0  0  0  0
   -2.2926  -18.5438   31.9319 H   0  0  0  0  0  0  0  0  0  0  0  0
   -2.1192  -17.8424   33.0795 H   0  0  0  0  0  0  0  0  0  0  0  0
   -7.3101  -18.7011   33.2799 H   0  0  0  0  0  0  0  0  0  0  0  0
   -7.0163  -19.5985   34.9627 H   0  0  0  0  0  0  0  0  0  0  0  0
   -9.3440  -20.2258   35.0442 H   0  0  0  0  0  0  0  0  0  0  0  0
   -9.6058  -19.1581   33.7399 H   0  0  0  0  0  0  0  0  0  0  0  0
  -10.6412  -23.4854   32.4616 H   0  0  0  0  0  0  0  0  0  0  0  0
  -10.3570  -22.7180   29.1319 H   0  0  0  0  0  0  0  0  0  0  0  0
  -12.2681  -21.6651   27.8995 H   0  0  0  0  0  0  0  0  0  0  0  0
  -12.8099  -21.1907   31.5438 H   0  0  0  0  0  0  0  0  0  0  0  0
   -8.2303  -21.6218   34.9983 H   0  0  0  0  0  0  0  0  0  0  0  0
   -7.9264  -22.8409   34.1053 H   0  0  0  0  0  0  0  0  0  0  0  0
   -5.9148  -22.3217   33.3778 H   0  0  0  0  0  0  0  0  0  0  0  0
   -6.0518  -21.4315   34.7254 H   0  0  0  0  0  0  0  0  0  0  0  0
  1  2  1  0
  2  3  1  0
  3  4  1  0
  4  5  1  0
  5  6  1  0
  6  7  1  0
  7  8  1  0
  8  9  1  0
  9 10  1  0
 10 11  1  0
 11 12  2  0
 11 13  1  0
 13 14  1  0
 14 15  1  0
 15 16  1  0
 16 17  1  0
 16 18  1  0
 18 19  2  0
 19 20  1  0
 20 21  2  0
 21 22  1  0
 16 23  1  0
 23 24  1  0
 24 13  1  0
 22 18  1  0
  1 25  1  0
  1 26  1  0
  1 27  1  0
  2 28  1  0
  2 29  1  0
  3 30  1  0
  3 31  1  0
  4 32  1  0
  4 33  1  0
  5 34  1  0
  5 35  1  0
  6 36  1  0
  6 37  1  0
  7 38  1  0
  7 39  1  0
  8 40  1  0
  8 41  1  0
  9 42  1  0
  9 43  1  0
 10 44  1  0
 10 45  1  0
 14 46  1  0
 14 47  1  0
 15 48  1  0
 15 49  1  0
 17 50  1  0
 19 51  1  0
 20 52  1  0
 22 53  1  0
 23 54  1  0
 23 55  1  0
 24 56  1  0
 24 57  1  0
M  END
>  <Energy>  (737) 
1163.1269604446702

>  <compound_id>  (737) 
15308

>  <target_id>  (737) 
1

>  <reference_id>  (737) 
44

>  <inspiration_ids>  (737) 
[44, 96]

>  <energy_score>  (737) 
1128.5094099633857

>  <distance_score>  (737) 
9.092944080030742

>  <path>  (737) 
/opt/xchem-fragalysis-2/maxwin/BulkDock/SCRATCH/511013/C15308-P44/C15308-P44.minimised.mol

>  <scratch_subdir>  (737) 
/opt/xchem-fragalysis-2/maxwin/BulkDock/SCRATCH/511013/C15308-P44

>  <fragmenstein_runtime>  (737) 
43.48887538909912

>  <fragmenstein_outcome>  (737) 
too moved

>  <fragmenstein_mode>  (737) 
expansion

>  <fragmenstein_error>  (737) 


$$$$
C15308-P96
     RDKit          3D

 57 58  0  0  0  0  0  0  0  0999 V2000
   -1.8025   -6.1022   30.3493 C   0  0  0  0  0  0  0  0  0  0  0  0
   -1.3512   -7.4749   29.8369 C   0  0  0  0  0  0  0  0  0  0  0  0
   -0.9527   -8.4654   31.0008 C   0  0  0  0  0  0  0  0  0  0  0  0
   -0.4743   -9.9913   30.5711 C   0  0  0  0  0  0  0  0  0  0  0  0
   -1.3784  -11.5749   30.6199 C   0  0  0  0  0  0  0  0  0  0  0  0
   -2.0247  -13.4549   30.3504 C   0  0  0  0  0  0  0  0  0  0  0  0
   -2.0278  -15.4485   30.8854 C   0  0  0  0  0  0  0  0  0  0  0  0
   -1.5525  -17.3786   30.7801 C   0  0  0  0  0  0  0  0  0  0  0  0
   -1.9796  -19.2204   29.7673 C   0  0  0  0  0  0  0  0  0  0  0  0
   -3.2461  -20.9968   30.2788 C   0  0  0  0  0  0  0  0  0  0  0  0
   -4.9497  -22.2653   29.8786 C   0  0  0  0  0  0  0  0  0  0  0  0
   -5.2064  -22.2213   28.6770 O   0  0  0  0  0  0  0  0  0  0  0  0
   -6.2586  -23.2649   31.0305 N   0  0  0  0  0  0  0  0  0  0  0  0
   -7.7029  -22.6868   31.9033 C   0  0  0  0  0  0  0  0  0  0  0  0
   -8.5872  -23.6200   32.7998 C   0  0  0  0  0  0  0  0  0  0  0  0
   -9.7601  -24.0343   31.8607 C   0  0  0  0  0  0  0  0  0  0  0  0
  -10.1356  -25.3813   32.1333 O   0  0  0  0  0  0  0  0  0  0  0  0
  -11.0185  -23.2408   31.9467 C   0  0  0  0  0  0  0  0  0  0  0  0
  -12.3162  -23.5853   31.6192 C   0  0  0  0  0  0  0  0  0  0  0  0
  -13.0571  -22.4089   31.7860 C   0  0  0  0  0  0  0  0  0  0  0  0
  -12.2935  -21.3748   32.1341 N   0  0  0  0  0  0  0  0  0  0  0  0
  -11.0813  -21.9184   32.3016 N   0  0  0  0  0  0  0  0  0  0  0  0
   -9.2376  -23.9466   30.4147 C   0  0  0  0  0  0  0  0  0  0  0  0
   -7.7384  -24.2511   30.5747 C   0  0  0  0  0  0  0  0  0  0  0  0
   -1.8713   -5.3893   29.5222 H   0  0  0  0  0  0  0  0  0  0  0  0
   -2.7939   -6.1826   30.8079 H   0  0  0  0  0  0  0  0  0  0  0  0
   -1.1248   -5.7070   31.1091 H   0  0  0  0  0  0  0  0  0  0  0  0
   -0.5319   -7.3816   29.1225 H   0  0  0  0  0  0  0  0  0  0  0  0
   -2.1756   -7.8757   29.2384 H   0  0  0  0  0  0  0  0  0  0  0  0
   -0.1335   -8.0477   31.5925 H   0  0  0  0  0  0  0  0  0  0  0  0
   -1.7837   -8.4603   31.7022 H   0  0  0  0  0  0  0  0  0  0  0  0
   -0.2000   -9.7897   29.5507 H   0  0  0  0  0  0  0  0  0  0  0  0
    0.4415  -10.1685   31.1499 H   0  0  0  0  0  0  0  0  0  0  0  0
   -1.6849  -11.5658   31.6398 H   0  0  0  0  0  0  0  0  0  0  0  0
   -0.5763  -11.8790   29.9737 H   0  0  0  0  0  0  0  0  0  0  0  0
   -2.6739  -13.2978   31.2088 H   0  0  0  0  0  0  0  0  0  0  0  0
   -0.9810  -13.4604   30.0538 H   0  0  0  0  0  0  0  0  0  0  0  0
   -1.0090  -15.5366   30.5882 H   0  0  0  0  0  0  0  0  0  0  0  0
   -2.1045  -15.5038   31.9201 H   0  0  0  0  0  0  0  0  0  0  0  0
   -0.5457  -17.0805   30.3994 H   0  0  0  0  0  0  0  0  0  0  0  0
   -2.4909  -17.3437   30.3576 H   0  0  0  0  0  0  0  0  0  0  0  0
   -0.9513  -19.5359   29.4229 H   0  0  0  0  0  0  0  0  0  0  0  0
   -2.0221  -18.7315   28.8140 H   0  0  0  0  0  0  0  0  0  0  0  0
   -3.5890  -20.0975   29.9123 H   0  0  0  0  0  0  0  0  0  0  0  0
   -2.8254  -21.7179   29.5220 H   0  0  0  0  0  0  0  0  0  0  0  0
   -7.3348  -21.9578   32.6151 H   0  0  0  0  0  0  0  0  0  0  0  0
   -8.4599  -22.2217   31.3551 H   0  0  0  0  0  0  0  0  0  0  0  0
   -8.0107  -24.4574   33.2095 H   0  0  0  0  0  0  0  0  0  0  0  0
   -8.9754  -23.0643   33.6608 H   0  0  0  0  0  0  0  0  0  0  0  0
   -9.3419  -25.9317   32.2463 H   0  0  0  0  0  0  0  0  0  0  0  0
  -12.6644  -24.5573   31.3000 H   0  0  0  0  0  0  0  0  0  0  0  0
  -14.1180  -22.2512   31.6647 H   0  0  0  0  0  0  0  0  0  0  0  0
  -10.3430  -21.3106   32.6401 H   0  0  0  0  0  0  0  0  0  0  0  0
   -9.6963  -24.7484   29.8179 H   0  0  0  0  0  0  0  0  0  0  0  0
   -9.4437  -23.0227   29.8677 H   0  0  0  0  0  0  0  0  0  0  0  0
   -7.4966  -24.5460   29.5417 H   0  0  0  0  0  0  0  0  0  0  0  0
   -7.8325  -25.1160   31.2630 H   0  0  0  0  0  0  0  0  0  0  0  0
  1  2  1  0
  2  3  1  0
  3  4  1  0
  4  5  1  0
  5  6  1  0
  6  7  1  0
  7  8  1  0
  8  9  1  0
  9 10  1  0
 10 11  1  0
 11 12  2  0
 11 13  1  0
 13 14  1  0
 14 15  1  0
 15 16  1  0
 16 17  1  0
 16 18  1  0
 18 19  2  0
 19 20  1  0
 20 21  2  0
 21 22  1  0
 16 23  1  0
 23 24  1  0
 24 13  1  0
 22 18  1  0
  1 25  1  0
  1 26  1  0
  1 27  1  0
  2 28  1  0
  2 29  1  0
  3 30  1  0
  3 31  1  0
  4 32  1  0
  4 33  1  0
  5 34  1  0
  5 35  1  0
  6 36  1  0
  6 37  1  0
  7 38  1  0
  7 39  1  0
  8 40  1  0
  8 41  1  0
  9 42  1  0
  9 43  1  0
 10 44  1  0
 10 45  1  0
 14 46  1  0
 14 47  1  0
 15 48  1  0
 15 49  1  0
 17 50  1  0
 19 51  1  0
 20 52  1  0
 22 53  1  0
 23 54  1  0
 23 55  1  0
 24 56  1  0
 24 57  1  0
M  END
>  <Energy>  (738) 
1290.2587366650848

>  <compound_id>  (738) 
15308

>  <target_id>  (738) 
1

>  <reference_id>  (738) 
96

>  <inspiration_ids>  (738) 
[44, 96]

>  <energy_score>  (738) 
1255.6411861837923

>  <distance_score>  (738) 
10.060415073225274

>  <path>  (738) 
/opt/xchem-fragalysis-2/maxwin/BulkDock/SCRATCH/511013/C15308-P96/C15308-P96.minimised.mol

>  <scratch_subdir>  (738) 
/opt/xchem-fragalysis-2/maxwin/BulkDock/SCRATCH/511013/C15308-P96

>  <fragmenstein_runtime>  (738) 
43.666025161743164

>  <fragmenstein_outcome>  (738) 
too moved

>  <fragmenstein_mode>  (738) 
expansion

>  <fragmenstein_error>  (738) 


$$$$
C15311-P44
     RDKit          3D

 45 46  0  0  0  0  0  0  0  0999 V2000
   -6.8543   -9.0569   28.2168 C   0  0  0  0  0  0  0  0  0  0  0  0
   -5.9436   -8.0809   29.2242 C   0  0  0  0  0  0  0  0  0  0  0  0
   -6.5566   -9.7461   30.2329 N   0  0  0  0  0  0  0  0  0  0  0  0
   -5.6033  -10.9397   31.3205 C   0  0  0  0  0  0  0  0  0  0  0  0
   -4.4115  -10.8285   31.6645 O   0  0  0  0  0  0  0  0  0  0  0  0
   -6.2855  -12.2385   32.0741 C   0  0  0  0  0  0  0  0  0  0  0  0
   -5.9277  -13.6729   31.6618 C   0  0  0  0  0  0  0  0  0  0  0  0
   -6.6923  -14.8253   31.4914 C   0  0  0  0  0  0  0  0  0  0  0  0
   -5.7827  -15.8832   31.3237 C   0  0  0  0  0  0  0  0  0  0  0  0
   -4.5239  -15.4585   31.4119 N   0  0  0  0  0  0  0  0  0  0  0  0
   -4.6348  -14.1242   31.5778 N   0  0  0  0  0  0  0  0  0  0  0  0
   -6.6267   -6.3084   30.3741 C   0  0  0  0  0  0  0  0  0  0  0  0
   -6.2067   -4.4679   30.4466 C   0  0  0  0  0  0  0  0  0  0  0  0
   -5.6803   -3.8020   31.7817 C   0  0  0  0  0  0  0  0  0  0  0  0
   -4.4037   -4.3098   32.3684 N   0  0  0  0  0  0  0  0  0  0  0  0
   -3.6667   -3.2276   32.9669 C   0  0  0  0  0  0  0  0  0  0  0  0
   -3.6827   -2.7996   34.0905 O   0  0  0  0  0  0  0  0  0  0  0  0
   -2.6847   -2.6488   31.9697 C   0  0  0  0  0  0  0  0  0  0  0  0
   -2.2467   -1.2792   32.4323 C   0  0  0  0  0  0  0  0  0  0  0  0
   -3.2892   -0.4061   32.3292 F   0  0  0  0  0  0  0  0  0  0  0  0
   -1.2887   -0.8112   31.5899 F   0  0  0  0  0  0  0  0  0  0  0  0
   -5.3216   -5.2959   32.9709 C   0  0  0  0  0  0  0  0  0  0  0  0
   -6.4593   -6.0725   32.2743 C   0  0  0  0  0  0  0  0  0  0  0  0
   -7.8294   -9.3069   28.6291 H   0  0  0  0  0  0  0  0  0  0  0  0
   -6.2111   -9.0769   27.3676 H   0  0  0  0  0  0  0  0  0  0  0  0
   -7.4531   -8.9944   27.2659 H   0  0  0  0  0  0  0  0  0  0  0  0
   -4.9320   -7.9438   28.8806 H   0  0  0  0  0  0  0  0  0  0  0  0
   -7.4752  -10.1184   30.0465 H   0  0  0  0  0  0  0  0  0  0  0  0
   -5.7878  -12.1637   33.0621 H   0  0  0  0  0  0  0  0  0  0  0  0
   -7.3024  -12.1363   32.4319 H   0  0  0  0  0  0  0  0  0  0  0  0
   -7.7649  -14.9328   31.5272 H   0  0  0  0  0  0  0  0  0  0  0  0
   -5.9843  -16.9359   31.1659 H   0  0  0  0  0  0  0  0  0  0  0  0
   -3.7813  -13.5803   31.6666 H   0  0  0  0  0  0  0  0  0  0  0  0
   -7.3754   -6.5539   31.1342 H   0  0  0  0  0  0  0  0  0  0  0  0
   -7.1378   -3.8708   30.3884 H   0  0  0  0  0  0  0  0  0  0  0  0
   -5.7351   -4.1613   29.5148 H   0  0  0  0  0  0  0  0  0  0  0  0
   -5.4271   -2.7885   31.4663 H   0  0  0  0  0  0  0  0  0  0  0  0
   -6.4800   -3.5408   32.5047 H   0  0  0  0  0  0  0  0  0  0  0  0
   -1.8238   -3.3205   31.8910 H   0  0  0  0  0  0  0  0  0  0  0  0
   -3.1363   -2.5562   30.9840 H   0  0  0  0  0  0  0  0  0  0  0  0
   -1.8547   -1.2474   33.4526 H   0  0  0  0  0  0  0  0  0  0  0  0
   -4.6146   -6.0575   33.3369 H   0  0  0  0  0  0  0  0  0  0  0  0
   -5.6938   -4.8858   33.9279 H   0  0  0  0  0  0  0  0  0  0  0  0
   -7.3759   -5.5345   32.6029 H   0  0  0  0  0  0  0  0  0  0  0  0
   -6.5639   -7.0346   32.7957 H   0  0  0  0  0  0  0  0  0  0  0  0
  1  2  1  0
  2  3  1  0
  3  4  1  0
  4  5  2  0
  4  6  1  0
  6  7  1  0
  7  8  2  0
  8  9  1  0
  9 10  2  0
 10 11  1  0
  2 12  1  0
 12 13  1  0
 13 14  1  0
 14 15  1  0
 15 16  1  0
 16 17  2  0
 16 18  1  0
 18 19  1  0
 19 20  1  0
 19 21  1  0
 15 22  1  0
 22 23  1  0
 11  7  1  0
 23 12  1  0
  1 24  1  0
  1 25  1  0
  1 26  1  0
  2 27  1  0
  3 28  1  0
  6 29  1  0
  6 30  1  0
  8 31  1  0
  9 32  1  0
 11 33  1  0
 12 34  1  0
 13 35  1  0
 13 36  1  0
 14 37  1  0
 14 38  1  0
 18 39  1  0
 18 40  1  0
 19 41  1  0
 22 42  1  0
 22 43  1  0
 23 44  1  0
 23 45  1  0
M  END
>  <Energy>  (739) 
655.64622127433495

>  <compound_id>  (739) 
15311

>  <target_id>  (739) 
1

>  <reference_id>  (739) 
44

>  <inspiration_ids>  (739) 
[44, 96]

>  <energy_score>  (739) 
627.812663387452

>  <distance_score>  (739) 
10.072310948476698

>  <path>  (739) 
/opt/xchem-fragalysis-2/maxwin/BulkDock/SCRATCH/511013/C15311-P44/C15311-P44.minimised.mol

>  <scratch_subdir>  (739) 
/opt/xchem-fragalysis-2/maxwin/BulkDock/SCRATCH/511013/C15311-P44

>  <fragmenstein_runtime>  (739) 
22.979544401168823

>  <fragmenstein_outcome>  (739) 
too moved

>  <fragmenstein_mode>  (739) 
expansion

>  <fragmenstein_error>  (739) 


$$$$
C15311-P96
     RDKit          3D

 45 46  0  0  0  0  0  0  0  0999 V2000
   -4.0597   -5.9785   24.0760 C   0  0  0  0  0  0  0  0  0  0  0  0
   -5.5383   -6.4513   25.3064 C   0  0  0  0  0  0  0  0  0  0  0  0
   -7.1480   -7.8311   25.4984 N   0  0  0  0  0  0  0  0  0  0  0  0
   -7.7086   -9.4188   24.4367 C   0  0  0  0  0  0  0  0  0  0  0  0
   -7.2332   -9.8252   23.4044 O   0  0  0  0  0  0  0  0  0  0  0  0
   -9.0494  -10.6746   25.0106 C   0  0  0  0  0  0  0  0  0  0  0  0
   -9.2917  -12.3029   26.0682 C   0  0  0  0  0  0  0  0  0  0  0  0
  -10.4806  -12.9988   26.4880 C   0  0  0  0  0  0  0  0  0  0  0  0
  -10.0939  -14.2113   27.0508 C   0  0  0  0  0  0  0  0  0  0  0  0
   -8.7767  -14.2795   27.0267 N   0  0  0  0  0  0  0  0  0  0  0  0
   -8.3797  -13.0027   26.7678 N   0  0  0  0  0  0  0  0  0  0  0  0
   -3.9118   -5.3323   26.1853 C   0  0  0  0  0  0  0  0  0  0  0  0
   -3.0136   -5.0183   27.7635 C   0  0  0  0  0  0  0  0  0  0  0  0
   -1.8408   -3.9543   27.7994 C   0  0  0  0  0  0  0  0  0  0  0  0
   -2.1814   -2.5215   27.5739 N   0  0  0  0  0  0  0  0  0  0  0  0
   -1.3485   -1.6794   28.3890 C   0  0  0  0  0  0  0  0  0  0  0  0
   -0.2860   -1.1706   28.1545 O   0  0  0  0  0  0  0  0  0  0  0  0
   -2.0639   -1.4241   29.6952 C   0  0  0  0  0  0  0  0  0  0  0  0
   -1.3686   -0.3477   30.4888 C   0  0  0  0  0  0  0  0  0  0  0  0
   -1.8539   -0.3655   31.7636 F   0  0  0  0  0  0  0  0  0  0  0  0
   -1.7161    0.8724   29.9953 F   0  0  0  0  0  0  0  0  0  0  0  0
   -2.0427   -2.9388   26.1387 C   0  0  0  0  0  0  0  0  0  0  0  0
   -2.7221   -4.1532   25.4128 C   0  0  0  0  0  0  0  0  0  0  0  0
   -3.6718   -6.9074   23.5958 H   0  0  0  0  0  0  0  0  0  0  0  0
   -4.1200   -5.1249   23.3891 H   0  0  0  0  0  0  0  0  0  0  0  0
   -3.0099   -5.7795   24.2864 H   0  0  0  0  0  0  0  0  0  0  0  0
   -5.8485   -6.2275   26.3425 H   0  0  0  0  0  0  0  0  0  0  0  0
   -7.6687   -7.7722   26.3624 H   0  0  0  0  0  0  0  0  0  0  0  0
   -9.9324  -10.6383   24.3790 H   0  0  0  0  0  0  0  0  0  0  0  0
   -8.0946  -11.2618   24.7805 H   0  0  0  0  0  0  0  0  0  0  0  0
  -11.5000  -12.7104   26.2587 H   0  0  0  0  0  0  0  0  0  0  0  0
  -10.6826  -15.0453   27.4077 H   0  0  0  0  0  0  0  0  0  0  0  0
   -7.4548  -12.7016   27.0428 H   0  0  0  0  0  0  0  0  0  0  0  0
   -3.0164   -5.9452   26.0893 H   0  0  0  0  0  0  0  0  0  0  0  0
   -3.6426   -4.9888   28.6473 H   0  0  0  0  0  0  0  0  0  0  0  0
   -2.3126   -5.8549   27.9625 H   0  0  0  0  0  0  0  0  0  0  0  0
   -1.5281   -4.0009   28.8566 H   0  0  0  0  0  0  0  0  0  0  0  0
   -0.9072   -4.2940   27.3281 H   0  0  0  0  0  0  0  0  0  0  0  0
   -2.1012   -2.3490   30.2781 H   0  0  0  0  0  0  0  0  0  0  0  0
   -3.0837   -1.0999   29.4686 H   0  0  0  0  0  0  0  0  0  0  0  0
   -0.2792   -0.4281   30.5314 H   0  0  0  0  0  0  0  0  0  0  0  0
   -2.4503   -2.0500   25.6328 H   0  0  0  0  0  0  0  0  0  0  0  0
   -0.9813   -2.8591   25.8491 H   0  0  0  0  0  0  0  0  0  0  0  0
   -1.8164   -4.7775   25.2521 H   0  0  0  0  0  0  0  0  0  0  0  0
   -2.9425   -3.8626   24.3951 H   0  0  0  0  0  0  0  0  0  0  0  0
  1  2  1  0
  2  3  1  0
  3  4  1  0
  4  5  2  0
  4  6  1  0
  6  7  1  0
  7  8  2  0
  8  9  1  0
  9 10  2  0
 10 11  1  0
  2 12  1  0
 12 13  1  0
 13 14  1  0
 14 15  1  0
 15 16  1  0
 16 17  2  0
 16 18  1  0
 18 19  1  0
 19 20  1  0
 19 21  1  0
 15 22  1  0
 22 23  1  0
 11  7  1  0
 23 12  1  0
  1 24  1  0
  1 25  1  0
  1 26  1  0
  2 27  1  0
  3 28  1  0
  6 29  1  0
  6 30  1  0
  8 31  1  0
  9 32  1  0
 11 33  1  0
 12 34  1  0
 13 35  1  0
 13 36  1  0
 14 37  1  0
 14 38  1  0
 18 39  1  0
 18 40  1  0
 19 41  1  0
 22 42  1  0
 22 43  1  0
 23 44  1  0
 23 45  1  0
M  END
>  <Energy>  (740) 
957.36190213249108

>  <compound_id>  (740) 
15311

>  <target_id>  (740) 
1

>  <reference_id>  (740) 
96

>  <inspiration_ids>  (740) 
[44, 96]

>  <energy_score>  (740) 
929.5283442456018

>  <distance_score>  (740) 
8.81254519552696

>  <path>  (740) 
/opt/xchem-fragalysis-2/maxwin/BulkDock/SCRATCH/511013/C15311-P96/C15311-P96.minimised.mol

>  <scratch_subdir>  (740) 
/opt/xchem-fragalysis-2/maxwin/BulkDock/SCRATCH/511013/C15311-P96

>  <fragmenstein_runtime>  (740) 
19.77292537689209

>  <fragmenstein_outcome>  (740) 
too moved

>  <fragmenstein_mode>  (740) 
expansion

>  <fragmenstein_error>  (740) 


$$$$
C12024-P44
     RDKit          3D

 45 47  0  0  0  0  0  0  0  0999 V2000
   -7.7519   -5.1251   27.7653 C   0  0  0  0  0  0  0  0  0  0  0  0
   -6.3927   -6.0268   28.9185 C   0  0  0  0  0  0  0  0  0  0  0  0
   -5.7118   -7.8805   29.0580 N   0  0  0  0  0  0  0  0  0  0  0  0
   -6.5900   -9.5243   29.3216 C   0  0  0  0  0  0  0  0  0  0  0  0
   -7.7896   -9.6565   29.3528 O   0  0  0  0  0  0  0  0  0  0  0  0
   -5.5552  -11.3241   29.7756 C   0  0  0  0  0  0  0  0  0  0  0  0
   -5.5565  -12.2074   31.2214 C   0  0  0  0  0  0  0  0  0  0  0  0
   -5.7890  -13.5813   31.3655 C   0  0  0  0  0  0  0  0  0  0  0  0
   -5.6236  -13.8549   32.7257 C   0  0  0  0  0  0  0  0  0  0  0  0
   -5.2556  -12.7646   33.3982 N   0  0  0  0  0  0  0  0  0  0  0  0
   -5.1827  -11.7965   32.4628 N   0  0  0  0  0  0  0  0  0  0  0  0
   -5.9112   -4.5706   30.1712 C   0  0  0  0  0  0  0  0  0  0  0  0
   -4.5039   -3.8879   30.3688 C   0  0  0  0  0  0  0  0  0  0  0  0
   -3.5179   -4.4399   31.3861 C   0  0  0  0  0  0  0  0  0  0  0  0
   -4.1407   -4.3838   32.6976 N   0  0  0  0  0  0  0  0  0  0  0  0
   -3.3009   -3.7119   33.6081 C   0  0  0  0  0  0  0  0  0  0  0  0
   -1.9794   -3.9691   33.5671 N   0  0  0  0  0  0  0  0  0  0  0  0
   -1.1858   -3.3447   34.4583 C   0  0  0  0  0  0  0  0  0  0  0  0
   -1.6515   -2.4621   35.3958 C   0  0  0  0  0  0  0  0  0  0  0  0
   -3.0040   -2.2484   35.3631 C   0  0  0  0  0  0  0  0  0  0  0  0
   -3.8331   -2.8461   34.4849 N   0  0  0  0  0  0  0  0  0  0  0  0
   -5.5507   -3.9768   32.7733 C   0  0  0  0  0  0  0  0  0  0  0  0
   -6.4258   -4.6523   31.6766 C   0  0  0  0  0  0  0  0  0  0  0  0
   -8.8437   -5.1708   27.8715 H   0  0  0  0  0  0  0  0  0  0  0  0
   -7.6619   -4.0290   27.8716 H   0  0  0  0  0  0  0  0  0  0  0  0
   -7.8413   -5.6290   26.8388 H   0  0  0  0  0  0  0  0  0  0  0  0
   -5.9606   -5.6408   28.0228 H   0  0  0  0  0  0  0  0  0  0  0  0
   -4.7456   -8.0297   28.9906 H   0  0  0  0  0  0  0  0  0  0  0  0
   -4.4453  -11.5885   29.7101 H   0  0  0  0  0  0  0  0  0  0  0  0
   -5.7285  -11.9535   28.8967 H   0  0  0  0  0  0  0  0  0  0  0  0
   -6.0870  -14.2762   30.5929 H   0  0  0  0  0  0  0  0  0  0  0  0
   -5.7471  -14.7916   33.2541 H   0  0  0  0  0  0  0  0  0  0  0  0
   -4.8853  -10.8771   32.7675 H   0  0  0  0  0  0  0  0  0  0  0  0
   -6.4981   -3.7641   29.7279 H   0  0  0  0  0  0  0  0  0  0  0  0
   -3.9944   -3.6479   29.4454 H   0  0  0  0  0  0  0  0  0  0  0  0
   -4.7134   -2.9239   30.8216 H   0  0  0  0  0  0  0  0  0  0  0  0
   -3.1956   -5.4635   31.1790 H   0  0  0  0  0  0  0  0  0  0  0  0
   -2.6147   -3.8198   31.2967 H   0  0  0  0  0  0  0  0  0  0  0  0
   -0.1302   -3.5906   34.3908 H   0  0  0  0  0  0  0  0  0  0  0  0
   -1.0020   -1.9752   36.1086 H   0  0  0  0  0  0  0  0  0  0  0  0
   -3.4832   -1.5721   36.0648 H   0  0  0  0  0  0  0  0  0  0  0  0
   -5.6642   -2.8864   32.6930 H   0  0  0  0  0  0  0  0  0  0  0  0
   -5.9639   -4.2659   33.7488 H   0  0  0  0  0  0  0  0  0  0  0  0
   -6.6117   -5.6848   31.9806 H   0  0  0  0  0  0  0  0  0  0  0  0
   -7.3836   -4.1209   31.7388 H   0  0  0  0  0  0  0  0  0  0  0  0
  1  2  1  0
  2  3  1  0
  3  4  1  0
  4  5  2  0
  4  6  1  0
  6  7  1  0
  7  8  2  0
  8  9  1  0
  9 10  2  0
 10 11  1  0
  2 12  1  0
 12 13  1  0
 13 14  1  0
 14 15  1  0
 15 16  1  0
 16 17  2  0
 17 18  1  0
 18 19  2  0
 19 20  1  0
 20 21  2  0
 15 22  1  0
 22 23  1  0
 11  7  1  0
 23 12  1  0
 21 16  1  0
  1 24  1  0
  1 25  1  0
  1 26  1  0
  2 27  1  0
  3 28  1  0
  6 29  1  0
  6 30  1  0
  8 31  1  0
  9 32  1  0
 11 33  1  0
 12 34  1  0
 13 35  1  0
 13 36  1  0
 14 37  1  0
 14 38  1  0
 18 39  1  0
 19 40  1  0
 20 41  1  0
 22 42  1  0
 22 43  1  0
 23 44  1  0
 23 45  1  0
M  END
>  <Energy>  (741) 
411.96903882411561

>  <compound_id>  (741) 
12024

>  <target_id>  (741) 
1

>  <reference_id>  (741) 
44

>  <inspiration_ids>  (741) 
[44, 96]

>  <energy_score>  (741) 
420.6939620707218

>  <distance_score>  (741) 
10.45881428116469

>  <path>  (741) 
/opt/xchem-fragalysis-2/maxwin/BulkDock/SCRATCH/511013/C12024-P44/C12024-P44.minimised.mol

>  <scratch_subdir>  (741) 
/opt/xchem-fragalysis-2/maxwin/BulkDock/SCRATCH/511013/C12024-P44

>  <fragmenstein_runtime>  (741) 
25.92350673675537

>  <fragmenstein_outcome>  (741) 
too moved

>  <fragmenstein_mode>  (741) 
expansion

>  <fragmenstein_error>  (741) 


$$$$
C12024-P96
     RDKit          3D

 45 47  0  0  0  0  0  0  0  0999 V2000
   -7.2426   -7.7060   25.6909 C   0  0  0  0  0  0  0  0  0  0  0  0
   -6.8740   -7.2162   27.1868 C   0  0  0  0  0  0  0  0  0  0  0  0
   -7.1938   -8.7411   27.6456 N   0  0  0  0  0  0  0  0  0  0  0  0
   -6.0987  -10.2712   27.6966 C   0  0  0  0  0  0  0  0  0  0  0  0
   -4.8893  -10.3907   27.4910 O   0  0  0  0  0  0  0  0  0  0  0  0
   -7.0302  -12.0263   27.9529 C   0  0  0  0  0  0  0  0  0  0  0  0
   -8.3796  -13.1516   27.2687 C   0  0  0  0  0  0  0  0  0  0  0  0
   -8.5552  -14.5711   27.1251 C   0  0  0  0  0  0  0  0  0  0  0  0
   -9.9125  -14.9016   27.0522 C   0  0  0  0  0  0  0  0  0  0  0  0
  -10.5928  -13.7876   26.9104 N   0  0  0  0  0  0  0  0  0  0  0  0
   -9.5954  -12.8932   26.7112 N   0  0  0  0  0  0  0  0  0  0  0  0
   -5.6130   -5.7491   26.8554 C   0  0  0  0  0  0  0  0  0  0  0  0
   -7.0438   -4.1023   27.0365 C   0  0  0  0  0  0  0  0  0  0  0  0
   -6.7148   -2.2861   28.0056 C   0  0  0  0  0  0  0  0  0  0  0  0
   -4.8026   -1.7344   28.2774 N   0  0  0  0  0  0  0  0  0  0  0  0
   -4.3818   -0.4527   28.5893 C   0  0  0  0  0  0  0  0  0  0  0  0
   -3.0621   -0.2163   28.6017 N   0  0  0  0  0  0  0  0  0  0  0  0
   -2.6466    1.0084   28.9683 C   0  0  0  0  0  0  0  0  0  0  0  0
   -3.4999    1.9997   29.3736 C   0  0  0  0  0  0  0  0  0  0  0  0
   -4.8258    1.6508   29.3790 C   0  0  0  0  0  0  0  0  0  0  0  0
   -5.2859    0.4409   29.0040 N   0  0  0  0  0  0  0  0  0  0  0  0
   -3.4386   -3.1260   28.4937 C   0  0  0  0  0  0  0  0  0  0  0  0
   -3.9018   -4.9906   27.7962 C   0  0  0  0  0  0  0  0  0  0  0  0
   -8.3024   -7.8924   25.4638 H   0  0  0  0  0  0  0  0  0  0  0  0
   -6.6340   -7.0306   25.1462 H   0  0  0  0  0  0  0  0  0  0  0  0
   -7.0334   -8.6344   25.2189 H   0  0  0  0  0  0  0  0  0  0  0  0
   -7.8711   -7.0666   27.0998 H   0  0  0  0  0  0  0  0  0  0  0  0
   -8.0926   -8.9369   27.9306 H   0  0  0  0  0  0  0  0  0  0  0  0
   -6.3521  -12.6700   28.4897 H   0  0  0  0  0  0  0  0  0  0  0  0
   -7.1173  -12.0144   26.8402 H   0  0  0  0  0  0  0  0  0  0  0  0
   -7.8227  -15.3218   27.3464 H   0  0  0  0  0  0  0  0  0  0  0  0
  -10.4068  -15.8519   27.1557 H   0  0  0  0  0  0  0  0  0  0  0  0
   -9.8064  -12.1591   26.0691 H   0  0  0  0  0  0  0  0  0  0  0  0
   -5.2002   -5.9692   25.8418 H   0  0  0  0  0  0  0  0  0  0  0  0
   -7.4922   -3.8378   26.0432 H   0  0  0  0  0  0  0  0  0  0  0  0
   -7.7119   -4.4241   27.8327 H   0  0  0  0  0  0  0  0  0  0  0  0
   -7.1433   -1.5438   27.3539 H   0  0  0  0  0  0  0  0  0  0  0  0
   -7.2434   -2.2450   28.9741 H   0  0  0  0  0  0  0  0  0  0  0  0
   -1.5725    1.1636   28.9282 H   0  0  0  0  0  0  0  0  0  0  0  0
   -3.1493    2.9766   29.6720 H   0  0  0  0  0  0  0  0  0  0  0  0
   -5.5885    2.3511   29.7022 H   0  0  0  0  0  0  0  0  0  0  0  0
   -2.5628   -2.7526   27.9321 H   0  0  0  0  0  0  0  0  0  0  0  0
   -3.1564   -3.1942   29.5581 H   0  0  0  0  0  0  0  0  0  0  0  0
   -3.0655   -5.1406   27.0884 H   0  0  0  0  0  0  0  0  0  0  0  0
   -3.7773   -5.5363   28.7547 H   0  0  0  0  0  0  0  0  0  0  0  0
  1  2  1  0
  2  3  1  0
  3  4  1  0
  4  5  2  0
  4  6  1  0
  6  7  1  0
  7  8  2  0
  8  9  1  0
  9 10  2  0
 10 11  1  0
  2 12  1  0
 12 13  1  0
 13 14  1  0
 14 15  1  0
 15 16  1  0
 16 17  2  0
 17 18  1  0
 18 19  2  0
 19 20  1  0
 20 21  2  0
 15 22  1  0
 22 23  1  0
 11  7  1  0
 23 12  1  0
 21 16  1  0
  1 24  1  0
  1 25  1  0
  1 26  1  0
  2 27  1  0
  3 28  1  0
  6 29  1  0
  6 30  1  0
  8 31  1  0
  9 32  1  0
 11 33  1  0
 12 34  1  0
 13 35  1  0
 13 36  1  0
 14 37  1  0
 14 38  1  0
 18 39  1  0
 19 40  1  0
 20 41  1  0
 22 42  1  0
 22 43  1  0
 23 44  1  0
 23 45  1  0
M  END
>  <Energy>  (742) 
831.20579209688481

>  <compound_id>  (742) 
12024

>  <target_id>  (742) 
1

>  <reference_id>  (742) 
96

>  <inspiration_ids>  (742) 
[44, 96]

>  <energy_score>  (742) 
839.9307153434931

>  <distance_score>  (742) 
8.899142682404078

>  <path>  (742) 
/opt/xchem-fragalysis-2/maxwin/BulkDock/SCRATCH/511013/C12024-P96/C12024-P96.minimised.mol

>  <scratch_subdir>  (742) 
/opt/xchem-fragalysis-2/maxwin/BulkDock/SCRATCH/511013/C12024-P96

>  <fragmenstein_runtime>  (742) 
15.303627014160156

>  <fragmenstein_outcome>  (742) 
too moved

>  <fragmenstein_mode>  (742) 
expansion

>  <fragmenstein_error>  (742) 


$$$$
C15312-P44
     RDKit          3D

 51 52  0  0  0  0  0  0  0  0999 V2000
  -15.2528   -9.1370   34.9049 C   0  0  0  0  0  0  0  0  0  0  0  0
  -14.9480   -9.5872   33.4835 C   0  0  0  0  0  0  0  0  0  0  0  0
  -14.0144  -10.8091   33.4123 C   0  0  0  0  0  0  0  0  0  0  0  0
  -12.6369  -10.5217   34.0154 C   0  0  0  0  0  0  0  0  0  0  0  0
  -13.8684  -11.2564   31.9426 C   0  0  0  0  0  0  0  0  0  0  0  0
  -12.8730  -10.9976   31.3239 O   0  0  0  0  0  0  0  0  0  0  0  0
  -15.0858  -11.8806   31.5250 N   0  0  0  0  0  0  0  0  0  0  0  0
  -14.9996  -13.3883   31.7278 C   0  0  0  0  0  0  0  0  0  0  0  0
  -13.8602  -14.1873   31.0659 C   0  0  0  0  0  0  0  0  0  0  0  0
  -13.9982  -14.2408   29.5537 C   0  0  0  0  0  0  0  0  0  0  0  0
  -14.8705  -15.4449   28.9892 C   0  0  0  0  0  0  0  0  0  0  0  0
  -16.3773  -15.3605   29.2318 C   0  0  0  0  0  0  0  0  0  0  0  0
  -14.4494  -16.8348   29.3050 N   0  0  0  0  0  0  0  0  0  0  0  0
  -13.1363  -17.4450   29.3395 C   0  0  0  0  0  0  0  0  0  0  0  0
  -12.0461  -16.9631   29.2000 O   0  0  0  0  0  0  0  0  0  0  0  0
  -13.2233  -19.3963   29.5197 C   0  0  0  0  0  0  0  0  0  0  0  0
  -12.4896  -20.8188   29.0752 C   0  0  0  0  0  0  0  0  0  0  0  0
  -11.5518  -21.5916   29.7158 C   0  0  0  0  0  0  0  0  0  0  0  0
  -11.0847  -22.5391   28.7775 C   0  0  0  0  0  0  0  0  0  0  0  0
  -11.6851  -22.4716   27.6176 N   0  0  0  0  0  0  0  0  0  0  0  0
  -12.4458  -21.4178   27.8010 N   0  0  0  0  0  0  0  0  0  0  0  0
  -14.5206  -12.8524   29.1498 C   0  0  0  0  0  0  0  0  0  0  0  0
  -15.5509  -12.3073   30.1627 C   0  0  0  0  0  0  0  0  0  0  0  0
  -15.9962   -8.3333   34.8922 H   0  0  0  0  0  0  0  0  0  0  0  0
  -14.3597   -8.7507   35.4044 H   0  0  0  0  0  0  0  0  0  0  0  0
  -15.6561   -9.9619   35.5005 H   0  0  0  0  0  0  0  0  0  0  0  0
  -15.8998   -9.8178   32.9896 H   0  0  0  0  0  0  0  0  0  0  0  0
  -14.5108   -8.7501   32.9248 H   0  0  0  0  0  0  0  0  0  0  0  0
  -14.4586  -11.6327   33.9836 H   0  0  0  0  0  0  0  0  0  0  0  0
  -12.1771   -9.6377   33.5599 H   0  0  0  0  0  0  0  0  0  0  0  0
  -12.7026  -10.3547   35.0948 H   0  0  0  0  0  0  0  0  0  0  0  0
  -11.9587  -11.3675   33.8555 H   0  0  0  0  0  0  0  0  0  0  0  0
  -15.9803  -13.8878   31.6908 H   0  0  0  0  0  0  0  0  0  0  0  0
  -14.7742  -13.4772   32.8023 H   0  0  0  0  0  0  0  0  0  0  0  0
  -13.8374  -15.1997   31.4846 H   0  0  0  0  0  0  0  0  0  0  0  0
  -12.9054  -13.7328   31.3361 H   0  0  0  0  0  0  0  0  0  0  0  0
  -12.9980  -14.3769   29.1226 H   0  0  0  0  0  0  0  0  0  0  0  0
  -14.7445  -15.3893   27.8995 H   0  0  0  0  0  0  0  0  0  0  0  0
  -16.8067  -14.4445   28.8213 H   0  0  0  0  0  0  0  0  0  0  0  0
  -16.8926  -16.1887   28.7300 H   0  0  0  0  0  0  0  0  0  0  0  0
  -16.6209  -15.4407   30.2941 H   0  0  0  0  0  0  0  0  0  0  0  0
  -15.1512  -17.5578   29.3804 H   0  0  0  0  0  0  0  0  0  0  0  0
  -12.4885  -19.1262   28.8260 H   0  0  0  0  0  0  0  0  0  0  0  0
  -14.2768  -19.3206   29.6671 H   0  0  0  0  0  0  0  0  0  0  0  0
  -11.2512  -21.4256   30.7261 H   0  0  0  0  0  0  0  0  0  0  0  0
  -10.3632  -23.3275   28.8158 H   0  0  0  0  0  0  0  0  0  0  0  0
  -12.8393  -21.1199   26.9258 H   0  0  0  0  0  0  0  0  0  0  0  0
  -13.6986  -12.1393   29.0943 H   0  0  0  0  0  0  0  0  0  0  0  0
  -14.9623  -12.8880   28.1473 H   0  0  0  0  0  0  0  0  0  0  0  0
  -16.5306  -12.8064   30.1686 H   0  0  0  0  0  0  0  0  0  0  0  0
  -15.8216  -11.3305   29.7297 H   0  0  0  0  0  0  0  0  0  0  0  0
  1  2  1  0
  2  3  1  0
  3  4  1  0
  3  5  1  0
  5  6  2  0
  5  7  1  0
  7  8  1  0
  8  9  1  0
  9 10  1  0
 10 11  1  0
 11 12  1  0
 11 13  1  0
 13 14  1  0
 14 15  2  0
 14 16  1  0
 16 17  1  0
 17 18  2  0
 18 19  1  0
 19 20  2  0
 20 21  1  0
 10 22  1  0
 22 23  1  0
 23  7  1  0
 21 17  1  0
  1 24  1  0
  1 25  1  0
  1 26  1  0
  2 27  1  0
  2 28  1  0
  3 29  1  0
  4 30  1  0
  4 31  1  0
  4 32  1  0
  8 33  1  0
  8 34  1  0
  9 35  1  0
  9 36  1  0
 10 37  1  0
 11 38  1  0
 12 39  1  0
 12 40  1  0
 12 41  1  0
 13 42  1  0
 16 43  1  0
 16 44  1  0
 18 45  1  0
 19 46  1  0
 21 47  1  0
 22 48  1  0
 22 49  1  0
 23 50  1  0
 23 51  1  0
M  END
>  <Energy>  (743) 
240.88311437357683

>  <compound_id>  (743) 
15312

>  <target_id>  (743) 
1

>  <reference_id>  (743) 
44

>  <inspiration_ids>  (743) 
[44, 96]

>  <energy_score>  (743) 
176.07768682211884

>  <distance_score>  (743) 
15.686623474595471

>  <path>  (743) 
/opt/xchem-fragalysis-2/maxwin/BulkDock/SCRATCH/511013/C15312-P44/C15312-P44.minimised.mol

>  <scratch_subdir>  (743) 
/opt/xchem-fragalysis-2/maxwin/BulkDock/SCRATCH/511013/C15312-P44

>  <fragmenstein_runtime>  (743) 
35.51487851142883

>  <fragmenstein_outcome>  (743) 
too moved

>  <fragmenstein_mode>  (743) 
expansion

>  <fragmenstein_error>  (743) 


$$$$
C15312-P96
     RDKit          3D

 51 52  0  0  0  0  0  0  0  0999 V2000
    1.7959   -0.8493   26.8105 C   0  0  0  0  0  0  0  0  0  0  0  0
    0.4276   -1.3734   27.2299 C   0  0  0  0  0  0  0  0  0  0  0  0
    0.4191   -2.3091   28.4784 C   0  0  0  0  0  0  0  0  0  0  0  0
    1.3250   -1.6327   29.5673 C   0  0  0  0  0  0  0  0  0  0  0  0
   -1.0344   -2.2966   29.2721 C   0  0  0  0  0  0  0  0  0  0  0  0
   -2.7292   -3.0081   28.7935 O   0  0  0  0  0  0  0  0  0  0  0  0
   -1.5721   -2.2273   29.5867 N   0  0  0  0  0  0  0  0  0  0  0  0
   -1.5192   -3.2958   30.7156 C   0  0  0  0  0  0  0  0  0  0  0  0
   -2.3814   -4.5855   30.6524 C   0  0  0  0  0  0  0  0  0  0  0  0
   -2.1414   -5.6025   29.4939 C   0  0  0  0  0  0  0  0  0  0  0  0
   -2.9934   -7.0504   29.7293 C   0  0  0  0  0  0  0  0  0  0  0  0
   -4.3730   -6.7118   30.2303 C   0  0  0  0  0  0  0  0  0  0  0  0
   -2.9894   -8.4513   28.8026 N   0  0  0  0  0  0  0  0  0  0  0  0
   -4.1206   -9.6426   28.6601 C   0  0  0  0  0  0  0  0  0  0  0  0
   -5.2536   -9.7172   29.1412 O   0  0  0  0  0  0  0  0  0  0  0  0
   -3.7763  -10.9623   27.9251 C   0  0  0  0  0  0  0  0  0  0  0  0
   -2.8288  -12.7250   27.9978 C   0  0  0  0  0  0  0  0  0  0  0  0
   -1.7543  -13.3490   27.2994 C   0  0  0  0  0  0  0  0  0  0  0  0
   -1.6102  -14.6908   27.7107 C   0  0  0  0  0  0  0  0  0  0  0  0
   -2.5546  -15.0319   28.5584 N   0  0  0  0  0  0  0  0  0  0  0  0
   -3.3207  -13.9420   28.6076 N   0  0  0  0  0  0  0  0  0  0  0  0
   -2.1592   -4.9612   28.1085 C   0  0  0  0  0  0  0  0  0  0  0  0
   -1.3138   -3.4933   28.0526 C   0  0  0  0  0  0  0  0  0  0  0  0
    2.1662   -0.0893   27.5050 H   0  0  0  0  0  0  0  0  0  0  0  0
    2.5281   -1.6601   26.7542 H   0  0  0  0  0  0  0  0  0  0  0  0
    1.7303   -0.3799   25.8233 H   0  0  0  0  0  0  0  0  0  0  0  0
   -0.2429   -0.5216   27.3975 H   0  0  0  0  0  0  0  0  0  0  0  0
    0.0279   -1.9124   26.3649 H   0  0  0  0  0  0  0  0  0  0  0  0
    1.0095   -3.2126   28.3144 H   0  0  0  0  0  0  0  0  0  0  0  0
    1.2840   -2.1852   30.5119 H   0  0  0  0  0  0  0  0  0  0  0  0
    2.3760   -1.6195   29.2609 H   0  0  0  0  0  0  0  0  0  0  0  0
    1.0065   -0.6037   29.7696 H   0  0  0  0  0  0  0  0  0  0  0  0
   -0.4841   -3.5802   30.9570 H   0  0  0  0  0  0  0  0  0  0  0  0
   -1.8624   -2.7415   31.6056 H   0  0  0  0  0  0  0  0  0  0  0  0
   -2.2339   -5.1128   31.6040 H   0  0  0  0  0  0  0  0  0  0  0  0
   -3.4017   -4.2591   30.6448 H   0  0  0  0  0  0  0  0  0  0  0  0
   -1.0924   -5.7491   29.6608 H   0  0  0  0  0  0  0  0  0  0  0  0
   -2.5364   -7.4168   30.6492 H   0  0  0  0  0  0  0  0  0  0  0  0
   -5.1037   -7.5043   30.2970 H   0  0  0  0  0  0  0  0  0  0  0  0
   -4.7799   -5.9916   29.5563 H   0  0  0  0  0  0  0  0  0  0  0  0
   -4.3035   -6.3201   31.2494 H   0  0  0  0  0  0  0  0  0  0  0  0
   -2.1264   -8.7449   28.3444 H   0  0  0  0  0  0  0  0  0  0  0  0
   -4.7217  -11.4052   28.2775 H   0  0  0  0  0  0  0  0  0  0  0  0
   -3.9384  -10.5104   26.9408 H   0  0  0  0  0  0  0  0  0  0  0  0
   -1.0804  -12.9494   26.5653 H   0  0  0  0  0  0  0  0  0  0  0  0
   -0.8650  -15.4163   27.4111 H   0  0  0  0  0  0  0  0  0  0  0  0
   -4.2486  -14.1445   28.9421 H   0  0  0  0  0  0  0  0  0  0  0  0
   -1.6861   -5.6256   27.3761 H   0  0  0  0  0  0  0  0  0  0  0  0
   -3.1794   -4.8498   27.7650 H   0  0  0  0  0  0  0  0  0  0  0  0
   -1.5161   -2.9896   27.0829 H   0  0  0  0  0  0  0  0  0  0  0  0
   -0.3855   -4.0651   28.1100 H   0  0  0  0  0  0  0  0  0  0  0  0
  1  2  1  0
  2  3  1  0
  3  4  1  0
  3  5  1  0
  5  6  2  0
  5  7  1  0
  7  8  1  0
  8  9  1  0
  9 10  1  0
 10 11  1  0
 11 12  1  0
 11 13  1  0
 13 14  1  0
 14 15  2  0
 14 16  1  0
 16 17  1  0
 17 18  2  0
 18 19  1  0
 19 20  2  0
 20 21  1  0
 10 22  1  0
 22 23  1  0
 23  7  1  0
 21 17  1  0
  1 24  1  0
  1 25  1  0
  1 26  1  0
  2 27  1  0
  2 28  1  0
  3 29  1  0
  4 30  1  0
  4 31  1  0
  4 32  1  0
  8 33  1  0
  8 34  1  0
  9 35  1  0
  9 36  1  0
 10 37  1  0
 11 38  1  0
 12 39  1  0
 12 40  1  0
 12 41  1  0
 13 42  1  0
 16 43  1  0
 16 44  1  0
 18 45  1  0
 19 46  1  0
 21 47  1  0
 22 48  1  0
 22 49  1  0
 23 50  1  0
 23 51  1  0
M  END
>  <Energy>  (744) 
1919.22051006941

>  <compound_id>  (744) 
15312

>  <target_id>  (744) 
1

>  <reference_id>  (744) 
96

>  <inspiration_ids>  (744) 
[44, 96]

>  <energy_score>  (744) 
1854.415082517958

>  <distance_score>  (744) 
10.137488863015111

>  <path>  (744) 
/opt/xchem-fragalysis-2/maxwin/BulkDock/SCRATCH/511013/C15312-P96/C15312-P96.minimised.mol

>  <scratch_subdir>  (744) 
/opt/xchem-fragalysis-2/maxwin/BulkDock/SCRATCH/511013/C15312-P96

>  <fragmenstein_runtime>  (744) 
16.889150142669678

>  <fragmenstein_outcome>  (744) 
too moved

>  <fragmenstein_mode>  (744) 
expansion

>  <fragmenstein_error>  (744) 


$$$$
C15313-P44
     RDKit          3D

 45 46  0  0  0  0  0  0  0  0999 V2000
   -4.7265   -7.3624   22.4430 C   0  0  0  0  0  0  0  0  0  0  0  0
   -3.7169   -8.8295   22.5393 C   0  0  0  0  0  0  0  0  0  0  0  0
   -4.0666  -10.5642   23.5102 N   0  0  0  0  0  0  0  0  0  0  0  0
   -5.8061  -11.4769   23.9538 C   0  0  0  0  0  0  0  0  0  0  0  0
   -6.9295  -11.0588   23.6525 O   0  0  0  0  0  0  0  0  0  0  0  0
   -5.8629  -12.6795   24.5247 C   0  0  0  0  0  0  0  0  0  0  0  0
   -6.9640  -13.3792   25.9819 C   0  0  0  0  0  0  0  0  0  0  0  0
   -7.3388  -13.4124   27.3104 C   0  0  0  0  0  0  0  0  0  0  0  0
   -8.4668  -14.2985   27.5933 C   0  0  0  0  0  0  0  0  0  0  0  0
   -8.7158  -15.0613   26.5399 N   0  0  0  0  0  0  0  0  0  0  0  0
   -7.7727  -14.6100   25.6604 N   0  0  0  0  0  0  0  0  0  0  0  0
   -2.4882   -7.2819   22.1252 C   0  0  0  0  0  0  0  0  0  0  0  0
   -1.9060   -6.2652   23.1478 C   0  0  0  0  0  0  0  0  0  0  0  0
   -1.3244   -5.0757   22.4168 C   0  0  0  0  0  0  0  0  0  0  0  0
   -2.5263   -4.2490   22.1085 N   0  0  0  0  0  0  0  0  0  0  0  0
   -2.3054   -2.8839   22.5098 C   0  0  0  0  0  0  0  0  0  0  0  0
   -1.8615   -1.9652   21.8999 O   0  0  0  0  0  0  0  0  0  0  0  0
   -2.9197   -2.8404   24.0067 C   0  0  0  0  0  0  0  0  0  0  0  0
   -3.0425   -1.9577   25.4607 C   0  0  0  0  0  0  0  0  0  0  0  0
   -2.7762   -0.6400   25.5816 F   0  0  0  0  0  0  0  0  0  0  0  0
   -2.3742   -4.9143   20.7745 C   0  0  0  0  0  0  0  0  0  0  0  0
   -2.7948   -6.4302   20.7238 C   0  0  0  0  0  0  0  0  0  0  0  0
   -5.0851   -7.1114   23.3907 H   0  0  0  0  0  0  0  0  0  0  0  0
   -4.2425   -6.4274   22.2556 H   0  0  0  0  0  0  0  0  0  0  0  0
   -5.5357   -7.1860   21.7230 H   0  0  0  0  0  0  0  0  0  0  0  0
   -3.7027   -9.3598   21.5949 H   0  0  0  0  0  0  0  0  0  0  0  0
   -3.3008  -11.1383   23.7880 H   0  0  0  0  0  0  0  0  0  0  0  0
   -5.9918  -13.3711   23.6718 H   0  0  0  0  0  0  0  0  0  0  0  0
   -4.7645  -12.5923   24.5112 H   0  0  0  0  0  0  0  0  0  0  0  0
   -6.8270  -12.9131   28.0734 H   0  0  0  0  0  0  0  0  0  0  0  0
   -8.9764  -14.4920   28.5247 H   0  0  0  0  0  0  0  0  0  0  0  0
   -7.6602  -15.0362   24.7702 H   0  0  0  0  0  0  0  0  0  0  0  0
   -1.4650   -7.4568   21.7643 H   0  0  0  0  0  0  0  0  0  0  0  0
   -2.6849   -5.8758   23.7496 H   0  0  0  0  0  0  0  0  0  0  0  0
   -1.1341   -6.6578   23.8003 H   0  0  0  0  0  0  0  0  0  0  0  0
   -0.7423   -4.5205   23.1567 H   0  0  0  0  0  0  0  0  0  0  0  0
   -0.5286   -5.3098   21.6865 H   0  0  0  0  0  0  0  0  0  0  0  0
   -2.7430   -3.8512   24.3521 H   0  0  0  0  0  0  0  0  0  0  0  0
   -3.9273   -2.9806   23.7199 H   0  0  0  0  0  0  0  0  0  0  0  0
   -2.4920   -2.3787   26.2900 H   0  0  0  0  0  0  0  0  0  0  0  0
   -4.0226   -2.0761   25.8715 H   0  0  0  0  0  0  0  0  0  0  0  0
   -1.4665   -4.6487   20.2039 H   0  0  0  0  0  0  0  0  0  0  0  0
   -3.1352   -4.3951   20.1703 H   0  0  0  0  0  0  0  0  0  0  0  0
   -3.8306   -6.5004   20.3785 H   0  0  0  0  0  0  0  0  0  0  0  0
   -2.2318   -6.9031   19.9061 H   0  0  0  0  0  0  0  0  0  0  0  0
  1  2  1  0
  2  3  1  0
  3  4  1  0
  4  5  2  0
  4  6  1  0
  6  7  1  0
  7  8  2  0
  8  9  1  0
  9 10  2  0
 10 11  1  0
  2 12  1  0
 12 13  1  0
 13 14  1  0
 14 15  1  0
 15 16  1  0
 16 17  2  0
 16 18  1  0
 18 19  1  0
 19 20  1  0
 15 21  1  0
 21 22  1  0
 11  7  1  0
 22 12  1  0
  1 23  1  0
  1 24  1  0
  1 25  1  0
  2 26  1  0
  3 27  1  0
  6 28  1  0
  6 29  1  0
  8 30  1  0
  9 31  1  0
 11 32  1  0
 12 33  1  0
 13 34  1  0
 13 35  1  0
 14 36  1  0
 14 37  1  0
 18 38  1  0
 18 39  1  0
 19 40  1  0
 19 41  1  0
 21 42  1  0
 21 43  1  0
 22 44  1  0
 22 45  1  0
M  END
>  <Energy>  (745) 
687.92732540435338

>  <compound_id>  (745) 
15313

>  <target_id>  (745) 
1

>  <reference_id>  (745) 
44

>  <inspiration_ids>  (745) 
[44, 96]

>  <energy_score>  (745) 
642.4933252793554

>  <distance_score>  (745) 
10.284009126944929

>  <path>  (745) 
/opt/xchem-fragalysis-2/maxwin/BulkDock/SCRATCH/511013/C15313-P44/C15313-P44.minimised.mol

>  <scratch_subdir>  (745) 
/opt/xchem-fragalysis-2/maxwin/BulkDock/SCRATCH/511013/C15313-P44

>  <fragmenstein_runtime>  (745) 
21.622228384017944

>  <fragmenstein_outcome>  (745) 
too moved

>  <fragmenstein_mode>  (745) 
expansion

>  <fragmenstein_error>  (745) 


$$$$
C15313-P96
     RDKit          3D

 45 46  0  0  0  0  0  0  0  0999 V2000
   -4.1878   -5.8659   24.2860 C   0  0  0  0  0  0  0  0  0  0  0  0
   -5.5838   -6.4198   25.5775 C   0  0  0  0  0  0  0  0  0  0  0  0
   -6.8004   -8.1452   25.4163 N   0  0  0  0  0  0  0  0  0  0  0  0
   -6.2942  -10.1095   25.4843 C   0  0  0  0  0  0  0  0  0  0  0  0
   -5.1460  -10.5560   25.7290 O   0  0  0  0  0  0  0  0  0  0  0  0
   -7.6331  -11.2303   25.0165 C   0  0  0  0  0  0  0  0  0  0  0  0
   -8.2923  -12.4109   26.0677 C   0  0  0  0  0  0  0  0  0  0  0  0
   -7.9510  -13.1228   27.1736 C   0  0  0  0  0  0  0  0  0  0  0  0
   -8.7740  -14.3064   27.0740 C   0  0  0  0  0  0  0  0  0  0  0  0
   -9.9581  -13.9726   26.6479 N   0  0  0  0  0  0  0  0  0  0  0  0
   -9.6631  -12.7434   26.2098 N   0  0  0  0  0  0  0  0  0  0  0  0
   -3.9183   -5.3669   26.4633 C   0  0  0  0  0  0  0  0  0  0  0  0
   -2.6054   -4.2347   25.8106 C   0  0  0  0  0  0  0  0  0  0  0  0
   -1.6605   -3.4958   26.8211 C   0  0  0  0  0  0  0  0  0  0  0  0
   -2.3271   -2.5955   27.8296 N   0  0  0  0  0  0  0  0  0  0  0  0
   -1.5494   -1.4091   28.0249 C   0  0  0  0  0  0  0  0  0  0  0  0
   -0.6742   -1.1701   28.8120 O   0  0  0  0  0  0  0  0  0  0  0  0
   -2.0887   -0.3417   27.0845 C   0  0  0  0  0  0  0  0  0  0  0  0
   -1.4429    1.0004   27.3508 C   0  0  0  0  0  0  0  0  0  0  0  0
   -2.1066    1.9492   26.6337 F   0  0  0  0  0  0  0  0  0  0  0  0
   -2.3752   -3.8607   28.6045 C   0  0  0  0  0  0  0  0  0  0  0  0
   -3.2502   -5.0913   28.1738 C   0  0  0  0  0  0  0  0  0  0  0  0
   -3.1892   -5.6010   24.5390 H   0  0  0  0  0  0  0  0  0  0  0  0
   -4.1857   -5.0515   23.5596 H   0  0  0  0  0  0  0  0  0  0  0  0
   -3.7848   -6.7290   23.7241 H   0  0  0  0  0  0  0  0  0  0  0  0
   -6.0813   -6.1817   26.5231 H   0  0  0  0  0  0  0  0  0  0  0  0
   -7.8117   -8.0497   25.2843 H   0  0  0  0  0  0  0  0  0  0  0  0
   -7.2842  -11.6357   24.1028 H   0  0  0  0  0  0  0  0  0  0  0  0
   -8.4195  -10.5931   24.5556 H   0  0  0  0  0  0  0  0  0  0  0  0
   -6.9891  -13.0216   27.6413 H   0  0  0  0  0  0  0  0  0  0  0  0
   -8.5920  -15.3394   27.3331 H   0  0  0  0  0  0  0  0  0  0  0  0
  -10.4439  -12.2393   25.8163 H   0  0  0  0  0  0  0  0  0  0  0  0
   -3.0092   -5.9759   26.3029 H   0  0  0  0  0  0  0  0  0  0  0  0
   -2.9603   -3.5185   25.0908 H   0  0  0  0  0  0  0  0  0  0  0  0
   -1.8441   -4.8301   25.2713 H   0  0  0  0  0  0  0  0  0  0  0  0
   -0.8182   -4.1080   27.1732 H   0  0  0  0  0  0  0  0  0  0  0  0
   -1.1073   -2.8048   26.1625 H   0  0  0  0  0  0  0  0  0  0  0  0
   -3.1728   -0.2555   27.2244 H   0  0  0  0  0  0  0  0  0  0  0  0
   -1.9148   -0.6328   26.0434 H   0  0  0  0  0  0  0  0  0  0  0  0
   -1.5046    1.2844   28.4059 H   0  0  0  0  0  0  0  0  0  0  0  0
   -0.3925    1.0125   27.0450 H   0  0  0  0  0  0  0  0  0  0  0  0
   -2.8320   -3.5188   29.5451 H   0  0  0  0  0  0  0  0  0  0  0  0
   -1.3854   -4.1481   29.0078 H   0  0  0  0  0  0  0  0  0  0  0  0
   -3.9197   -5.4412   28.9686 H   0  0  0  0  0  0  0  0  0  0  0  0
   -2.4048   -5.8104   28.2631 H   0  0  0  0  0  0  0  0  0  0  0  0
  1  2  1  0
  2  3  1  0
  3  4  1  0
  4  5  2  0
  4  6  1  0
  6  7  1  0
  7  8  2  0
  8  9  1  0
  9 10  2  0
 10 11  1  0
  2 12  1  0
 12 13  1  0
 13 14  1  0
 14 15  1  0
 15 16  1  0
 16 17  2  0
 16 18  1  0
 18 19  1  0
 19 20  1  0
 15 21  1  0
 21 22  1  0
 11  7  1  0
 22 12  1  0
  1 23  1  0
  1 24  1  0
  1 25  1  0
  2 26  1  0
  3 27  1  0
  6 28  1  0
  6 29  1  0
  8 30  1  0
  9 31  1  0
 11 32  1  0
 12 33  1  0
 13 34  1  0
 13 35  1  0
 14 36  1  0
 14 37  1  0
 18 38  1  0
 18 39  1  0
 19 40  1  0
 19 41  1  0
 21 42  1  0
 21 43  1  0
 22 44  1  0
 22 45  1  0
M  END
>  <Energy>  (746) 
824.81414439308674

>  <compound_id>  (746) 
15313

>  <target_id>  (746) 
1

>  <reference_id>  (746) 
96

>  <inspiration_ids>  (746) 
[44, 96]

>  <energy_score>  (746) 
779.380144268081

>  <distance_score>  (746) 
8.79466188709378

>  <path>  (746) 
/opt/xchem-fragalysis-2/maxwin/BulkDock/SCRATCH/511013/C15313-P96/C15313-P96.minimised.mol

>  <scratch_subdir>  (746) 
/opt/xchem-fragalysis-2/maxwin/BulkDock/SCRATCH/511013/C15313-P96

>  <fragmenstein_runtime>  (746) 
25.03951096534729

>  <fragmenstein_outcome>  (746) 
too moved

>  <fragmenstein_mode>  (746) 
expansion

>  <fragmenstein_error>  (746) 


$$$$
C15314-P44
     RDKit          3D

 49 50  0  0  0  0  0  0  0  0999 V2000
   -4.6496   -2.7882   26.9426 C   0  0  0  0  0  0  0  0  0  0  0  0
   -5.1157   -3.8093   28.0770 C   0  0  0  0  0  0  0  0  0  0  0  0
   -6.1014   -5.6769   27.7950 N   0  0  0  0  0  0  0  0  0  0  0  0
   -6.8136   -6.6469   26.1647 C   0  0  0  0  0  0  0  0  0  0  0  0
   -6.8982   -6.2842   24.9709 O   0  0  0  0  0  0  0  0  0  0  0  0
   -7.3498   -8.7592   26.5634 C   0  0  0  0  0  0  0  0  0  0  0  0
   -7.4078  -10.6617   25.7133 C   0  0  0  0  0  0  0  0  0  0  0  0
   -6.4588  -11.9854   25.8217 C   0  0  0  0  0  0  0  0  0  0  0  0
   -7.0809  -13.6033   26.6318 C   0  0  0  0  0  0  0  0  0  0  0  0
   -8.2811  -13.2568   27.0193 N   0  0  0  0  0  0  0  0  0  0  0  0
   -7.5197  -12.2151   26.4346 N   0  0  0  0  0  0  0  0  0  0  0  0
   -3.2992   -3.0838   28.9496 C   0  0  0  0  0  0  0  0  0  0  0  0
   -2.5151   -1.5977   28.4295 C   0  0  0  0  0  0  0  0  0  0  0  0
   -1.6698   -1.0307   29.5955 C   0  0  0  0  0  0  0  0  0  0  0  0
   -0.2389   -1.4952   29.6992 N   0  0  0  0  0  0  0  0  0  0  0  0
    0.5368   -0.5445   30.4434 C   0  0  0  0  0  0  0  0  0  0  0  0
    0.7704   -0.4786   31.6245 O   0  0  0  0  0  0  0  0  0  0  0  0
    1.1443    0.5454   29.4693 C   0  0  0  0  0  0  0  0  0  0  0  0
    1.6459   -0.0678   28.1590 C   0  0  0  0  0  0  0  0  0  0  0  0
    2.3065    1.2609   30.1726 C   0  0  0  0  0  0  0  0  0  0  0  0
    0.1640    1.5412   29.1577 O   0  0  0  0  0  0  0  0  0  0  0  0
   -0.9048   -2.7558   30.1301 C   0  0  0  0  0  0  0  0  0  0  0  0
   -1.6080   -3.6045   29.0503 C   0  0  0  0  0  0  0  0  0  0  0  0
   -3.6806   -2.7069   26.3981 H   0  0  0  0  0  0  0  0  0  0  0  0
   -5.2946   -2.4680   26.1465 H   0  0  0  0  0  0  0  0  0  0  0  0
   -4.3415   -1.9974   27.5284 H   0  0  0  0  0  0  0  0  0  0  0  0
   -5.8399   -3.5285   28.8281 H   0  0  0  0  0  0  0  0  0  0  0  0
   -6.2597   -6.2363   28.6415 H   0  0  0  0  0  0  0  0  0  0  0  0
   -7.3792   -8.8663   25.4666 H   0  0  0  0  0  0  0  0  0  0  0  0
   -6.5714   -9.0755   27.2681 H   0  0  0  0  0  0  0  0  0  0  0  0
   -5.6862  -11.7476   26.6284 H   0  0  0  0  0  0  0  0  0  0  0  0
   -6.6567  -14.0447   27.5105 H   0  0  0  0  0  0  0  0  0  0  0  0
   -7.1103  -12.0933   27.3692 H   0  0  0  0  0  0  0  0  0  0  0  0
   -3.4301   -2.8667   30.0584 H   0  0  0  0  0  0  0  0  0  0  0  0
   -1.9003   -1.7613   27.5356 H   0  0  0  0  0  0  0  0  0  0  0  0
   -3.1422   -0.7827   28.1277 H   0  0  0  0  0  0  0  0  0  0  0  0
   -1.5886    0.0336   29.3428 H   0  0  0  0  0  0  0  0  0  0  0  0
   -2.2042   -0.9625   30.5603 H   0  0  0  0  0  0  0  0  0  0  0  0
    2.1527    0.6832   27.5421 H   0  0  0  0  0  0  0  0  0  0  0  0
    2.3396   -0.8952   28.3404 H   0  0  0  0  0  0  0  0  0  0  0  0
    0.8129   -0.4404   27.5531 H   0  0  0  0  0  0  0  0  0  0  0  0
    1.9569    1.7908   31.0664 H   0  0  0  0  0  0  0  0  0  0  0  0
    2.7557    2.0197   29.5217 H   0  0  0  0  0  0  0  0  0  0  0  0
    3.0885    0.5562   30.4751 H   0  0  0  0  0  0  0  0  0  0  0  0
    0.6035    2.2492   28.6557 H   0  0  0  0  0  0  0  0  0  0  0  0
   -1.4247   -2.7067   31.1027 H   0  0  0  0  0  0  0  0  0  0  0  0
   -0.0239   -3.3554   30.4138 H   0  0  0  0  0  0  0  0  0  0  0  0
   -1.0690   -3.4442   28.1038 H   0  0  0  0  0  0  0  0  0  0  0  0
   -1.3422   -4.6307   29.2631 H   0  0  0  0  0  0  0  0  0  0  0  0
  1  2  1  0
  2  3  1  0
  3  4  1  0
  4  5  2  0
  4  6  1  0
  6  7  1  0
  7  8  2  0
  8  9  1  0
  9 10  2  0
 10 11  1  0
  2 12  1  0
 12 13  1  0
 13 14  1  0
 14 15  1  0
 15 16  1  0
 16 17  2  0
 16 18  1  0
 18 19  1  0
 18 20  1  0
 18 21  1  0
 15 22  1  0
 22 23  1  0
 11  7  1  0
 23 12  1  0
  1 24  1  0
  1 25  1  0
  1 26  1  0
  2 27  1  0
  3 28  1  0
  6 29  1  0
  6 30  1  0
  8 31  1  0
  9 32  1  0
 11 33  1  0
 12 34  1  0
 13 35  1  0
 13 36  1  0
 14 37  1  0
 14 38  1  0
 19 39  1  0
 19 40  1  0
 19 41  1  0
 20 42  1  0
 20 43  1  0
 20 44  1  0
 21 45  1  0
 22 46  1  0
 22 47  1  0
 23 48  1  0
 23 49  1  0
M  END
>  <Energy>  (747) 
1378.8208350268983

>  <compound_id>  (747) 
15314

>  <target_id>  (747) 
1

>  <reference_id>  (747) 
44

>  <inspiration_ids>  (747) 
[44, 96]

>  <energy_score>  (747) 
1271.9875155503319

>  <distance_score>  (747) 
9.096576991308703

>  <path>  (747) 
/opt/xchem-fragalysis-2/maxwin/BulkDock/SCRATCH/511013/C15314-P44/C15314-P44.minimised.mol

>  <scratch_subdir>  (747) 
/opt/xchem-fragalysis-2/maxwin/BulkDock/SCRATCH/511013/C15314-P44

>  <fragmenstein_runtime>  (747) 
20.72919225692749

>  <fragmenstein_outcome>  (747) 
too moved

>  <fragmenstein_mode>  (747) 
expansion

>  <fragmenstein_error>  (747) 


$$$$
C15314-P96
     RDKit          3D

 49 50  0  0  0  0  0  0  0  0999 V2000
   -4.0789   -5.9986   24.0875 C   0  0  0  0  0  0  0  0  0  0  0  0
   -5.6458   -6.4301   25.2521 C   0  0  0  0  0  0  0  0  0  0  0  0
   -6.9670   -8.0756   25.5380 N   0  0  0  0  0  0  0  0  0  0  0  0
   -7.4350   -9.6469   24.4141 C   0  0  0  0  0  0  0  0  0  0  0  0
   -7.1328   -9.9028   23.2815 O   0  0  0  0  0  0  0  0  0  0  0  0
   -8.2805  -11.0928   25.1007 C   0  0  0  0  0  0  0  0  0  0  0  0
   -8.2345  -12.7262   25.7208 C   0  0  0  0  0  0  0  0  0  0  0  0
   -8.4204  -13.9420   24.9925 C   0  0  0  0  0  0  0  0  0  0  0  0
   -8.8847  -14.9331   25.8014 C   0  0  0  0  0  0  0  0  0  0  0  0
   -8.4866  -14.5054   26.9743 N   0  0  0  0  0  0  0  0  0  0  0  0
   -8.5544  -13.1507   26.9303 N   0  0  0  0  0  0  0  0  0  0  0  0
   -3.9802   -5.3426   26.1313 C   0  0  0  0  0  0  0  0  0  0  0  0
   -2.7197   -4.1589   25.4287 C   0  0  0  0  0  0  0  0  0  0  0  0
   -2.2057   -2.8672   26.1906 C   0  0  0  0  0  0  0  0  0  0  0  0
   -1.2337   -2.8265   27.3499 N   0  0  0  0  0  0  0  0  0  0  0  0
   -0.8084   -1.4653   27.5903 C   0  0  0  0  0  0  0  0  0  0  0  0
   -1.2712   -0.6140   28.3170 O   0  0  0  0  0  0  0  0  0  0  0  0
    0.5252   -1.0307   26.8890 C   0  0  0  0  0  0  0  0  0  0  0  0
    1.6701   -1.9040   27.3645 C   0  0  0  0  0  0  0  0  0  0  0  0
    0.4312   -0.9048   25.3782 C   0  0  0  0  0  0  0  0  0  0  0  0
    0.8603    0.3043   27.3427 O   0  0  0  0  0  0  0  0  0  0  0  0
   -2.3028   -3.6385   28.0039 C   0  0  0  0  0  0  0  0  0  0  0  0
   -3.0672   -5.0016   27.6991 C   0  0  0  0  0  0  0  0  0  0  0  0
   -4.1229   -5.1425   23.3977 H   0  0  0  0  0  0  0  0  0  0  0  0
   -3.0271   -5.7799   24.2951 H   0  0  0  0  0  0  0  0  0  0  0  0
   -3.6961   -6.9316   23.6081 H   0  0  0  0  0  0  0  0  0  0  0  0
   -5.9262   -6.2621   26.3093 H   0  0  0  0  0  0  0  0  0  0  0  0
   -7.4401   -8.0983   26.4345 H   0  0  0  0  0  0  0  0  0  0  0  0
   -7.3092  -11.2796   25.7159 H   0  0  0  0  0  0  0  0  0  0  0  0
   -7.6605  -11.5057   24.2964 H   0  0  0  0  0  0  0  0  0  0  0  0
   -8.1303  -14.0423   23.9849 H   0  0  0  0  0  0  0  0  0  0  0  0
   -9.1903  -15.9447   25.6263 H   0  0  0  0  0  0  0  0  0  0  0  0
   -8.7644  -12.6366   27.7702 H   0  0  0  0  0  0  0  0  0  0  0  0
   -3.0851   -5.9428   26.0506 H   0  0  0  0  0  0  0  0  0  0  0  0
   -2.9225   -3.8784   24.4027 H   0  0  0  0  0  0  0  0  0  0  0  0
   -1.7861   -4.7519   25.3454 H   0  0  0  0  0  0  0  0  0  0  0  0
   -1.5848   -2.4447   25.3917 H   0  0  0  0  0  0  0  0  0  0  0  0
   -2.9212   -2.0290   26.2658 H   0  0  0  0  0  0  0  0  0  0  0  0
    1.4532   -2.9510   27.1886 H   0  0  0  0  0  0  0  0  0  0  0  0
    2.6118   -1.6388   26.8728 H   0  0  0  0  0  0  0  0  0  0  0  0
    1.8335   -1.7815   28.4420 H   0  0  0  0  0  0  0  0  0  0  0  0
    0.3228   -1.8638   24.8782 H   0  0  0  0  0  0  0  0  0  0  0  0
    1.3204   -0.4115   24.9684 H   0  0  0  0  0  0  0  0  0  0  0  0
   -0.4251   -0.2807   25.0965 H   0  0  0  0  0  0  0  0  0  0  0  0
    0.1708    0.5267   28.0047 H   0  0  0  0  0  0  0  0  0  0  0  0
   -1.7308   -3.9422   28.9001 H   0  0  0  0  0  0  0  0  0  0  0  0
   -2.9669   -2.9107   28.4963 H   0  0  0  0  0  0  0  0  0  0  0  0
   -2.1911   -5.6841   27.6972 H   0  0  0  0  0  0  0  0  0  0  0  0
   -3.6590   -5.2652   28.5823 H   0  0  0  0  0  0  0  0  0  0  0  0
  1  2  1  0
  2  3  1  0
  3  4  1  0
  4  5  2  0
  4  6  1  0
  6  7  1  0
  7  8  2  0
  8  9  1  0
  9 10  2  0
 10 11  1  0
  2 12  1  0
 12 13  1  0
 13 14  1  0
 14 15  1  0
 15 16  1  0
 16 17  2  0
 16 18  1  0
 18 19  1  0
 18 20  1  0
 18 21  1  0
 15 22  1  0
 22 23  1  0
 11  7  1  0
 23 12  1  0
  1 24  1  0
  1 25  1  0
  1 26  1  0
  2 27  1  0
  3 28  1  0
  6 29  1  0
  6 30  1  0
  8 31  1  0
  9 32  1  0
 11 33  1  0
 12 34  1  0
 13 35  1  0
 13 36  1  0
 14 37  1  0
 14 38  1  0
 19 39  1  0
 19 40  1  0
 19 41  1  0
 20 42  1  0
 20 43  1  0
 20 44  1  0
 21 45  1  0
 22 46  1  0
 22 47  1  0
 23 48  1  0
 23 49  1  0
M  END
>  <Energy>  (748) 
1043.7386954556125

>  <compound_id>  (748) 
15314

>  <target_id>  (748) 
1

>  <reference_id>  (748) 
96

>  <inspiration_ids>  (748) 
[44, 96]

>  <energy_score>  (748) 
936.9053759790322

>  <distance_score>  (748) 
8.67513948880499

>  <path>  (748) 
/opt/xchem-fragalysis-2/maxwin/BulkDock/SCRATCH/511013/C15314-P96/C15314-P96.minimised.mol

>  <scratch_subdir>  (748) 
/opt/xchem-fragalysis-2/maxwin/BulkDock/SCRATCH/511013/C15314-P96

>  <fragmenstein_runtime>  (748) 
19.679038047790527

>  <fragmenstein_outcome>  (748) 
too moved

>  <fragmenstein_mode>  (748) 
expansion

>  <fragmenstein_error>  (748) 


$$$$
C15316-P44
     RDKit          3D

 45 46  0  0  0  0  0  0  0  0999 V2000
   -7.9071   -5.0450   27.6210 C   0  0  0  0  0  0  0  0  0  0  0  0
   -6.3072   -5.7144   28.4538 C   0  0  0  0  0  0  0  0  0  0  0  0
   -5.9039   -7.5541   29.0781 N   0  0  0  0  0  0  0  0  0  0  0  0
   -6.8409   -9.0399   28.9655 C   0  0  0  0  0  0  0  0  0  0  0  0
   -7.8900   -9.2033   28.3726 O   0  0  0  0  0  0  0  0  0  0  0  0
   -6.4697  -10.4110   29.8349 C   0  0  0  0  0  0  0  0  0  0  0  0
   -5.5202  -11.4129   31.1436 C   0  0  0  0  0  0  0  0  0  0  0  0
   -5.3387  -12.8136   31.1939 C   0  0  0  0  0  0  0  0  0  0  0  0
   -4.6697  -13.0966   32.3853 C   0  0  0  0  0  0  0  0  0  0  0  0
   -4.3772  -11.9817   33.0456 N   0  0  0  0  0  0  0  0  0  0  0  0
   -4.8661  -10.9927   32.2795 N   0  0  0  0  0  0  0  0  0  0  0  0
   -5.7788   -4.0262   29.1935 C   0  0  0  0  0  0  0  0  0  0  0  0
   -4.6378   -3.2683   28.4253 C   0  0  0  0  0  0  0  0  0  0  0  0
   -2.9864   -2.8279   29.3500 C   0  0  0  0  0  0  0  0  0  0  0  0
   -2.6580   -2.3089   30.9033 N   0  0  0  0  0  0  0  0  0  0  0  0
   -2.3879   -0.9212   30.8936 C   0  0  0  0  0  0  0  0  0  0  0  0
   -3.1181    0.0116   31.0383 O   0  0  0  0  0  0  0  0  0  0  0  0
   -0.8558   -0.7037   30.7308 C   0  0  0  0  0  0  0  0  0  0  0  0
   -0.1406   -0.9757   32.0416 C   0  0  0  0  0  0  0  0  0  0  0  0
   -0.5582    0.5716   30.3464 F   0  0  0  0  0  0  0  0  0  0  0  0
   -0.3102   -1.5191   29.7782 F   0  0  0  0  0  0  0  0  0  0  0  0
   -3.9820   -3.0929   31.2313 C   0  0  0  0  0  0  0  0  0  0  0  0
   -5.5175   -3.6445   30.7512 C   0  0  0  0  0  0  0  0  0  0  0  0
   -8.1125   -5.5389   26.6946 H   0  0  0  0  0  0  0  0  0  0  0  0
   -8.9421   -5.2046   27.8932 H   0  0  0  0  0  0  0  0  0  0  0  0
   -7.9272   -3.9463   27.5778 H   0  0  0  0  0  0  0  0  0  0  0  0
   -6.3487   -5.8308   29.5236 H   0  0  0  0  0  0  0  0  0  0  0  0
   -5.0406   -7.7372   29.5618 H   0  0  0  0  0  0  0  0  0  0  0  0
   -6.0901  -11.1538   29.1336 H   0  0  0  0  0  0  0  0  0  0  0  0
   -7.3951  -10.3715   30.3577 H   0  0  0  0  0  0  0  0  0  0  0  0
   -5.6981  -13.5557   30.4969 H   0  0  0  0  0  0  0  0  0  0  0  0
   -4.3815  -14.0556   32.7969 H   0  0  0  0  0  0  0  0  0  0  0  0
   -4.7226  -10.0523   32.6236 H   0  0  0  0  0  0  0  0  0  0  0  0
   -6.7330   -3.5328   29.0091 H   0  0  0  0  0  0  0  0  0  0  0  0
   -4.7210   -3.4224   27.3685 H   0  0  0  0  0  0  0  0  0  0  0  0
   -4.7889   -2.3653   27.8752 H   0  0  0  0  0  0  0  0  0  0  0  0
   -2.5915   -2.0057   28.7162 H   0  0  0  0  0  0  0  0  0  0  0  0
   -2.1850   -3.5766   29.2151 H   0  0  0  0  0  0  0  0  0  0  0  0
   -0.2569   -2.0184   32.3532 H   0  0  0  0  0  0  0  0  0  0  0  0
   -0.5207   -0.3274   32.8375 H   0  0  0  0  0  0  0  0  0  0  0  0
    0.9307   -0.7787   31.9326 H   0  0  0  0  0  0  0  0  0  0  0  0
   -3.5707   -3.9423   31.8082 H   0  0  0  0  0  0  0  0  0  0  0  0
   -4.3170   -2.4479   32.0628 H   0  0  0  0  0  0  0  0  0  0  0  0
   -6.2544   -2.8993   31.0817 H   0  0  0  0  0  0  0  0  0  0  0  0
   -5.7784   -4.4903   31.3994 H   0  0  0  0  0  0  0  0  0  0  0  0
  1  2  1  0
  2  3  1  0
  3  4  1  0
  4  5  2  0
  4  6  1  0
  6  7  1  0
  7  8  2  0
  8  9  1  0
  9 10  2  0
 10 11  1  0
  2 12  1  0
 12 13  1  0
 13 14  1  0
 14 15  1  0
 15 16  1  0
 16 17  2  0
 16 18  1  0
 18 19  1  0
 18 20  1  0
 18 21  1  0
 15 22  1  0
 22 23  1  0
 11  7  1  0
 23 12  1  0
  1 24  1  0
  1 25  1  0
  1 26  1  0
  2 27  1  0
  3 28  1  0
  6 29  1  0
  6 30  1  0
  8 31  1  0
  9 32  1  0
 11 33  1  0
 12 34  1  0
 13 35  1  0
 13 36  1  0
 14 37  1  0
 14 38  1  0
 19 39  1  0
 19 40  1  0
 19 41  1  0
 22 42  1  0
 22 43  1  0
 23 44  1  0
 23 45  1  0
M  END
>  <Energy>  (749) 
669.80023611983825

>  <compound_id>  (749) 
15316

>  <target_id>  (749) 
1

>  <reference_id>  (749) 
44

>  <inspiration_ids>  (749) 
[44, 96]

>  <energy_score>  (749) 
562.8270446219724

>  <distance_score>  (749) 
10.063887405053668

>  <path>  (749) 
/opt/xchem-fragalysis-2/maxwin/BulkDock/SCRATCH/511013/C15316-P44/C15316-P44.minimised.mol

>  <scratch_subdir>  (749) 
/opt/xchem-fragalysis-2/maxwin/BulkDock/SCRATCH/511013/C15316-P44

>  <fragmenstein_runtime>  (749) 
22.827557802200317

>  <fragmenstein_outcome>  (749) 
too moved

>  <fragmenstein_mode>  (749) 
expansion

>  <fragmenstein_error>  (749) 


$$$$
C15316-P96
     RDKit          3D

 45 46  0  0  0  0  0  0  0  0999 V2000
   -1.7078   -8.1992   25.8403 C   0  0  0  0  0  0  0  0  0  0  0  0
   -3.2271   -9.0623   24.7664 C   0  0  0  0  0  0  0  0  0  0  0  0
   -4.6250  -10.3463   25.6782 N   0  0  0  0  0  0  0  0  0  0  0  0
   -6.5027  -10.7612   25.2906 C   0  0  0  0  0  0  0  0  0  0  0  0
   -7.2618  -10.2963   24.3566 O   0  0  0  0  0  0  0  0  0  0  0  0
   -7.4284  -12.1251   26.2248 C   0  0  0  0  0  0  0  0  0  0  0  0
   -8.3851  -13.4802   25.5692 C   0  0  0  0  0  0  0  0  0  0  0  0
   -8.3963  -14.2696   24.4185 C   0  0  0  0  0  0  0  0  0  0  0  0
   -9.0703  -15.4918   24.6347 C   0  0  0  0  0  0  0  0  0  0  0  0
   -9.4266  -15.5419   25.8846 N   0  0  0  0  0  0  0  0  0  0  0  0
   -8.8323  -14.4525   26.3950 N   0  0  0  0  0  0  0  0  0  0  0  0
   -3.1322   -7.2322   23.6495 C   0  0  0  0  0  0  0  0  0  0  0  0
   -1.8804   -5.9988   23.1136 C   0  0  0  0  0  0  0  0  0  0  0  0
   -1.6359   -4.5259   23.9963 C   0  0  0  0  0  0  0  0  0  0  0  0
   -1.5955   -4.1465   25.4454 N   0  0  0  0  0  0  0  0  0  0  0  0
   -1.6697   -2.6829   25.6019 C   0  0  0  0  0  0  0  0  0  0  0  0
   -2.6279   -1.9567   25.7354 O   0  0  0  0  0  0  0  0  0  0  0  0
   -0.3049   -1.9481   25.7211 C   0  0  0  0  0  0  0  0  0  0  0  0
   -0.4546   -0.5145   26.2126 C   0  0  0  0  0  0  0  0  0  0  0  0
    0.3179   -1.8718   24.5150 F   0  0  0  0  0  0  0  0  0  0  0  0
    0.5592   -2.5600   26.5832 F   0  0  0  0  0  0  0  0  0  0  0  0
   -2.6167   -5.1387   25.5112 C   0  0  0  0  0  0  0  0  0  0  0  0
   -3.6391   -5.6262   24.3717 C   0  0  0  0  0  0  0  0  0  0  0  0
   -0.7062   -8.6779   25.7500 H   0  0  0  0  0  0  0  0  0  0  0  0
   -1.9326   -8.0758   26.9076 H   0  0  0  0  0  0  0  0  0  0  0  0
   -1.2986   -7.2577   25.4851 H   0  0  0  0  0  0  0  0  0  0  0  0
   -3.1458   -9.1853   25.9022 H   0  0  0  0  0  0  0  0  0  0  0  0
   -4.3432  -10.7822   26.4956 H   0  0  0  0  0  0  0  0  0  0  0  0
   -8.4140  -11.7474   26.0743 H   0  0  0  0  0  0  0  0  0  0  0  0
   -7.2600  -12.2815   27.2889 H   0  0  0  0  0  0  0  0  0  0  0  0
   -7.8719  -14.0990   23.4915 H   0  0  0  0  0  0  0  0  0  0  0  0
   -9.2745  -16.2843   23.9281 H   0  0  0  0  0  0  0  0  0  0  0  0
   -8.4360  -14.5319   27.3088 H   0  0  0  0  0  0  0  0  0  0  0  0
   -2.1391   -7.2482   24.0705 H   0  0  0  0  0  0  0  0  0  0  0  0
   -0.9074   -6.4645   22.9873 H   0  0  0  0  0  0  0  0  0  0  0  0
   -2.1827   -5.7019   22.0974 H   0  0  0  0  0  0  0  0  0  0  0  0
   -2.3765   -3.8794   23.6176 H   0  0  0  0  0  0  0  0  0  0  0  0
   -0.7362   -4.0833   23.6222 H   0  0  0  0  0  0  0  0  0  0  0  0
   -1.0468    0.0870   25.5153 H   0  0  0  0  0  0  0  0  0  0  0  0
    0.5308   -0.0448   26.2980 H   0  0  0  0  0  0  0  0  0  0  0  0
   -0.9244   -0.4819   27.2008 H   0  0  0  0  0  0  0  0  0  0  0  0
   -2.1371   -5.8905   26.1164 H   0  0  0  0  0  0  0  0  0  0  0  0
   -3.2641   -4.7769   26.2922 H   0  0  0  0  0  0  0  0  0  0  0  0
   -3.8111   -4.9591   23.5269 H   0  0  0  0  0  0  0  0  0  0  0  0
   -4.5765   -5.7796   24.8732 H   0  0  0  0  0  0  0  0  0  0  0  0
  1  2  1  0
  2  3  1  0
  3  4  1  0
  4  5  2  0
  4  6  1  0
  6  7  1  0
  7  8  2  0
  8  9  1  0
  9 10  2  0
 10 11  1  0
  2 12  1  0
 12 13  1  0
 13 14  1  0
 14 15  1  0
 15 16  1  0
 16 17  2  0
 16 18  1  0
 18 19  1  0
 18 20  1  0
 18 21  1  0
 15 22  1  0
 22 23  1  0
 11  7  1  0
 23 12  1  0
  1 24  1  0
  1 25  1  0
  1 26  1  0
  2 27  1  0
  3 28  1  0
  6 29  1  0
  6 30  1  0
  8 31  1  0
  9 32  1  0
 11 33  1  0
 12 34  1  0
 13 35  1  0
 13 36  1  0
 14 37  1  0
 14 38  1  0
 19 39  1  0
 19 40  1  0
 19 41  1  0
 22 42  1  0
 22 43  1  0
 23 44  1  0
 23 45  1  0
M  END
>  <Energy>  (750) 
967.53236072716015

>  <compound_id>  (750) 
15316

>  <target_id>  (750) 
1

>  <reference_id>  (750) 
96

>  <inspiration_ids>  (750) 
[44, 96]

>  <energy_score>  (750) 
860.5591692292728

>  <distance_score>  (750) 
9.405424913459342

>  <path>  (750) 
/opt/xchem-fragalysis-2/maxwin/BulkDock/SCRATCH/511013/C15316-P96/C15316-P96.minimised.mol

>  <scratch_subdir>  (750) 
/opt/xchem-fragalysis-2/maxwin/BulkDock/SCRATCH/511013/C15316-P96

>  <fragmenstein_runtime>  (750) 
14.139997959136963

>  <fragmenstein_outcome>  (750) 
too moved

>  <fragmenstein_mode>  (750) 
expansion

>  <fragmenstein_error>  (750) 


$$$$
C15317-P44
     RDKit          3D

 43 44  0  0  0  0  0  0  0  0999 V2000
   -7.9576   -4.9080   28.1935 C   0  0  0  0  0  0  0  0  0  0  0  0
   -6.5324   -5.8514   28.8713 C   0  0  0  0  0  0  0  0  0  0  0  0
   -6.0802   -7.7105   29.4274 N   0  0  0  0  0  0  0  0  0  0  0  0
   -6.9793   -9.2244   29.2971 C   0  0  0  0  0  0  0  0  0  0  0  0
   -8.0314   -9.3778   28.6986 O   0  0  0  0  0  0  0  0  0  0  0  0
   -6.3038  -10.7366   30.4079 C   0  0  0  0  0  0  0  0  0  0  0  0
   -6.7121  -12.1709   31.7526 C   0  0  0  0  0  0  0  0  0  0  0  0
   -6.9424  -12.2486   33.1499 C   0  0  0  0  0  0  0  0  0  0  0  0
   -7.1002  -13.6213   33.4905 C   0  0  0  0  0  0  0  0  0  0  0  0
   -6.9217  -14.4433   32.4613 N   0  0  0  0  0  0  0  0  0  0  0  0
   -6.6248  -13.6241   31.4302 N   0  0  0  0  0  0  0  0  0  0  0  0
   -5.8836   -4.1685   29.3695 C   0  0  0  0  0  0  0  0  0  0  0  0
   -4.6758   -3.2997   28.4773 C   0  0  0  0  0  0  0  0  0  0  0  0
   -3.0084   -2.8211   29.3092 C   0  0  0  0  0  0  0  0  0  0  0  0
   -3.2229   -2.4793   30.7641 N   0  0  0  0  0  0  0  0  0  0  0  0
   -2.0098   -2.0461   31.4751 C   0  0  0  0  0  0  0  0  0  0  0  0
   -0.7837   -2.9773   31.4659 C   0  0  0  0  0  0  0  0  0  0  0  0
   -1.1423   -4.2473   31.7849 F   0  0  0  0  0  0  0  0  0  0  0  0
    0.1282   -2.5750   32.3799 F   0  0  0  0  0  0  0  0  0  0  0  0
   -0.1703   -3.0155   30.2649 F   0  0  0  0  0  0  0  0  0  0  0  0
   -4.3380   -3.0785   31.5501 C   0  0  0  0  0  0  0  0  0  0  0  0
   -5.7289   -3.7550   30.8922 C   0  0  0  0  0  0  0  0  0  0  0  0
   -7.6840   -3.8505   28.0772 H   0  0  0  0  0  0  0  0  0  0  0  0
   -8.2946   -5.2267   27.2128 H   0  0  0  0  0  0  0  0  0  0  0  0
   -8.8388   -4.7366   28.8262 H   0  0  0  0  0  0  0  0  0  0  0  0
   -6.8328   -5.7625   29.9224 H   0  0  0  0  0  0  0  0  0  0  0  0
   -5.2313   -7.8802   29.8896 H   0  0  0  0  0  0  0  0  0  0  0  0
   -5.7735  -10.4382   31.3488 H   0  0  0  0  0  0  0  0  0  0  0  0
   -7.3538  -10.5268   30.5575 H   0  0  0  0  0  0  0  0  0  0  0  0
   -7.0037  -11.4305   33.8525 H   0  0  0  0  0  0  0  0  0  0  0  0
   -7.3220  -14.0412   34.4633 H   0  0  0  0  0  0  0  0  0  0  0  0
   -6.4318  -14.0298   30.5181 H   0  0  0  0  0  0  0  0  0  0  0  0
   -5.6057   -4.5649   28.4665 H   0  0  0  0  0  0  0  0  0  0  0  0
   -5.3725   -2.6247   28.0814 H   0  0  0  0  0  0  0  0  0  0  0  0
   -4.5656   -3.1815   27.3885 H   0  0  0  0  0  0  0  0  0  0  0  0
   -2.6188   -1.9485   28.7516 H   0  0  0  0  0  0  0  0  0  0  0  0
   -2.2200   -3.5721   29.2252 H   0  0  0  0  0  0  0  0  0  0  0  0
   -1.6998   -1.0804   31.0573 H   0  0  0  0  0  0  0  0  0  0  0  0
   -2.2705   -1.8367   32.5199 H   0  0  0  0  0  0  0  0  0  0  0  0
   -3.9011   -3.8395   32.2046 H   0  0  0  0  0  0  0  0  0  0  0  0
   -4.6991   -2.3096   32.2468 H   0  0  0  0  0  0  0  0  0  0  0  0
   -6.0359   -4.5719   31.5556 H   0  0  0  0  0  0  0  0  0  0  0  0
   -6.5174   -3.0125   31.0792 H   0  0  0  0  0  0  0  0  0  0  0  0
  1  2  1  0
  2  3  1  0
  3  4  1  0
  4  5  2  0
  4  6  1  0
  6  7  1  0
  7  8  2  0
  8  9  1  0
  9 10  2  0
 10 11  1  0
  2 12  1  0
 12 13  1  0
 13 14  1  0
 14 15  1  0
 15 16  1  0
 16 17  1  0
 17 18  1  0
 17 19  1  0
 17 20  1  0
 15 21  1  0
 21 22  1  0
 11  7  1  0
 22 12  1  0
  1 23  1  0
  1 24  1  0
  1 25  1  0
  2 26  1  0
  3 27  1  0
  6 28  1  0
  6 29  1  0
  8 30  1  0
  9 31  1  0
 11 32  1  0
 12 33  1  0
 13 34  1  0
 13 35  1  0
 14 36  1  0
 14 37  1  0
 16 38  1  0
 16 39  1  0
 21 40  1  0
 21 41  1  0
 22 42  1  0
 22 43  1  0
M  END
>  <Energy>  (751) 
749.03857445807353

>  <compound_id>  (751) 
15317

>  <target_id>  (751) 
1

>  <reference_id>  (751) 
44

>  <inspiration_ids>  (751) 
[44, 96]

>  <energy_score>  (751) 
617.135025885329

>  <distance_score>  (751) 
9.27185764545799

>  <path>  (751) 
/opt/xchem-fragalysis-2/maxwin/BulkDock/SCRATCH/511013/C15317-P44/C15317-P44.minimised.mol

>  <scratch_subdir>  (751) 
/opt/xchem-fragalysis-2/maxwin/BulkDock/SCRATCH/511013/C15317-P44

>  <fragmenstein_runtime>  (751) 
17.836631059646606

>  <fragmenstein_outcome>  (751) 
too moved

>  <fragmenstein_mode>  (751) 
expansion

>  <fragmenstein_error>  (751) 


$$$$
C15317-P96
     RDKit          3D

 43 44  0  0  0  0  0  0  0  0999 V2000
   -2.5128   -4.9426   23.9235 C   0  0  0  0  0  0  0  0  0  0  0  0
   -3.3183   -4.8304   25.2768 C   0  0  0  0  0  0  0  0  0  0  0  0
   -4.5800   -5.9489   24.8239 N   0  0  0  0  0  0  0  0  0  0  0  0
   -6.0849   -6.5420   25.7060 C   0  0  0  0  0  0  0  0  0  0  0  0
   -6.3299   -6.0522   26.7253 O   0  0  0  0  0  0  0  0  0  0  0  0
   -7.3633   -8.0027   25.3744 C   0  0  0  0  0  0  0  0  0  0  0  0
   -7.6167   -9.6167   24.3340 C   0  0  0  0  0  0  0  0  0  0  0  0
   -7.4194  -10.9723   24.4492 C   0  0  0  0  0  0  0  0  0  0  0  0
   -6.8433  -11.2258   23.1129 C   0  0  0  0  0  0  0  0  0  0  0  0
   -7.6319  -10.6628   22.2590 N   0  0  0  0  0  0  0  0  0  0  0  0
   -8.0774   -9.7501   23.0960 N   0  0  0  0  0  0  0  0  0  0  0  0
   -2.1740   -4.0470   26.2407 C   0  0  0  0  0  0  0  0  0  0  0  0
   -2.1151   -4.2728   27.7751 C   0  0  0  0  0  0  0  0  0  0  0  0
   -1.7349   -3.0114   28.5796 C   0  0  0  0  0  0  0  0  0  0  0  0
   -0.6031   -2.2969   27.9916 N   0  0  0  0  0  0  0  0  0  0  0  0
   -0.1169   -1.1793   28.8438 C   0  0  0  0  0  0  0  0  0  0  0  0
    0.6418   -1.5026   30.1447 C   0  0  0  0  0  0  0  0  0  0  0  0
   -0.1106   -2.1739   31.0404 F   0  0  0  0  0  0  0  0  0  0  0  0
    1.7781   -2.1949   29.9128 F   0  0  0  0  0  0  0  0  0  0  0  0
    1.0123   -0.3386   30.7450 F   0  0  0  0  0  0  0  0  0  0  0  0
   -0.8463   -1.8373   26.6262 C   0  0  0  0  0  0  0  0  0  0  0  0
   -1.9996   -2.5293   25.8958 C   0  0  0  0  0  0  0  0  0  0  0  0
   -1.6871   -4.2402   23.8394 H   0  0  0  0  0  0  0  0  0  0  0  0
   -3.1654   -4.8039   23.0594 H   0  0  0  0  0  0  0  0  0  0  0  0
   -2.0611   -5.9336   23.8254 H   0  0  0  0  0  0  0  0  0  0  0  0
   -2.9405   -5.6263   25.9028 H   0  0  0  0  0  0  0  0  0  0  0  0
   -4.4463   -6.5024   24.0260 H   0  0  0  0  0  0  0  0  0  0  0  0
   -7.7508   -8.0201   26.4200 H   0  0  0  0  0  0  0  0  0  0  0  0
   -8.3031   -7.7156   24.9405 H   0  0  0  0  0  0  0  0  0  0  0  0
   -7.3338  -11.5693   25.3551 H   0  0  0  0  0  0  0  0  0  0  0  0
   -6.2441  -11.9703   22.6433 H   0  0  0  0  0  0  0  0  0  0  0  0
   -8.2058   -8.9009   22.6176 H   0  0  0  0  0  0  0  0  0  0  0  0
   -1.2191   -4.4915   25.9186 H   0  0  0  0  0  0  0  0  0  0  0  0
   -3.0420   -4.6932   28.1683 H   0  0  0  0  0  0  0  0  0  0  0  0
   -1.3688   -5.0490   27.9818 H   0  0  0  0  0  0  0  0  0  0  0  0
   -1.4971   -3.3428   29.5957 H   0  0  0  0  0  0  0  0  0  0  0  0
   -2.6015   -2.3443   28.6613 H   0  0  0  0  0  0  0  0  0  0  0  0
    0.5865   -0.5817   28.2480 H   0  0  0  0  0  0  0  0  0  0  0  0
   -0.9565   -0.5143   29.0848 H   0  0  0  0  0  0  0  0  0  0  0  0
    0.0788   -1.9803   26.0565 H   0  0  0  0  0  0  0  0  0  0  0  0
   -1.0550   -0.7590   26.5971 H   0  0  0  0  0  0  0  0  0  0  0  0
   -2.9013   -1.9552   26.1232 H   0  0  0  0  0  0  0  0  0  0  0  0
   -1.8334   -2.3962   24.8272 H   0  0  0  0  0  0  0  0  0  0  0  0
  1  2  1  0
  2  3  1  0
  3  4  1  0
  4  5  2  0
  4  6  1  0
  6  7  1  0
  7  8  2  0
  8  9  1  0
  9 10  2  0
 10 11  1  0
  2 12  1  0
 12 13  1  0
 13 14  1  0
 14 15  1  0
 15 16  1  0
 16 17  1  0
 17 18  1  0
 17 19  1  0
 17 20  1  0
 15 21  1  0
 21 22  1  0
 11  7  1  0
 22 12  1  0
  1 23  1  0
  1 24  1  0
  1 25  1  0
  2 26  1  0
  3 27  1  0
  6 28  1  0
  6 29  1  0
  8 30  1  0
  9 31  1  0
 11 32  1  0
 12 33  1  0
 13 34  1  0
 13 35  1  0
 14 36  1  0
 14 37  1  0
 16 38  1  0
 16 39  1  0
 21 40  1  0
 21 41  1  0
 22 42  1  0
 22 43  1  0
M  END
>  <Energy>  (752) 
487.94172446955173

>  <compound_id>  (752) 
15317

>  <target_id>  (752) 
1

>  <reference_id>  (752) 
96

>  <inspiration_ids>  (752) 
[44, 96]

>  <energy_score>  (752) 
356.0381758968035

>  <distance_score>  (752) 
10.305807861939503

>  <path>  (752) 
/opt/xchem-fragalysis-2/maxwin/BulkDock/SCRATCH/511013/C15317-P96/C15317-P96.minimised.mol

>  <scratch_subdir>  (752) 
/opt/xchem-fragalysis-2/maxwin/BulkDock/SCRATCH/511013/C15317-P96

>  <fragmenstein_runtime>  (752) 
19.77955150604248

>  <fragmenstein_outcome>  (752) 
too moved

>  <fragmenstein_mode>  (752) 
expansion

>  <fragmenstein_error>  (752) 


$$$$
C15318-P44
     RDKit          3D

 48 49  0  0  0  0  0  0  0  0999 V2000
   -2.6692   -3.2024   34.6117 C   0  0  0  0  0  0  0  0  0  0  0  0
   -4.1820   -3.0721   34.7729 C   0  0  0  0  0  0  0  0  0  0  0  0
   -4.5435   -1.7794   35.4880 C   0  0  0  0  0  0  0  0  0  0  0  0
   -4.2725   -0.7315   34.6559 F   0  0  0  0  0  0  0  0  0  0  0  0
   -4.7292   -4.2701   35.5519 C   0  0  0  0  0  0  0  0  0  0  0  0
   -4.8660   -4.2177   36.7444 O   0  0  0  0  0  0  0  0  0  0  0  0
   -4.9273   -5.3560   34.6387 N   0  0  0  0  0  0  0  0  0  0  0  0
   -5.2585   -6.7968   34.8894 C   0  0  0  0  0  0  0  0  0  0  0  0
   -5.1475   -7.7589   33.6882 C   0  0  0  0  0  0  0  0  0  0  0  0
   -6.0284   -7.3325   32.4500 C   0  0  0  0  0  0  0  0  0  0  0  0
   -5.7342   -8.4826   30.7376 C   0  0  0  0  0  0  0  0  0  0  0  0
   -6.3035   -6.8404   29.5061 C   0  0  0  0  0  0  0  0  0  0  0  0
   -5.9643  -10.4285   31.2807 N   0  0  0  0  0  0  0  0  0  0  0  0
   -5.9722  -11.1844   32.8695 C   0  0  0  0  0  0  0  0  0  0  0  0
   -5.7355  -10.6673   33.9648 O   0  0  0  0  0  0  0  0  0  0  0  0
   -6.4897  -12.7690   33.0845 C   0  0  0  0  0  0  0  0  0  0  0  0
   -6.5971  -14.1677   32.3940 C   0  0  0  0  0  0  0  0  0  0  0  0
   -6.7586  -15.3897   33.0518 C   0  0  0  0  0  0  0  0  0  0  0  0
   -6.7384  -16.3863   32.0648 C   0  0  0  0  0  0  0  0  0  0  0  0
   -6.6414  -15.8591   30.8502 N   0  0  0  0  0  0  0  0  0  0  0  0
   -6.5363  -14.5380   31.0706 N   0  0  0  0  0  0  0  0  0  0  0  0
   -6.5311   -5.8138   32.6558 C   0  0  0  0  0  0  0  0  0  0  0  0
   -6.3508   -5.3449   34.1174 C   0  0  0  0  0  0  0  0  0  0  0  0
   -2.1669   -3.2037   35.5856 H   0  0  0  0  0  0  0  0  0  0  0  0
   -2.2670   -2.3721   34.0221 H   0  0  0  0  0  0  0  0  0  0  0  0
   -2.3997   -4.1365   34.1092 H   0  0  0  0  0  0  0  0  0  0  0  0
   -4.6308   -3.0444   33.7726 H   0  0  0  0  0  0  0  0  0  0  0  0
   -5.6104   -1.7369   35.7295 H   0  0  0  0  0  0  0  0  0  0  0  0
   -3.9728   -1.6356   36.4110 H   0  0  0  0  0  0  0  0  0  0  0  0
   -4.4217   -7.0955   35.5427 H   0  0  0  0  0  0  0  0  0  0  0  0
   -6.0965   -7.0057   35.5774 H   0  0  0  0  0  0  0  0  0  0  0  0
   -4.1047   -7.9483   33.4076 H   0  0  0  0  0  0  0  0  0  0  0  0
   -5.5058   -8.6801   34.1081 H   0  0  0  0  0  0  0  0  0  0  0  0
   -6.9998   -7.5604   32.8809 H   0  0  0  0  0  0  0  0  0  0  0  0
   -6.3553   -8.9165   29.8968 H   0  0  0  0  0  0  0  0  0  0  0  0
   -6.2115   -6.2720   28.6074 H   0  0  0  0  0  0  0  0  0  0  0  0
   -5.8102   -5.8237   29.5977 H   0  0  0  0  0  0  0  0  0  0  0  0
   -6.6406   -6.1093   30.3242 H   0  0  0  0  0  0  0  0  0  0  0  0
   -6.1101  -11.0961   30.6023 H   0  0  0  0  0  0  0  0  0  0  0  0
   -7.5385  -12.5771   33.3696 H   0  0  0  0  0  0  0  0  0  0  0  0
   -6.0154  -13.0191   34.0536 H   0  0  0  0  0  0  0  0  0  0  0  0
   -6.8409  -15.5341   34.1204 H   0  0  0  0  0  0  0  0  0  0  0  0
   -6.7996  -17.4624   32.1751 H   0  0  0  0  0  0  0  0  0  0  0  0
   -6.3988  -13.9632   30.2505 H   0  0  0  0  0  0  0  0  0  0  0  0
   -7.6153   -5.7826   32.5305 H   0  0  0  0  0  0  0  0  0  0  0  0
   -6.1471   -5.0461   31.9837 H   0  0  0  0  0  0  0  0  0  0  0  0
   -7.1466   -5.6829   34.8053 H   0  0  0  0  0  0  0  0  0  0  0  0
   -6.6118   -4.2740   34.0668 H   0  0  0  0  0  0  0  0  0  0  0  0
  1  2  1  0
  2  3  1  0
  3  4  1  0
  2  5  1  0
  5  6  2  0
  5  7  1  0
  7  8  1  0
  8  9  1  0
  9 10  1  0
 10 11  1  0
 11 12  1  0
 11 13  1  0
 13 14  1  0
 14 15  2  0
 14 16  1  0
 16 17  1  0
 17 18  2  0
 18 19  1  0
 19 20  2  0
 20 21  1  0
 10 22  1  0
 22 23  1  0
 23  7  1  0
 21 17  1  0
  1 24  1  0
  1 25  1  0
  1 26  1  0
  2 27  1  0
  3 28  1  0
  3 29  1  0
  8 30  1  0
  8 31  1  0
  9 32  1  0
  9 33  1  0
 10 34  1  0
 11 35  1  0
 12 36  1  0
 12 37  1  0
 12 38  1  0
 13 39  1  0
 16 40  1  0
 16 41  1  0
 18 42  1  0
 19 43  1  0
 21 44  1  0
 22 45  1  0
 22 46  1  0
 23 47  1  0
 23 48  1  0
M  END
>  <Energy>  (753) 
615.53064170441439

>  <compound_id>  (753) 
15318

>  <target_id>  (753) 
1

>  <reference_id>  (753) 
44

>  <inspiration_ids>  (753) 
[44, 96]

>  <energy_score>  (753) 
564.0277377406845

>  <distance_score>  (753) 
10.88816105598743

>  <path>  (753) 
/opt/xchem-fragalysis-2/maxwin/BulkDock/SCRATCH/511013/C15318-P44/C15318-P44.minimised.mol

>  <scratch_subdir>  (753) 
/opt/xchem-fragalysis-2/maxwin/BulkDock/SCRATCH/511013/C15318-P44

>  <fragmenstein_runtime>  (753) 
27.23997163772583

>  <fragmenstein_outcome>  (753) 
too moved

>  <fragmenstein_mode>  (753) 
expansion

>  <fragmenstein_error>  (753) 


$$$$
C15318-P96
     RDKit          3D

 48 49  0  0  0  0  0  0  0  0999 V2000
    0.5392   -1.0329   26.2746 C   0  0  0  0  0  0  0  0  0  0  0  0
    0.5431   -1.4340   27.7368 C   0  0  0  0  0  0  0  0  0  0  0  0
    1.8946   -1.9122   28.2381 C   0  0  0  0  0  0  0  0  0  0  0  0
    2.5608   -2.5923   27.2686 F   0  0  0  0  0  0  0  0  0  0  0  0
   -0.5851   -2.3428   28.2611 C   0  0  0  0  0  0  0  0  0  0  0  0
   -1.0581   -1.9776   29.3112 O   0  0  0  0  0  0  0  0  0  0  0  0
   -0.8710   -3.5007   27.4640 N   0  0  0  0  0  0  0  0  0  0  0  0
   -1.7591   -4.6738   27.7339 C   0  0  0  0  0  0  0  0  0  0  0  0
   -2.1511   -5.8445   26.7512 C   0  0  0  0  0  0  0  0  0  0  0  0
   -3.8701   -5.4398   26.2101 C   0  0  0  0  0  0  0  0  0  0  0  0
   -5.5977   -6.4600   25.4809 C   0  0  0  0  0  0  0  0  0  0  0  0
   -4.1497   -5.9377   24.2113 C   0  0  0  0  0  0  0  0  0  0  0  0
   -6.8022   -8.1916   25.3559 N   0  0  0  0  0  0  0  0  0  0  0  0
   -6.2926  -10.1384   25.4706 C   0  0  0  0  0  0  0  0  0  0  0  0
   -5.1491  -10.5683   25.7404 O   0  0  0  0  0  0  0  0  0  0  0  0
   -7.5882  -11.2290   24.9994 C   0  0  0  0  0  0  0  0  0  0  0  0
   -7.9322  -12.7012   25.5426 C   0  0  0  0  0  0  0  0  0  0  0  0
   -8.7525  -13.2147   26.5276 C   0  0  0  0  0  0  0  0  0  0  0  0
   -9.2762  -14.4691   26.0495 C   0  0  0  0  0  0  0  0  0  0  0  0
   -8.7538  -14.8792   24.9296 N   0  0  0  0  0  0  0  0  0  0  0  0
   -8.0252  -13.8211   24.6105 N   0  0  0  0  0  0  0  0  0  0  0  0
   -2.7311   -4.1468   25.5059 C   0  0  0  0  0  0  0  0  0  0  0  0
   -1.9441   -3.1852   26.4692 C   0  0  0  0  0  0  0  0  0  0  0  0
   -0.4204   -0.5860   25.9949 H   0  0  0  0  0  0  0  0  0  0  0  0
    0.7224   -1.8805   25.6177 H   0  0  0  0  0  0  0  0  0  0  0  0
    1.3186   -0.2888   26.0768 H   0  0  0  0  0  0  0  0  0  0  0  0
    0.3583   -0.4873   28.2712 H   0  0  0  0  0  0  0  0  0  0  0  0
    1.8171   -2.5556   29.1190 H   0  0  0  0  0  0  0  0  0  0  0  0
    2.5239   -1.0564   28.5032 H   0  0  0  0  0  0  0  0  0  0  0  0
   -2.6063   -4.3554   28.3639 H   0  0  0  0  0  0  0  0  0  0  0  0
   -1.1590   -5.1845   28.5014 H   0  0  0  0  0  0  0  0  0  0  0  0
   -1.4577   -5.9970   25.9133 H   0  0  0  0  0  0  0  0  0  0  0  0
   -1.9499   -6.7781   27.2973 H   0  0  0  0  0  0  0  0  0  0  0  0
   -4.1667   -5.1873   27.2129 H   0  0  0  0  0  0  0  0  0  0  0  0
   -6.0240   -6.2235   26.4635 H   0  0  0  0  0  0  0  0  0  0  0  0
   -3.0987   -5.7436   24.3996 H   0  0  0  0  0  0  0  0  0  0  0  0
   -3.7751   -6.8420   23.6770 H   0  0  0  0  0  0  0  0  0  0  0  0
   -4.1689   -5.0953   23.5142 H   0  0  0  0  0  0  0  0  0  0  0  0
   -7.8149   -8.1042   25.2077 H   0  0  0  0  0  0  0  0  0  0  0  0
   -8.4917  -10.6758   24.6697 H   0  0  0  0  0  0  0  0  0  0  0  0
   -7.2557  -11.2882   23.9534 H   0  0  0  0  0  0  0  0  0  0  0  0
   -9.0847  -12.6727   27.3818 H   0  0  0  0  0  0  0  0  0  0  0  0
  -10.1378  -15.0602   26.3139 H   0  0  0  0  0  0  0  0  0  0  0  0
   -7.6675  -13.8721   23.6734 H   0  0  0  0  0  0  0  0  0  0  0  0
   -3.1052   -3.5802   24.6937 H   0  0  0  0  0  0  0  0  0  0  0  0
   -1.9021   -4.5899   24.9197 H   0  0  0  0  0  0  0  0  0  0  0  0
   -1.3622   -2.6275   25.7212 H   0  0  0  0  0  0  0  0  0  0  0  0
   -2.5361   -2.3452   26.8631 H   0  0  0  0  0  0  0  0  0  0  0  0
  1  2  1  0
  2  3  1  0
  3  4  1  0
  2  5  1  0
  5  6  2  0
  5  7  1  0
  7  8  1  0
  8  9  1  0
  9 10  1  0
 10 11  1  0
 11 12  1  0
 11 13  1  0
 13 14  1  0
 14 15  2  0
 14 16  1  0
 16 17  1  0
 17 18  2  0
 18 19  1  0
 19 20  2  0
 20 21  1  0
 10 22  1  0
 22 23  1  0
 23  7  1  0
 21 17  1  0
  1 24  1  0
  1 25  1  0
  1 26  1  0
  2 27  1  0
  3 28  1  0
  3 29  1  0
  8 30  1  0
  8 31  1  0
  9 32  1  0
  9 33  1  0
 10 34  1  0
 11 35  1  0
 12 36  1  0
 12 37  1  0
 12 38  1  0
 13 39  1  0
 16 40  1  0
 16 41  1  0
 18 42  1  0
 19 43  1  0
 21 44  1  0
 22 45  1  0
 22 46  1  0
 23 47  1  0
 23 48  1  0
M  END
>  <Energy>  (754) 
830.932887451434

>  <compound_id>  (754) 
15318

>  <target_id>  (754) 
1

>  <reference_id>  (754) 
96

>  <inspiration_ids>  (754) 
[44, 96]

>  <energy_score>  (754) 
779.4299834876861

>  <distance_score>  (754) 
8.866766579125217

>  <path>  (754) 
/opt/xchem-fragalysis-2/maxwin/BulkDock/SCRATCH/511013/C15318-P96/C15318-P96.minimised.mol

>  <scratch_subdir>  (754) 
/opt/xchem-fragalysis-2/maxwin/BulkDock/SCRATCH/511013/C15318-P96

>  <fragmenstein_runtime>  (754) 
19.45058846473694

>  <fragmenstein_outcome>  (754) 
too moved

>  <fragmenstein_mode>  (754) 
expansion

>  <fragmenstein_error>  (754) 


$$$$
C15320-P44
     RDKit          3D

 52 53  0  0  0  0  0  0  0  0999 V2000
   -1.2615   -3.1264   34.9051 C   0  0  0  0  0  0  0  0  0  0  0  0
   -1.6118   -3.9376   36.1478 C   0  0  0  0  0  0  0  0  0  0  0  0
   -0.4249   -4.7977   36.5767 C   0  0  0  0  0  0  0  0  0  0  0  0
   -3.0429   -5.0445   35.8500 S   0  0  0  0  0  0  0  0  0  0  0  0
   -4.3884   -3.8107   35.7237 C   0  0  0  0  0  0  0  0  0  0  0  0
   -4.9143   -3.7589   34.2828 C   0  0  0  0  0  0  0  0  0  0  0  0
   -4.1848   -3.4402   33.3760 O   0  0  0  0  0  0  0  0  0  0  0  0
   -6.3091   -4.1160   34.2805 N   0  0  0  0  0  0  0  0  0  0  0  0
   -6.4674   -5.6040   34.1041 C   0  0  0  0  0  0  0  0  0  0  0  0
   -6.3997   -6.4599   32.7939 C   0  0  0  0  0  0  0  0  0  0  0  0
   -6.5552   -5.7714   31.3039 C   0  0  0  0  0  0  0  0  0  0  0  0
   -6.1825   -6.2588   29.3570 C   0  0  0  0  0  0  0  0  0  0  0  0
   -5.9906   -4.3824   29.0389 C   0  0  0  0  0  0  0  0  0  0  0  0
   -5.6280   -8.0037   28.4644 N   0  0  0  0  0  0  0  0  0  0  0  0
   -6.6434   -9.3133   27.4023 C   0  0  0  0  0  0  0  0  0  0  0  0
   -7.8028   -9.1019   27.3271 O   0  0  0  0  0  0  0  0  0  0  0  0
   -6.2238  -11.2256   26.4332 C   0  0  0  0  0  0  0  0  0  0  0  0
   -7.0595  -12.9640   27.1662 C   0  0  0  0  0  0  0  0  0  0  0  0
   -6.9982  -13.8250   28.4925 C   0  0  0  0  0  0  0  0  0  0  0  0
   -8.0004  -14.8333   28.6901 C   0  0  0  0  0  0  0  0  0  0  0  0
   -8.7764  -14.7840   27.6401 N   0  0  0  0  0  0  0  0  0  0  0  0
   -8.4182  -13.5828   27.1363 N   0  0  0  0  0  0  0  0  0  0  0  0
   -6.7766   -4.2606   31.7529 C   0  0  0  0  0  0  0  0  0  0  0  0
   -7.3208   -4.0980   33.1784 C   0  0  0  0  0  0  0  0  0  0  0  0
   -0.3612   -2.5272   35.0825 H   0  0  0  0  0  0  0  0  0  0  0  0
   -1.0644   -3.7694   34.0401 H   0  0  0  0  0  0  0  0  0  0  0  0
   -2.0596   -2.4260   34.6413 H   0  0  0  0  0  0  0  0  0  0  0  0
   -1.8631   -3.2620   36.9727 H   0  0  0  0  0  0  0  0  0  0  0  0
   -0.6514   -5.3680   37.4847 H   0  0  0  0  0  0  0  0  0  0  0  0
    0.4426   -4.1662   36.7992 H   0  0  0  0  0  0  0  0  0  0  0  0
   -0.1259   -5.5023   35.7921 H   0  0  0  0  0  0  0  0  0  0  0  0
   -5.1815   -4.1075   36.4172 H   0  0  0  0  0  0  0  0  0  0  0  0
   -4.0577   -2.8091   36.0138 H   0  0  0  0  0  0  0  0  0  0  0  0
   -5.6788   -6.0404   34.7350 H   0  0  0  0  0  0  0  0  0  0  0  0
   -7.3648   -5.8926   34.6850 H   0  0  0  0  0  0  0  0  0  0  0  0
   -5.6635   -7.2611   32.8813 H   0  0  0  0  0  0  0  0  0  0  0  0
   -7.3187   -7.0398   32.9877 H   0  0  0  0  0  0  0  0  0  0  0  0
   -7.3860   -6.3932   31.4052 H   0  0  0  0  0  0  0  0  0  0  0  0
   -6.6490   -5.8675   28.4482 H   0  0  0  0  0  0  0  0  0  0  0  0
   -5.2366   -3.9087   28.4241 H   0  0  0  0  0  0  0  0  0  0  0  0
   -6.9244   -3.8840   28.6971 H   0  0  0  0  0  0  0  0  0  0  0  0
   -5.8011   -3.8903   29.9633 H   0  0  0  0  0  0  0  0  0  0  0  0
   -4.6806   -8.2165   28.3924 H   0  0  0  0  0  0  0  0  0  0  0  0
   -5.3871  -11.7101   26.9830 H   0  0  0  0  0  0  0  0  0  0  0  0
   -6.6299  -11.3011   25.4185 H   0  0  0  0  0  0  0  0  0  0  0  0
   -6.3264  -13.7031   29.3353 H   0  0  0  0  0  0  0  0  0  0  0  0
   -8.1163  -15.5625   29.4770 H   0  0  0  0  0  0  0  0  0  0  0  0
   -9.2498  -13.0564   26.9514 H   0  0  0  0  0  0  0  0  0  0  0  0
   -5.8309   -3.7161   31.7422 H   0  0  0  0  0  0  0  0  0  0  0  0
   -7.4759   -3.7230   31.1028 H   0  0  0  0  0  0  0  0  0  0  0  0
   -7.6301   -3.0407   33.2160 H   0  0  0  0  0  0  0  0  0  0  0  0
   -8.2797   -4.6094   33.3759 H   0  0  0  0  0  0  0  0  0  0  0  0
  1  2  1  0
  2  3  1  0
  2  4  1  0
  4  5  1  0
  5  6  1  0
  6  7  2  0
  6  8  1  0
  8  9  1  0
  9 10  1  0
 10 11  1  0
 11 12  1  0
 12 13  1  0
 12 14  1  0
 14 15  1  0
 15 16  2  0
 15 17  1  0
 17 18  1  0
 18 19  2  0
 19 20  1  0
 20 21  2  0
 21 22  1  0
 11 23  1  0
 23 24  1  0
 24  8  1  0
 22 18  1  0
  1 25  1  0
  1 26  1  0
  1 27  1  0
  2 28  1  0
  3 29  1  0
  3 30  1  0
  3 31  1  0
  5 32  1  0
  5 33  1  0
  9 34  1  0
  9 35  1  0
 10 36  1  0
 10 37  1  0
 11 38  1  0
 12 39  1  0
 13 40  1  0
 13 41  1  0
 13 42  1  0
 14 43  1  0
 17 44  1  0
 17 45  1  0
 19 46  1  0
 20 47  1  0
 22 48  1  0
 23 49  1  0
 23 50  1  0
 24 51  1  0
 24 52  1  0
M  END
>  <Energy>  (755) 
880.19646208726158

>  <compound_id>  (755) 
15320

>  <target_id>  (755) 
1

>  <reference_id>  (755) 
44

>  <inspiration_ids>  (755) 
[44, 96]

>  <energy_score>  (755) 
777.6048043517753

>  <distance_score>  (755) 
10.37570506935042

>  <path>  (755) 
/opt/xchem-fragalysis-2/maxwin/BulkDock/SCRATCH/511013/C15320-P44/C15320-P44.minimised.mol

>  <scratch_subdir>  (755) 
/opt/xchem-fragalysis-2/maxwin/BulkDock/SCRATCH/511013/C15320-P44

>  <fragmenstein_runtime>  (755) 
36.16710948944092

>  <fragmenstein_outcome>  (755) 
too moved

>  <fragmenstein_mode>  (755) 
expansion

>  <fragmenstein_error>  (755) 


$$$$
C15320-P96
     RDKit          3D

 52 53  0  0  0  0  0  0  0  0999 V2000
   -0.8017   -6.9039   37.0568 C   0  0  0  0  0  0  0  0  0  0  0  0
   -1.6980   -6.2436   36.0168 C   0  0  0  0  0  0  0  0  0  0  0  0
   -3.1678   -6.5973   36.2270 C   0  0  0  0  0  0  0  0  0  0  0  0
   -1.1763   -6.5811   34.2896 S   0  0  0  0  0  0  0  0  0  0  0  0
   -1.2107   -8.4017   34.2229 C   0  0  0  0  0  0  0  0  0  0  0  0
    0.2059   -9.0000   34.2696 C   0  0  0  0  0  0  0  0  0  0  0  0
    0.9332   -8.7965   35.2058 O   0  0  0  0  0  0  0  0  0  0  0  0
    0.4044   -9.7929   33.0903 N   0  0  0  0  0  0  0  0  0  0  0  0
   -0.0905  -11.2100   33.3261 C   0  0  0  0  0  0  0  0  0  0  0  0
   -0.5634  -11.9350   32.0642 C   0  0  0  0  0  0  0  0  0  0  0  0
    0.6433  -12.3856   31.2584 C   0  0  0  0  0  0  0  0  0  0  0  0
    0.2474  -13.0326   29.9103 C   0  0  0  0  0  0  0  0  0  0  0  0
    1.4439  -13.2718   28.9914 C   0  0  0  0  0  0  0  0  0  0  0  0
   -0.4688  -14.3006   30.0835 N   0  0  0  0  0  0  0  0  0  0  0  0
   -1.6931  -14.7908   29.4789 C   0  0  0  0  0  0  0  0  0  0  0  0
   -2.4711  -14.2521   28.7453 O   0  0  0  0  0  0  0  0  0  0  0  0
   -1.9491  -16.2529   29.9414 C   0  0  0  0  0  0  0  0  0  0  0  0
   -3.0523  -16.9397   29.1822 C   0  0  0  0  0  0  0  0  0  0  0  0
   -3.0640  -18.0497   28.3613 C   0  0  0  0  0  0  0  0  0  0  0  0
   -4.3812  -18.1266   27.8750 C   0  0  0  0  0  0  0  0  0  0  0  0
   -5.1774  -17.2043   28.4204 N   0  0  0  0  0  0  0  0  0  0  0  0
   -4.3394  -16.4695   29.1619 N   0  0  0  0  0  0  0  0  0  0  0  0
    1.5361  -11.1498   31.1867 C   0  0  0  0  0  0  0  0  0  0  0  0
    1.6237  -10.5301   32.5941 C   0  0  0  0  0  0  0  0  0  0  0  0
   -1.0716   -6.5566   38.0606 H   0  0  0  0  0  0  0  0  0  0  0  0
   -0.9011   -7.9936   37.0596 H   0  0  0  0  0  0  0  0  0  0  0  0
    0.2509   -6.6465   36.8979 H   0  0  0  0  0  0  0  0  0  0  0  0
   -1.6001   -5.1583   36.1376 H   0  0  0  0  0  0  0  0  0  0  0  0
   -3.3534   -7.6734   36.1567 H   0  0  0  0  0  0  0  0  0  0  0  0
   -3.4940   -6.2776   37.2232 H   0  0  0  0  0  0  0  0  0  0  0  0
   -3.8085   -6.0891   35.4979 H   0  0  0  0  0  0  0  0  0  0  0  0
   -1.8005   -8.8429   35.0298 H   0  0  0  0  0  0  0  0  0  0  0  0
   -1.7035   -8.6710   33.2829 H   0  0  0  0  0  0  0  0  0  0  0  0
    0.4983  -11.8207   34.0327 H   0  0  0  0  0  0  0  0  0  0  0  0
   -1.0186  -11.0719   33.9043 H   0  0  0  0  0  0  0  0  0  0  0  0
   -1.1879  -12.7924   32.3381 H   0  0  0  0  0  0  0  0  0  0  0  0
   -1.1647  -11.2475   31.4732 H   0  0  0  0  0  0  0  0  0  0  0  0
    1.1760  -13.1473   31.8469 H   0  0  0  0  0  0  0  0  0  0  0  0
   -0.4408  -12.3670   29.3906 H   0  0  0  0  0  0  0  0  0  0  0  0
    1.1294  -13.7635   28.0638 H   0  0  0  0  0  0  0  0  0  0  0  0
    2.1859  -13.9192   29.4714 H   0  0  0  0  0  0  0  0  0  0  0  0
    1.9316  -12.3321   28.7151 H   0  0  0  0  0  0  0  0  0  0  0  0
   -0.0199  -15.0594   30.5839 H   0  0  0  0  0  0  0  0  0  0  0  0
   -1.0231  -16.8267   29.8169 H   0  0  0  0  0  0  0  0  0  0  0  0
   -2.2008  -16.2306   31.0081 H   0  0  0  0  0  0  0  0  0  0  0  0
   -2.2277  -18.6766   28.0897 H   0  0  0  0  0  0  0  0  0  0  0  0
   -4.7963  -18.8195   27.1537 H   0  0  0  0  0  0  0  0  0  0  0  0
   -4.6985  -15.6263   29.5941 H   0  0  0  0  0  0  0  0  0  0  0  0
    2.5423  -11.4266   30.8530 H   0  0  0  0  0  0  0  0  0  0  0  0
    1.1377  -10.4322   30.4690 H   0  0  0  0  0  0  0  0  0  0  0  0
    2.1500  -11.1472   33.3428 H   0  0  0  0  0  0  0  0  0  0  0  0
    2.3441   -9.7042   32.4878 H   0  0  0  0  0  0  0  0  0  0  0  0
  1  2  1  0
  2  3  1  0
  2  4  1  0
  4  5  1  0
  5  6  1  0
  6  7  2  0
  6  8  1  0
  8  9  1  0
  9 10  1  0
 10 11  1  0
 11 12  1  0
 12 13  1  0
 12 14  1  0
 14 15  1  0
 15 16  2  0
 15 17  1  0
 17 18  1  0
 18 19  2  0
 19 20  1  0
 20 21  2  0
 21 22  1  0
 11 23  1  0
 23 24  1  0
 24  8  1  0
 22 18  1  0
  1 25  1  0
  1 26  1  0
  1 27  1  0
  2 28  1  0
  3 29  1  0
  3 30  1  0
  3 31  1  0
  5 32  1  0
  5 33  1  0
  9 34  1  0
  9 35  1  0
 10 36  1  0
 10 37  1  0
 11 38  1  0
 12 39  1  0
 13 40  1  0
 13 41  1  0
 13 42  1  0
 14 43  1  0
 17 44  1  0
 17 45  1  0
 19 46  1  0
 20 47  1  0
 22 48  1  0
 23 49  1  0
 23 50  1  0
 24 51  1  0
 24 52  1  0
M  END
>  <Energy>  (756) 
113.74551385520232

>  <compound_id>  (756) 
15320

>  <target_id>  (756) 
1

>  <reference_id>  (756) 
96

>  <inspiration_ids>  (756) 
[44, 96]

>  <energy_score>  (756) 
11.153856119702368

>  <distance_score>  (756) 
12.390240280661382

>  <path>  (756) 
/opt/xchem-fragalysis-2/maxwin/BulkDock/SCRATCH/511013/C15320-P96/C15320-P96.minimised.mol

>  <scratch_subdir>  (756) 
/opt/xchem-fragalysis-2/maxwin/BulkDock/SCRATCH/511013/C15320-P96

>  <fragmenstein_runtime>  (756) 
35.42561364173889

>  <fragmenstein_outcome>  (756) 
too moved

>  <fragmenstein_mode>  (756) 
expansion

>  <fragmenstein_error>  (756) 


$$$$
C15321-P44
     RDKit          3D

 48 49  0  0  0  0  0  0  0  0999 V2000
   -0.3000    2.3962   26.8301 C   0  0  0  0  0  0  0  0  0  0  0  0
   -1.4999    2.7271   27.6888 C   0  0  0  0  0  0  0  0  0  0  0  0
   -1.8443    1.6345   28.4191 F   0  0  0  0  0  0  0  0  0  0  0  0
   -2.6830    3.2814   26.9267 C   0  0  0  0  0  0  0  0  0  0  0  0
   -3.3657    2.5438   25.7725 C   0  0  0  0  0  0  0  0  0  0  0  0
   -3.2758    3.0799   24.6956 O   0  0  0  0  0  0  0  0  0  0  0  0
   -4.0993    1.3558   26.1790 N   0  0  0  0  0  0  0  0  0  0  0  0
   -5.2707    0.3150   25.2526 C   0  0  0  0  0  0  0  0  0  0  0  0
   -6.1439   -1.5470   25.5678 C   0  0  0  0  0  0  0  0  0  0  0  0
   -4.7130   -2.5025   26.7719 C   0  0  0  0  0  0  0  0  0  0  0  0
   -5.0376   -3.8730   28.2585 C   0  0  0  0  0  0  0  0  0  0  0  0
   -3.2840   -3.1491   29.0902 C   0  0  0  0  0  0  0  0  0  0  0  0
   -6.0149   -5.7374   27.9932 N   0  0  0  0  0  0  0  0  0  0  0  0
   -5.3379   -7.6525   27.9153 C   0  0  0  0  0  0  0  0  0  0  0  0
   -4.1928   -7.7428   28.1406 O   0  0  0  0  0  0  0  0  0  0  0  0
   -6.6413   -9.1188   27.3287 C   0  0  0  0  0  0  0  0  0  0  0  0
   -7.0009  -10.4550   25.8531 C   0  0  0  0  0  0  0  0  0  0  0  0
   -6.5023  -11.7280   25.4667 C   0  0  0  0  0  0  0  0  0  0  0  0
   -6.7572  -12.7505   26.4396 C   0  0  0  0  0  0  0  0  0  0  0  0
   -7.9458  -12.6968   26.8666 N   0  0  0  0  0  0  0  0  0  0  0  0
   -8.2373  -11.2888   25.9594 N   0  0  0  0  0  0  0  0  0  0  0  0
   -3.1938   -1.3375   26.9436 C   0  0  0  0  0  0  0  0  0  0  0  0
   -3.1503    0.0572   26.0342 C   0  0  0  0  0  0  0  0  0  0  0  0
    0.5457    2.1045   27.4613 H   0  0  0  0  0  0  0  0  0  0  0  0
   -0.5160    1.5467   26.1880 H   0  0  0  0  0  0  0  0  0  0  0  0
    0.0032    3.2457   26.2115 H   0  0  0  0  0  0  0  0  0  0  0  0
   -1.1867    3.4859   28.4151 H   0  0  0  0  0  0  0  0  0  0  0  0
   -2.3515    4.2407   26.5040 H   0  0  0  0  0  0  0  0  0  0  0  0
   -3.4593    3.5454   27.6272 H   0  0  0  0  0  0  0  0  0  0  0  0
   -6.0298    1.1254   25.5467 H   0  0  0  0  0  0  0  0  0  0  0  0
   -5.7533    0.7551   24.4265 H   0  0  0  0  0  0  0  0  0  0  0  0
   -7.2017   -1.3611   25.9672 H   0  0  0  0  0  0  0  0  0  0  0  0
   -6.5118   -2.1196   24.6729 H   0  0  0  0  0  0  0  0  0  0  0  0
   -3.8448   -2.8293   26.2182 H   0  0  0  0  0  0  0  0  0  0  0  0
   -5.8244   -3.5377   28.9161 H   0  0  0  0  0  0  0  0  0  0  0  0
   -2.3638   -3.7739   29.1444 H   0  0  0  0  0  0  0  0  0  0  0  0
   -3.3696   -2.8335   30.1772 H   0  0  0  0  0  0  0  0  0  0  0  0
   -2.7810   -2.3232   28.6551 H   0  0  0  0  0  0  0  0  0  0  0  0
   -6.9780   -5.7291   27.7085 H   0  0  0  0  0  0  0  0  0  0  0  0
   -7.4433   -8.7222   26.7538 H   0  0  0  0  0  0  0  0  0  0  0  0
   -7.1184   -9.3201   28.3150 H   0  0  0  0  0  0  0  0  0  0  0  0
   -6.0044  -11.9087   24.5162 H   0  0  0  0  0  0  0  0  0  0  0  0
   -6.5117  -13.7084   26.7454 H   0  0  0  0  0  0  0  0  0  0  0  0
   -9.2134  -11.1711   25.7373 H   0  0  0  0  0  0  0  0  0  0  0  0
   -3.1481   -0.8992   27.9399 H   0  0  0  0  0  0  0  0  0  0  0  0
   -2.2717   -1.8883   26.7661 H   0  0  0  0  0  0  0  0  0  0  0  0
   -2.4479    0.4853   26.7646 H   0  0  0  0  0  0  0  0  0  0  0  0
   -2.3283    0.1520   25.3543 H   0  0  0  0  0  0  0  0  0  0  0  0
  1  2  1  0
  2  3  1  0
  2  4  1  0
  4  5  1  0
  5  6  2  0
  5  7  1  0
  7  8  1  0
  8  9  1  0
  9 10  1  0
 10 11  1  0
 11 12  1  0
 11 13  1  0
 13 14  1  0
 14 15  2  0
 14 16  1  0
 16 17  1  0
 17 18  2  0
 18 19  1  0
 19 20  2  0
 20 21  1  0
 10 22  1  0
 22 23  1  0
 23  7  1  0
 21 17  1  0
  1 24  1  0
  1 25  1  0
  1 26  1  0
  2 27  1  0
  4 28  1  0
  4 29  1  0
  8 30  1  0
  8 31  1  0
  9 32  1  0
  9 33  1  0
 10 34  1  0
 11 35  1  0
 12 36  1  0
 12 37  1  0
 12 38  1  0
 13 39  1  0
 16 40  1  0
 16 41  1  0
 18 42  1  0
 19 43  1  0
 21 44  1  0
 22 45  1  0
 22 46  1  0
 23 47  1  0
 23 48  1  0
M  END
>  <Energy>  (757) 
1147.0603643315042

>  <compound_id>  (757) 
15321

>  <target_id>  (757) 
1

>  <reference_id>  (757) 
44

>  <inspiration_ids>  (757) 
[44, 96]

>  <energy_score>  (757) 
1102.8459723421677

>  <distance_score>  (757) 
9.53371223011982

>  <path>  (757) 
/opt/xchem-fragalysis-2/maxwin/BulkDock/SCRATCH/511013/C15321-P44/C15321-P44.minimised.mol

>  <scratch_subdir>  (757) 
/opt/xchem-fragalysis-2/maxwin/BulkDock/SCRATCH/511013/C15321-P44

>  <fragmenstein_runtime>  (757) 
30.054280757904053

>  <fragmenstein_outcome>  (757) 
too moved

>  <fragmenstein_mode>  (757) 
expansion

>  <fragmenstein_error>  (757) 


$$$$
C15321-P96
     RDKit          3D

 48 49  0  0  0  0  0  0  0  0999 V2000
   -5.2328   -4.7477   38.3427 C   0  0  0  0  0  0  0  0  0  0  0  0
   -3.9523   -4.0673   37.8924 C   0  0  0  0  0  0  0  0  0  0  0  0
   -4.1846   -2.7302   37.7942 F   0  0  0  0  0  0  0  0  0  0  0  0
   -3.3772   -4.5876   36.5836 C   0  0  0  0  0  0  0  0  0  0  0  0
   -4.3966   -4.5739   35.4509 C   0  0  0  0  0  0  0  0  0  0  0  0
   -4.7004   -3.5474   34.9177 O   0  0  0  0  0  0  0  0  0  0  0  0
   -4.8886   -5.8983   35.2603 N   0  0  0  0  0  0  0  0  0  0  0  0
   -6.0341   -6.4200   34.4051 C   0  0  0  0  0  0  0  0  0  0  0  0
   -6.3762   -6.2785   32.8656 C   0  0  0  0  0  0  0  0  0  0  0  0
   -5.2667   -6.9114   32.0642 C   0  0  0  0  0  0  0  0  0  0  0  0
   -5.2758   -7.5127   30.3040 C   0  0  0  0  0  0  0  0  0  0  0  0
   -4.1079   -6.5459   29.7426 C   0  0  0  0  0  0  0  0  0  0  0  0
   -5.9643   -9.2452   29.8632 N   0  0  0  0  0  0  0  0  0  0  0  0
   -5.3271  -10.4979   28.8273 C   0  0  0  0  0  0  0  0  0  0  0  0
   -4.3396  -10.4373   28.1122 O   0  0  0  0  0  0  0  0  0  0  0  0
   -6.1583  -12.2884   28.8838 C   0  0  0  0  0  0  0  0  0  0  0  0
   -5.4118  -14.1275   29.0577 C   0  0  0  0  0  0  0  0  0  0  0  0
   -4.2609  -14.8407   28.5107 C   0  0  0  0  0  0  0  0  0  0  0  0
   -4.1964  -16.1460   29.0316 C   0  0  0  0  0  0  0  0  0  0  0  0
   -4.9779  -16.2557   30.0849 N   0  0  0  0  0  0  0  0  0  0  0  0
   -5.4316  -15.0067   30.2452 N   0  0  0  0  0  0  0  0  0  0  0  0
   -4.0151   -6.2401   32.6957 C   0  0  0  0  0  0  0  0  0  0  0  0
   -4.0607   -6.6145   34.2105 C   0  0  0  0  0  0  0  0  0  0  0  0
   -6.0617   -4.5272   37.6629 H   0  0  0  0  0  0  0  0  0  0  0  0
   -5.1059   -5.8320   38.4136 H   0  0  0  0  0  0  0  0  0  0  0  0
   -5.5286   -4.3685   39.3265 H   0  0  0  0  0  0  0  0  0  0  0  0
   -3.1949   -4.1895   38.6746 H   0  0  0  0  0  0  0  0  0  0  0  0
   -2.9914   -5.6023   36.7364 H   0  0  0  0  0  0  0  0  0  0  0  0
   -2.5299   -3.9686   36.2681 H   0  0  0  0  0  0  0  0  0  0  0  0
   -6.2092   -7.4650   34.7167 H   0  0  0  0  0  0  0  0  0  0  0  0
   -6.8799   -5.8936   34.8760 H   0  0  0  0  0  0  0  0  0  0  0  0
   -6.5941   -5.2922   32.5294 H   0  0  0  0  0  0  0  0  0  0  0  0
   -7.3167   -6.8106   32.7775 H   0  0  0  0  0  0  0  0  0  0  0  0
   -5.2378   -7.7957   32.6647 H   0  0  0  0  0  0  0  0  0  0  0  0
   -4.3900   -8.0874   30.1222 H   0  0  0  0  0  0  0  0  0  0  0  0
   -3.7426   -5.8176   30.4592 H   0  0  0  0  0  0  0  0  0  0  0  0
   -3.1569   -7.0541   29.4895 H   0  0  0  0  0  0  0  0  0  0  0  0
   -4.4128   -5.9300   28.9314 H   0  0  0  0  0  0  0  0  0  0  0  0
   -6.7595   -9.6000   30.3655 H   0  0  0  0  0  0  0  0  0  0  0  0
   -6.7800  -12.3727   27.9830 H   0  0  0  0  0  0  0  0  0  0  0  0
   -6.8751  -12.2300   29.7019 H   0  0  0  0  0  0  0  0  0  0  0  0
   -3.5742  -14.5021   27.7449 H   0  0  0  0  0  0  0  0  0  0  0  0
   -3.5678  -16.9741   28.7319 H   0  0  0  0  0  0  0  0  0  0  0  0
   -5.7497  -14.7628   31.1777 H   0  0  0  0  0  0  0  0  0  0  0  0
   -3.9784   -5.1551   32.5777 H   0  0  0  0  0  0  0  0  0  0  0  0
   -3.0947   -6.6714   32.2853 H   0  0  0  0  0  0  0  0  0  0  0  0
   -4.1134   -7.7050   34.3812 H   0  0  0  0  0  0  0  0  0  0  0  0
   -3.0278   -6.4060   34.5346 H   0  0  0  0  0  0  0  0  0  0  0  0
  1  2  1  0
  2  3  1  0
  2  4  1  0
  4  5  1  0
  5  6  2  0
  5  7  1  0
  7  8  1  0
  8  9  1  0
  9 10  1  0
 10 11  1  0
 11 12  1  0
 11 13  1  0
 13 14  1  0
 14 15  2  0
 14 16  1  0
 16 17  1  0
 17 18  2  0
 18 19  1  0
 19 20  2  0
 20 21  1  0
 10 22  1  0
 22 23  1  0
 23  7  1  0
 21 17  1  0
  1 24  1  0
  1 25  1  0
  1 26  1  0
  2 27  1  0
  4 28  1  0
  4 29  1  0
  8 30  1  0
  8 31  1  0
  9 32  1  0
  9 33  1  0
 10 34  1  0
 11 35  1  0
 12 36  1  0
 12 37  1  0
 12 38  1  0
 13 39  1  0
 16 40  1  0
 16 41  1  0
 18 42  1  0
 19 43  1  0
 21 44  1  0
 22 45  1  0
 22 46  1  0
 23 47  1  0
 23 48  1  0
M  END
>  <Energy>  (758) 
442.06385447167247

>  <compound_id>  (758) 
15321

>  <target_id>  (758) 
1

>  <reference_id>  (758) 
96

>  <inspiration_ids>  (758) 
[44, 96]

>  <energy_score>  (758) 
397.84946248234473

>  <distance_score>  (758) 
10.815919993912999

>  <path>  (758) 
/opt/xchem-fragalysis-2/maxwin/BulkDock/SCRATCH/511013/C15321-P96/C15321-P96.minimised.mol

>  <scratch_subdir>  (758) 
/opt/xchem-fragalysis-2/maxwin/BulkDock/SCRATCH/511013/C15321-P96

>  <fragmenstein_runtime>  (758) 
26.115691423416138

>  <fragmenstein_outcome>  (758) 
too moved

>  <fragmenstein_mode>  (758) 
expansion

>  <fragmenstein_error>  (758) 


$$$$
C15323-P44
     RDKit          3D

 48 49  0  0  0  0  0  0  0  0999 V2000
   -8.6504  -13.9333   27.5215 C   0  0  0  0  0  0  0  0  0  0  0  0
   -7.0904  -14.1997   28.0803 C   0  0  0  0  0  0  0  0  0  0  0  0
   -8.1508  -15.8522   27.9619 C   0  0  0  0  0  0  0  0  0  0  0  0
   -8.5387  -16.2754   26.7095 F   0  0  0  0  0  0  0  0  0  0  0  0
   -6.6686  -12.6019   27.2934 C   0  0  0  0  0  0  0  0  0  0  0  0
   -6.6533  -12.2680   26.1251 O   0  0  0  0  0  0  0  0  0  0  0  0
   -6.4996  -11.7661   28.6152 N   0  0  0  0  0  0  0  0  0  0  0  0
   -4.9986  -11.7638   29.0266 C   0  0  0  0  0  0  0  0  0  0  0  0
   -6.4201   -9.7018   28.9263 C   0  0  0  0  0  0  0  0  0  0  0  0
   -5.6507   -7.8175   28.7444 C   0  0  0  0  0  0  0  0  0  0  0  0
   -6.3035   -5.8091   28.1443 C   0  0  0  0  0  0  0  0  0  0  0  0
   -6.0792   -4.1757   28.8543 C   0  0  0  0  0  0  0  0  0  0  0  0
   -6.1339   -4.4001   30.2670 C   0  0  0  0  0  0  0  0  0  0  0  0
   -6.2937   -6.1978   29.9614 C   0  0  0  0  0  0  0  0  0  0  0  0
   -4.5400   -7.0577   29.1864 N   0  0  0  0  0  0  0  0  0  0  0  0
   -3.0512   -7.5376   30.1185 C   0  0  0  0  0  0  0  0  0  0  0  0
   -2.8400   -7.5565   31.3217 O   0  0  0  0  0  0  0  0  0  0  0  0
   -1.6227   -7.8741   29.2886 C   0  0  0  0  0  0  0  0  0  0  0  0
   -0.5452   -7.2123   30.1847 C   0  0  0  0  0  0  0  0  0  0  0  0
   -0.0405   -5.9288   30.2878 C   0  0  0  0  0  0  0  0  0  0  0  0
    0.9263   -5.9927   31.3061 C   0  0  0  0  0  0  0  0  0  0  0  0
    1.0185   -7.2117   31.8367 N   0  0  0  0  0  0  0  0  0  0  0  0
    0.0956   -7.9211   31.1730 N   0  0  0  0  0  0  0  0  0  0  0  0
   -8.9068  -14.4479   26.5866 H   0  0  0  0  0  0  0  0  0  0  0  0
   -9.4305  -14.0911   28.2701 H   0  0  0  0  0  0  0  0  0  0  0  0
   -8.8571  -12.9914   27.1269 H   0  0  0  0  0  0  0  0  0  0  0  0
   -6.9730  -14.0689   29.1500 H   0  0  0  0  0  0  0  0  0  0  0  0
   -9.1034  -15.8236   28.5022 H   0  0  0  0  0  0  0  0  0  0  0  0
   -7.5595  -16.7103   28.2581 H   0  0  0  0  0  0  0  0  0  0  0  0
   -4.3140  -11.9351   28.1661 H   0  0  0  0  0  0  0  0  0  0  0  0
   -4.2487  -11.5393   29.7775 H   0  0  0  0  0  0  0  0  0  0  0  0
   -5.1030  -12.7338   29.5115 H   0  0  0  0  0  0  0  0  0  0  0  0
   -7.3775   -9.3737   28.5047 H   0  0  0  0  0  0  0  0  0  0  0  0
   -6.7531   -9.8082   29.9504 H   0  0  0  0  0  0  0  0  0  0  0  0
   -5.2164   -8.1038   27.7815 H   0  0  0  0  0  0  0  0  0  0  0  0
   -7.3445   -5.5548   27.7682 H   0  0  0  0  0  0  0  0  0  0  0  0
   -5.9011   -5.7448   27.1944 H   0  0  0  0  0  0  0  0  0  0  0  0
   -6.9717   -3.5864   28.5611 H   0  0  0  0  0  0  0  0  0  0  0  0
   -5.2237   -3.6171   28.4842 H   0  0  0  0  0  0  0  0  0  0  0  0
   -7.0433   -3.9542   30.7083 H   0  0  0  0  0  0  0  0  0  0  0  0
   -5.3744   -4.0214   30.9601 H   0  0  0  0  0  0  0  0  0  0  0  0
   -6.1793   -5.7696   31.0962 H   0  0  0  0  0  0  0  0  0  0  0  0
   -6.7866   -6.6059   30.9160 H   0  0  0  0  0  0  0  0  0  0  0  0
   -1.8379   -7.3202   28.3964 H   0  0  0  0  0  0  0  0  0  0  0  0
   -1.1782   -8.8723   29.1711 H   0  0  0  0  0  0  0  0  0  0  0  0
   -0.3107   -5.0611   29.7005 H   0  0  0  0  0  0  0  0  0  0  0  0
    1.5656   -5.2035   31.6814 H   0  0  0  0  0  0  0  0  0  0  0  0
   -0.0486   -8.8853   31.4525 H   0  0  0  0  0  0  0  0  0  0  0  0
  1  2  1  0
  2  3  1  0
  3  4  1  0
  2  5  1  0
  5  6  2  0
  5  7  1  0
  7  8  1  0
  7  9  1  0
  9 10  1  0
 10 11  1  0
 11 12  1  0
 12 13  1  0
 13 14  1  0
 14 15  1  0
 15 16  1  0
 16 17  2  0
 16 18  1  0
 18 19  1  0
 19 20  2  0
 20 21  1  0
 21 22  2  0
 22 23  1  0
 15 10  1  0
 23 19  1  0
  1 24  1  0
  1 25  1  0
  1 26  1  0
  2 27  1  0
  3 28  1  0
  3 29  1  0
  8 30  1  0
  8 31  1  0
  8 32  1  0
  9 33  1  0
  9 34  1  0
 10 35  1  0
 11 36  1  0
 11 37  1  0
 12 38  1  0
 12 39  1  0
 13 40  1  0
 13 41  1  0
 14 42  1  0
 14 43  1  0
 18 44  1  0
 18 45  1  0
 20 46  1  0
 21 47  1  0
 23 48  1  0
M  END
>  <Energy>  (759) 
1169.9398214093446

>  <compound_id>  (759) 
15323

>  <target_id>  (759) 
1

>  <reference_id>  (759) 
44

>  <inspiration_ids>  (759) 
[44, 96]

>  <energy_score>  (759) 
1098.0566463576092

>  <distance_score>  (759) 
10.408131867113747

>  <path>  (759) 
/opt/xchem-fragalysis-2/maxwin/BulkDock/SCRATCH/511013/C15323-P44/C15323-P44.minimised.mol

>  <scratch_subdir>  (759) 
/opt/xchem-fragalysis-2/maxwin/BulkDock/SCRATCH/511013/C15323-P44

>  <fragmenstein_runtime>  (759) 
47.714502811431885

>  <fragmenstein_outcome>  (759) 
too moved

>  <fragmenstein_mode>  (759) 
expansion

>  <fragmenstein_error>  (759) 


$$$$
C15323-P96
     RDKit          3D

 48 49  0  0  0  0  0  0  0  0999 V2000
   -3.2301  -13.6750   36.6987 C   0  0  0  0  0  0  0  0  0  0  0  0
   -3.0097  -13.9848   35.2234 C   0  0  0  0  0  0  0  0  0  0  0  0
   -4.1501  -14.8680   34.6623 C   0  0  0  0  0  0  0  0  0  0  0  0
   -4.1551  -16.0795   35.2823 F   0  0  0  0  0  0  0  0  0  0  0  0
   -2.9308  -12.6658   34.4207 C   0  0  0  0  0  0  0  0  0  0  0  0
   -3.9592  -12.1355   34.0958 O   0  0  0  0  0  0  0  0  0  0  0  0
   -1.5678  -12.3308   34.1069 N   0  0  0  0  0  0  0  0  0  0  0  0
   -1.1310  -13.0536   32.8529 C   0  0  0  0  0  0  0  0  0  0  0  0
   -0.9744  -11.1166   33.3462 C   0  0  0  0  0  0  0  0  0  0  0  0
   -0.8694   -9.7295   34.1498 C   0  0  0  0  0  0  0  0  0  0  0  0
   -0.4812   -8.5474   33.1556 C   0  0  0  0  0  0  0  0  0  0  0  0
   -0.9156   -7.1931   33.6588 C   0  0  0  0  0  0  0  0  0  0  0  0
   -2.3426   -7.3556   34.1182 C   0  0  0  0  0  0  0  0  0  0  0  0
   -2.6525   -8.8482   34.3794 C   0  0  0  0  0  0  0  0  0  0  0  0
   -1.8236   -9.5691   35.3833 N   0  0  0  0  0  0  0  0  0  0  0  0
   -1.0877   -9.0797   36.5178 C   0  0  0  0  0  0  0  0  0  0  0  0
   -0.8812   -7.9529   36.8901 O   0  0  0  0  0  0  0  0  0  0  0  0
   -0.6167  -10.2651   37.3750 C   0  0  0  0  0  0  0  0  0  0  0  0
    0.6694  -10.8482   36.9119 C   0  0  0  0  0  0  0  0  0  0  0  0
    1.9801  -10.4625   37.0860 C   0  0  0  0  0  0  0  0  0  0  0  0
    2.7297  -11.4127   36.3699 C   0  0  0  0  0  0  0  0  0  0  0  0
    1.9589  -12.3277   35.7773 N   0  0  0  0  0  0  0  0  0  0  0  0
    0.7158  -11.9948   36.1639 N   0  0  0  0  0  0  0  0  0  0  0  0
   -2.3871  -13.1079   37.1038 H   0  0  0  0  0  0  0  0  0  0  0  0
   -4.1348  -13.0761   36.8505 H   0  0  0  0  0  0  0  0  0  0  0  0
   -3.3269  -14.5958   37.2828 H   0  0  0  0  0  0  0  0  0  0  0  0
   -2.0711  -14.5435   35.1332 H   0  0  0  0  0  0  0  0  0  0  0  0
   -4.0167  -15.0417   33.5896 H   0  0  0  0  0  0  0  0  0  0  0  0
   -5.1320  -14.4091   34.8167 H   0  0  0  0  0  0  0  0  0  0  0  0
   -1.6542  -12.7633   31.9325 H   0  0  0  0  0  0  0  0  0  0  0  0
   -1.4460  -14.0990   32.9846 H   0  0  0  0  0  0  0  0  0  0  0  0
   -0.0401  -13.1435   32.7499 H   0  0  0  0  0  0  0  0  0  0  0  0
   -1.6325  -10.8815   32.5028 H   0  0  0  0  0  0  0  0  0  0  0  0
    0.0643  -11.2676   33.0077 H   0  0  0  0  0  0  0  0  0  0  0  0
    0.0962   -9.8554   34.6530 H   0  0  0  0  0  0  0  0  0  0  0  0
    0.6006   -8.5600   32.9739 H   0  0  0  0  0  0  0  0  0  0  0  0
   -0.9481   -8.7276   32.1787 H   0  0  0  0  0  0  0  0  0  0  0  0
   -0.8256   -6.4237   32.8853 H   0  0  0  0  0  0  0  0  0  0  0  0
   -0.2781   -6.8867   34.4952 H   0  0  0  0  0  0  0  0  0  0  0  0
   -3.0331   -6.9835   33.3523 H   0  0  0  0  0  0  0  0  0  0  0  0
   -2.5193   -6.7553   35.0179 H   0  0  0  0  0  0  0  0  0  0  0  0
   -3.6251   -8.8107   34.8952 H   0  0  0  0  0  0  0  0  0  0  0  0
   -2.9158   -9.4308   33.4931 H   0  0  0  0  0  0  0  0  0  0  0  0
   -1.4087  -11.0216   37.3977 H   0  0  0  0  0  0  0  0  0  0  0  0
   -0.5110   -9.9096   38.4074 H   0  0  0  0  0  0  0  0  0  0  0  0
    2.3415   -9.6074   37.6405 H   0  0  0  0  0  0  0  0  0  0  0  0
    3.8037  -11.4697   36.2471 H   0  0  0  0  0  0  0  0  0  0  0  0
   -0.0652  -12.5529   35.8255 H   0  0  0  0  0  0  0  0  0  0  0  0
  1  2  1  0
  2  3  1  0
  3  4  1  0
  2  5  1  0
  5  6  2  0
  5  7  1  0
  7  8  1  0
  7  9  1  0
  9 10  1  0
 10 11  1  0
 11 12  1  0
 12 13  1  0
 13 14  1  0
 14 15  1  0
 15 16  1  0
 16 17  2  0
 16 18  1  0
 18 19  1  0
 19 20  2  0
 20 21  1  0
 21 22  2  0
 22 23  1  0
 15 10  1  0
 23 19  1  0
  1 24  1  0
  1 25  1  0
  1 26  1  0
  2 27  1  0
  3 28  1  0
  3 29  1  0
  8 30  1  0
  8 31  1  0
  8 32  1  0
  9 33  1  0
  9 34  1  0
 10 35  1  0
 11 36  1  0
 11 37  1  0
 12 38  1  0
 12 39  1  0
 13 40  1  0
 13 41  1  0
 14 42  1  0
 14 43  1  0
 18 44  1  0
 18 45  1  0
 20 46  1  0
 21 47  1  0
 23 48  1  0
M  END
>  <Energy>  (760) 
173.45893113358261

>  <compound_id>  (760) 
15323

>  <target_id>  (760) 
1

>  <reference_id>  (760) 
96

>  <inspiration_ids>  (760) 
[44, 96]

>  <energy_score>  (760) 
101.5757560818501

>  <distance_score>  (760) 
12.747543612083032

>  <path>  (760) 
/opt/xchem-fragalysis-2/maxwin/BulkDock/SCRATCH/511013/C15323-P96/C15323-P96.minimised.mol

>  <scratch_subdir>  (760) 
/opt/xchem-fragalysis-2/maxwin/BulkDock/SCRATCH/511013/C15323-P96

>  <fragmenstein_runtime>  (760) 
43.17383170127869

>  <fragmenstein_outcome>  (760) 
too moved

>  <fragmenstein_mode>  (760) 
expansion

>  <fragmenstein_error>  (760) 


$$$$
C15326-P44
     RDKit          3D

 39 40  0  0  0  0  0  0  0  0999 V2000
   -1.2556   -9.8558   30.3953 C   0  0  0  0  0  0  0  0  0  0  0  0
   -1.8930  -10.9612   29.8190 C   0  0  0  0  0  0  0  0  0  0  0  0
   -3.2695  -12.2674   29.3244 C   0  0  0  0  0  0  0  0  0  0  0  0
   -2.9172  -12.0752   27.6069 C   0  0  0  0  0  0  0  0  0  0  0  0
   -4.9692  -13.0947   29.7197 O   0  0  0  0  0  0  0  0  0  0  0  0
   -5.8070  -14.4013   30.7007 N   0  0  0  0  0  0  0  0  0  0  0  0
   -5.1979  -15.8233   31.4658 C   0  0  0  0  0  0  0  0  0  0  0  0
   -4.0459  -16.0707   31.4959 O   0  0  0  0  0  0  0  0  0  0  0  0
   -6.4319  -17.1175   32.2559 N   0  0  0  0  0  0  0  0  0  0  0  0
   -7.2168  -18.4292   31.5617 C   0  0  0  0  0  0  0  0  0  0  0  0
   -6.8829  -20.3127   32.2835 C   0  0  0  0  0  0  0  0  0  0  0  0
   -7.6073  -20.9991   33.8318 C   0  0  0  0  0  0  0  0  0  0  0  0
   -8.0582  -22.6806   34.0566 C   0  0  0  0  0  0  0  0  0  0  0  0
   -7.3258  -23.7802   33.6678 C   0  0  0  0  0  0  0  0  0  0  0  0
   -8.4460  -24.7746   32.6731 C   0  0  0  0  0  0  0  0  0  0  0  0
   -9.6597  -24.4628   32.7172 N   0  0  0  0  0  0  0  0  0  0  0  0
   -9.3317  -23.2648   32.9484 N   0  0  0  0  0  0  0  0  0  0  0  0
   -6.6447  -20.0824   34.4617 C   0  0  0  0  0  0  0  0  0  0  0  0
   -6.1390  -18.6150   33.1543 C   0  0  0  0  0  0  0  0  0  0  0  0
   -0.1597   -9.7945   30.4074 H   0  0  0  0  0  0  0  0  0  0  0  0
   -1.6781   -9.2814   31.2291 H   0  0  0  0  0  0  0  0  0  0  0  0
   -1.1427  -11.4754   30.4537 H   0  0  0  0  0  0  0  0  0  0  0  0
   -3.9329  -11.5096   29.4942 H   0  0  0  0  0  0  0  0  0  0  0  0
   -2.1799  -11.3211   27.3577 H   0  0  0  0  0  0  0  0  0  0  0  0
   -3.8447  -12.0031   27.0624 H   0  0  0  0  0  0  0  0  0  0  0  0
   -2.4875  -12.9382   27.0548 H   0  0  0  0  0  0  0  0  0  0  0  0
   -6.7980  -14.3456   30.8652 H   0  0  0  0  0  0  0  0  0  0  0  0
   -8.0538  -18.0883   31.3085 H   0  0  0  0  0  0  0  0  0  0  0  0
   -7.0032  -18.5368   30.4808 H   0  0  0  0  0  0  0  0  0  0  0  0
   -5.8163  -20.5013   32.4267 H   0  0  0  0  0  0  0  0  0  0  0  0
   -7.3967  -19.7085   32.9343 H   0  0  0  0  0  0  0  0  0  0  0  0
   -8.5684  -20.5435   34.1485 H   0  0  0  0  0  0  0  0  0  0  0  0
   -6.2445  -23.7969   33.4967 H   0  0  0  0  0  0  0  0  0  0  0  0
   -8.2095  -25.4772   31.8778 H   0  0  0  0  0  0  0  0  0  0  0  0
  -10.1340  -22.7080   32.6812 H   0  0  0  0  0  0  0  0  0  0  0  0
   -5.7654  -20.7450   34.5892 H   0  0  0  0  0  0  0  0  0  0  0  0
   -7.0302  -19.7181   35.4257 H   0  0  0  0  0  0  0  0  0  0  0  0
   -5.1887  -19.1079   33.1476 H   0  0  0  0  0  0  0  0  0  0  0  0
   -7.2168  -18.3794   33.4516 H   0  0  0  0  0  0  0  0  0  0  0  0
  1  2  2  0
  2  3  1  0
  3  4  1  0
  3  5  1  0
  5  6  1  0
  6  7  1  0
  7  8  2  0
  7  9  1  0
  9 10  1  0
 10 11  1  0
 11 12  1  0
 12 13  1  0
 13 14  2  0
 14 15  1  0
 15 16  2  0
 16 17  1  0
 12 18  1  0
 18 19  1  0
 19  9  1  0
 17 13  1  0
  1 20  1  0
  1 21  1  0
  2 22  1  0
  3 23  1  0
  4 24  1  0
  4 25  1  0
  4 26  1  0
  6 27  1  0
 10 28  1  0
 10 29  1  0
 11 30  1  0
 11 31  1  0
 12 32  1  0
 14 33  1  0
 15 34  1  0
 17 35  1  0
 18 36  1  0
 18 37  1  0
 19 38  1  0
 19 39  1  0
M  END
>  <Energy>  (761) 
1316.1839043046532

>  <compound_id>  (761) 
15326

>  <target_id>  (761) 
1

>  <reference_id>  (761) 
44

>  <inspiration_ids>  (761) 
[44, 96]

>  <energy_score>  (761) 
1263.0615015332855

>  <distance_score>  (761) 
8.92996967123986

>  <path>  (761) 
/opt/xchem-fragalysis-2/maxwin/BulkDock/SCRATCH/511013/C15326-P44/C15326-P44.minimised.mol

>  <scratch_subdir>  (761) 
/opt/xchem-fragalysis-2/maxwin/BulkDock/SCRATCH/511013/C15326-P44

>  <fragmenstein_runtime>  (761) 
28.88472819328308

>  <fragmenstein_outcome>  (761) 
too moved

>  <fragmenstein_mode>  (761) 
expansion

>  <fragmenstein_error>  (761) 


$$$$
C15326-P96
     RDKit          3D

 39 40  0  0  0  0  0  0  0  0999 V2000
   -7.7176   -8.1395   30.1537 C   0  0  0  0  0  0  0  0  0  0  0  0
   -6.5966   -8.8145   29.8538 C   0  0  0  0  0  0  0  0  0  0  0  0
   -6.0619  -10.4264   29.6475 C   0  0  0  0  0  0  0  0  0  0  0  0
   -5.2711   -9.7835   28.1999 C   0  0  0  0  0  0  0  0  0  0  0  0
   -7.2735  -11.8500   29.8733 O   0  0  0  0  0  0  0  0  0  0  0  0
   -7.7955  -12.4905   31.3593 N   0  0  0  0  0  0  0  0  0  0  0  0
   -7.2367  -13.8625   32.2381 C   0  0  0  0  0  0  0  0  0  0  0  0
   -6.4388  -14.6330   31.8585 O   0  0  0  0  0  0  0  0  0  0  0  0
   -8.0148  -13.9061   33.4511 N   0  0  0  0  0  0  0  0  0  0  0  0
   -9.2723  -14.5759   33.2370 C   0  0  0  0  0  0  0  0  0  0  0  0
  -10.2192  -15.4840   34.0381 C   0  0  0  0  0  0  0  0  0  0  0  0
   -9.7213  -16.7935   33.3246 C   0  0  0  0  0  0  0  0  0  0  0  0
  -10.9131  -17.9597   33.5728 C   0  0  0  0  0  0  0  0  0  0  0  0
  -11.9188  -18.1478   34.5098 C   0  0  0  0  0  0  0  0  0  0  0  0
  -12.4855  -19.4116   34.2101 C   0  0  0  0  0  0  0  0  0  0  0  0
  -11.9605  -19.9723   33.1203 N   0  0  0  0  0  0  0  0  0  0  0  0
  -11.0156  -19.0948   32.7548 N   0  0  0  0  0  0  0  0  0  0  0  0
   -7.9139  -16.3755   33.6693 C   0  0  0  0  0  0  0  0  0  0  0  0
   -7.9604  -14.8189   34.5571 C   0  0  0  0  0  0  0  0  0  0  0  0
   -8.6705   -8.6153   30.3487 H   0  0  0  0  0  0  0  0  0  0  0  0
   -7.7039   -7.0582   30.2503 H   0  0  0  0  0  0  0  0  0  0  0  0
   -5.7579   -8.1137   29.8064 H   0  0  0  0  0  0  0  0  0  0  0  0
   -5.7554  -11.2113   28.9333 H   0  0  0  0  0  0  0  0  0  0  0  0
   -5.9477   -9.6855   27.3444 H   0  0  0  0  0  0  0  0  0  0  0  0
   -4.7636   -8.8248   28.3633 H   0  0  0  0  0  0  0  0  0  0  0  0
   -4.4248  -10.4136   27.9072 H   0  0  0  0  0  0  0  0  0  0  0  0
   -8.4153  -11.9516   31.9429 H   0  0  0  0  0  0  0  0  0  0  0  0
   -9.9175  -13.7280   33.5325 H   0  0  0  0  0  0  0  0  0  0  0  0
   -9.4844  -14.3846   32.1967 H   0  0  0  0  0  0  0  0  0  0  0  0
  -11.2977  -15.2344   34.0077 H   0  0  0  0  0  0  0  0  0  0  0  0
  -10.1711  -15.4132   35.1348 H   0  0  0  0  0  0  0  0  0  0  0  0
   -9.4062  -17.2375   32.4057 H   0  0  0  0  0  0  0  0  0  0  0  0
  -12.1661  -17.4900   35.3287 H   0  0  0  0  0  0  0  0  0  0  0  0
  -13.2699  -19.9366   34.7375 H   0  0  0  0  0  0  0  0  0  0  0  0
  -10.4591  -19.3003   31.9334 H   0  0  0  0  0  0  0  0  0  0  0  0
   -7.2913  -17.1049   34.1825 H   0  0  0  0  0  0  0  0  0  0  0  0
   -7.3806  -16.2325   32.7553 H   0  0  0  0  0  0  0  0  0  0  0  0
   -8.5531  -14.6445   35.4605 H   0  0  0  0  0  0  0  0  0  0  0  0
   -6.9288  -14.7504   34.9206 H   0  0  0  0  0  0  0  0  0  0  0  0
  1  2  2  0
  2  3  1  0
  3  4  1  0
  3  5  1  0
  5  6  1  0
  6  7  1  0
  7  8  2  0
  7  9  1  0
  9 10  1  0
 10 11  1  0
 11 12  1  0
 12 13  1  0
 13 14  2  0
 14 15  1  0
 15 16  2  0
 16 17  1  0
 12 18  1  0
 18 19  1  0
 19  9  1  0
 17 13  1  0
  1 20  1  0
  1 21  1  0
  2 22  1  0
  3 23  1  0
  4 24  1  0
  4 25  1  0
  4 26  1  0
  6 27  1  0
 10 28  1  0
 10 29  1  0
 11 30  1  0
 11 31  1  0
 12 32  1  0
 14 33  1  0
 15 34  1  0
 17 35  1  0
 18 36  1  0
 18 37  1  0
 19 38  1  0
 19 39  1  0
M  END
>  <Energy>  (762) 
508.4085091437388

>  <compound_id>  (762) 
15326

>  <target_id>  (762) 
1

>  <reference_id>  (762) 
96

>  <inspiration_ids>  (762) 
[44, 96]

>  <energy_score>  (762) 
455.2861063723834

>  <distance_score>  (762) 
9.81708068842781

>  <path>  (762) 
/opt/xchem-fragalysis-2/maxwin/BulkDock/SCRATCH/511013/C15326-P96/C15326-P96.minimised.mol

>  <scratch_subdir>  (762) 
/opt/xchem-fragalysis-2/maxwin/BulkDock/SCRATCH/511013/C15326-P96

>  <fragmenstein_runtime>  (762) 
14.358235120773315

>  <fragmenstein_outcome>  (762) 
too moved

>  <fragmenstein_mode>  (762) 
expansion

>  <fragmenstein_error>  (762) 


$$$$
C15327-P44
     RDKit          3D

 40 41  0  0  0  0  0  0  0  0999 V2000
   -8.4894  -10.0622   24.5768 C   0  0  0  0  0  0  0  0  0  0  0  0
   -9.3110  -11.1320   24.6196 C   0  0  0  0  0  0  0  0  0  0  0  0
   -8.9064  -12.6027   24.4441 C   0  0  0  0  0  0  0  0  0  0  0  0
   -7.9527  -13.0901   25.5023 C   0  0  0  0  0  0  0  0  0  0  0  0
  -10.0289  -13.5165   24.1043 O   0  0  0  0  0  0  0  0  0  0  0  0
  -10.3544  -14.6131   24.9569 N   0  0  0  0  0  0  0  0  0  0  0  0
  -10.6645  -14.6527   26.3672 C   0  0  0  0  0  0  0  0  0  0  0  0
  -10.6460  -13.8082   27.1596 O   0  0  0  0  0  0  0  0  0  0  0  0
  -11.1516  -16.1246   26.5776 N   0  0  0  0  0  0  0  0  0  0  0  0
   -9.8584  -17.0884   27.0375 C   0  0  0  0  0  0  0  0  0  0  0  0
   -9.4827  -18.6027   28.1772 C   0  0  0  0  0  0  0  0  0  0  0  0
  -10.7546  -19.9441   29.3566 C   0  0  0  0  0  0  0  0  0  0  0  0
  -11.0828  -20.5173   30.5885 O   0  0  0  0  0  0  0  0  0  0  0  0
  -11.0966  -21.4703   28.4595 C   0  0  0  0  0  0  0  0  0  0  0  0
  -10.4703  -22.6908   28.2032 C   0  0  0  0  0  0  0  0  0  0  0  0
  -11.2547  -23.4026   27.2725 C   0  0  0  0  0  0  0  0  0  0  0  0
  -12.3364  -22.7123   26.9755 N   0  0  0  0  0  0  0  0  0  0  0  0
  -12.2927  -21.7265   27.8896 N   0  0  0  0  0  0  0  0  0  0  0  0
  -11.8980  -18.2854   29.0508 C   0  0  0  0  0  0  0  0  0  0  0  0
  -11.9001  -16.8591   27.9306 C   0  0  0  0  0  0  0  0  0  0  0  0
   -8.8806   -9.0617   24.7289 H   0  0  0  0  0  0  0  0  0  0  0  0
   -7.4231  -10.1737   24.4158 H   0  0  0  0  0  0  0  0  0  0  0  0
  -10.3723  -10.9736   24.7985 H   0  0  0  0  0  0  0  0  0  0  0  0
   -8.3333  -12.6153   23.5062 H   0  0  0  0  0  0  0  0  0  0  0  0
   -7.6740  -14.1133   25.2511 H   0  0  0  0  0  0  0  0  0  0  0  0
   -7.0691  -12.4561   25.5574 H   0  0  0  0  0  0  0  0  0  0  0  0
   -8.4047  -13.1606   26.4843 H   0  0  0  0  0  0  0  0  0  0  0  0
  -10.3956  -15.5492   24.5826 H   0  0  0  0  0  0  0  0  0  0  0  0
   -9.0422  -16.3855   27.3010 H   0  0  0  0  0  0  0  0  0  0  0  0
   -9.4303  -17.1955   26.0433 H   0  0  0  0  0  0  0  0  0  0  0  0
   -8.8124  -17.9289   28.7447 H   0  0  0  0  0  0  0  0  0  0  0  0
   -8.5734  -19.1170   28.2772 H   0  0  0  0  0  0  0  0  0  0  0  0
  -11.7186  -21.2607   30.4980 H   0  0  0  0  0  0  0  0  0  0  0  0
   -9.4564  -22.9952   28.3562 H   0  0  0  0  0  0  0  0  0  0  0  0
  -11.0270  -24.3216   26.7498 H   0  0  0  0  0  0  0  0  0  0  0  0
  -13.1595  -21.3373   28.1833 H   0  0  0  0  0  0  0  0  0  0  0  0
  -12.8210  -18.7922   29.2453 H   0  0  0  0  0  0  0  0  0  0  0  0
  -11.7874  -17.5603   29.8000 H   0  0  0  0  0  0  0  0  0  0  0  0
  -13.0139  -16.7439   27.8199 H   0  0  0  0  0  0  0  0  0  0  0  0
  -12.1900  -15.8897   28.3844 H   0  0  0  0  0  0  0  0  0  0  0  0
  1  2  2  0
  2  3  1  0
  3  4  1  0
  3  5  1  0
  5  6  1  0
  6  7  1  0
  7  8  2  0
  7  9  1  0
  9 10  1  0
 10 11  1  0
 11 12  1  0
 12 13  1  0
 12 14  1  0
 14 15  2  0
 15 16  1  0
 16 17  2  0
 17 18  1  0
 12 19  1  0
 19 20  1  0
 20  9  1  0
 18 14  1  0
  1 21  1  0
  1 22  1  0
  2 23  1  0
  3 24  1  0
  4 25  1  0
  4 26  1  0
  4 27  1  0
  6 28  1  0
 10 29  1  0
 10 30  1  0
 11 31  1  0
 11 32  1  0
 13 33  1  0
 15 34  1  0
 16 35  1  0
 18 36  1  0
 19 37  1  0
 19 38  1  0
 20 39  1  0
 20 40  1  0
M  END
>  <Energy>  (763) 
556.4819295925314

>  <compound_id>  (763) 
15327

>  <target_id>  (763) 
1

>  <reference_id>  (763) 
44

>  <inspiration_ids>  (763) 
[44, 96]

>  <energy_score>  (763) 
510.4790666393915

>  <distance_score>  (763) 
11.10529278417764

>  <path>  (763) 
/opt/xchem-fragalysis-2/maxwin/BulkDock/SCRATCH/511013/C15327-P44/C15327-P44.minimised.mol

>  <scratch_subdir>  (763) 
/opt/xchem-fragalysis-2/maxwin/BulkDock/SCRATCH/511013/C15327-P44

>  <fragmenstein_runtime>  (763) 
20.665093660354614

>  <fragmenstein_outcome>  (763) 
too moved

>  <fragmenstein_mode>  (763) 
expansion

>  <fragmenstein_error>  (763) 


$$$$
C15327-P96
     RDKit          3D

 40 41  0  0  0  0  0  0  0  0999 V2000
   -8.2392   -7.0077   29.6928 C   0  0  0  0  0  0  0  0  0  0  0  0
   -8.2349   -8.2622   30.1897 C   0  0  0  0  0  0  0  0  0  0  0  0
   -7.0373   -9.2364   30.1604 C   0  0  0  0  0  0  0  0  0  0  0  0
   -5.9756   -8.8310   28.9957 C   0  0  0  0  0  0  0  0  0  0  0  0
   -7.2050  -11.0634   30.3108 O   0  0  0  0  0  0  0  0  0  0  0  0
   -7.8978  -12.0254   31.6106 N   0  0  0  0  0  0  0  0  0  0  0  0
   -7.2789  -13.5456   32.4127 C   0  0  0  0  0  0  0  0  0  0  0  0
   -6.3204  -14.1692   32.0808 O   0  0  0  0  0  0  0  0  0  0  0  0
   -8.1710  -13.8171   33.7095 N   0  0  0  0  0  0  0  0  0  0  0  0
   -9.2643  -14.7241   33.3978 C   0  0  0  0  0  0  0  0  0  0  0  0
  -10.6039  -14.4640   34.2219 C   0  0  0  0  0  0  0  0  0  0  0  0
  -10.5235  -15.0074   35.6408 C   0  0  0  0  0  0  0  0  0  0  0  0
  -11.2937  -14.2774   36.6096 O   0  0  0  0  0  0  0  0  0  0  0  0
  -11.3605  -16.3141   35.6123 C   0  0  0  0  0  0  0  0  0  0  0  0
  -11.6188  -17.2738   34.6326 C   0  0  0  0  0  0  0  0  0  0  0  0
  -12.6383  -18.1000   35.1093 C   0  0  0  0  0  0  0  0  0  0  0  0
  -13.1046  -17.6556   36.2698 N   0  0  0  0  0  0  0  0  0  0  0  0
  -12.2930  -16.6296   36.5732 N   0  0  0  0  0  0  0  0  0  0  0  0
   -9.0122  -14.7312   35.9957 C   0  0  0  0  0  0  0  0  0  0  0  0
   -7.9898  -14.7698   34.8263 C   0  0  0  0  0  0  0  0  0  0  0  0
   -9.1294   -6.3930   29.7900 H   0  0  0  0  0  0  0  0  0  0  0  0
   -7.3882   -6.5689   29.1860 H   0  0  0  0  0  0  0  0  0  0  0  0
   -9.1175   -8.6038   30.7176 H   0  0  0  0  0  0  0  0  0  0  0  0
   -6.4922   -8.7804   30.9441 H   0  0  0  0  0  0  0  0  0  0  0  0
   -6.4804   -8.5175   28.0737 H   0  0  0  0  0  0  0  0  0  0  0  0
   -5.3164   -9.6634   28.7402 H   0  0  0  0  0  0  0  0  0  0  0  0
   -5.3710   -7.9717   29.3102 H   0  0  0  0  0  0  0  0  0  0  0  0
   -8.7611  -11.7494   32.0313 H   0  0  0  0  0  0  0  0  0  0  0  0
   -9.0105  -15.7733   33.2378 H   0  0  0  0  0  0  0  0  0  0  0  0
   -9.5126  -14.2958   32.4250 H   0  0  0  0  0  0  0  0  0  0  0  0
  -10.8067  -13.4221   34.0702 H   0  0  0  0  0  0  0  0  0  0  0  0
  -11.5719  -14.7903   33.8377 H   0  0  0  0  0  0  0  0  0  0  0  0
  -10.8361  -14.3599   37.4636 H   0  0  0  0  0  0  0  0  0  0  0  0
  -11.1155  -17.3743   33.6882 H   0  0  0  0  0  0  0  0  0  0  0  0
  -13.0847  -18.9728   34.6534 H   0  0  0  0  0  0  0  0  0  0  0  0
  -12.4886  -16.1027   37.4151 H   0  0  0  0  0  0  0  0  0  0  0  0
   -8.8975  -13.7195   36.4016 H   0  0  0  0  0  0  0  0  0  0  0  0
   -8.6100  -15.1343   36.9063 H   0  0  0  0  0  0  0  0  0  0  0  0
   -7.5133  -15.7162   34.5272 H   0  0  0  0  0  0  0  0  0  0  0  0
   -7.1010  -14.3193   35.2951 H   0  0  0  0  0  0  0  0  0  0  0  0
  1  2  2  0
  2  3  1  0
  3  4  1  0
  3  5  1  0
  5  6  1  0
  6  7  1  0
  7  8  2  0
  7  9  1  0
  9 10  1  0
 10 11  1  0
 11 12  1  0
 12 13  1  0
 12 14  1  0
 14 15  2  0
 15 16  1  0
 16 17  2  0
 17 18  1  0
 12 19  1  0
 19 20  1  0
 20  9  1  0
 18 14  1  0
  1 21  1  0
  1 22  1  0
  2 23  1  0
  3 24  1  0
  4 25  1  0
  4 26  1  0
  4 27  1  0
  6 28  1  0
 10 29  1  0
 10 30  1  0
 11 31  1  0
 11 32  1  0
 13 33  1  0
 15 34  1  0
 16 35  1  0
 18 36  1  0
 19 37  1  0
 19 38  1  0
 20 39  1  0
 20 40  1  0
M  END
>  <Energy>  (764) 
298.36073537767743

>  <compound_id>  (764) 
15327

>  <target_id>  (764) 
1

>  <reference_id>  (764) 
96

>  <inspiration_ids>  (764) 
[44, 96]

>  <energy_score>  (764) 
252.3578724245337

>  <distance_score>  (764) 
10.711453647245692

>  <path>  (764) 
/opt/xchem-fragalysis-2/maxwin/BulkDock/SCRATCH/511013/C15327-P96/C15327-P96.minimised.mol

>  <scratch_subdir>  (764) 
/opt/xchem-fragalysis-2/maxwin/BulkDock/SCRATCH/511013/C15327-P96

>  <fragmenstein_runtime>  (764) 
16.228716373443604

>  <fragmenstein_outcome>  (764) 
too moved

>  <fragmenstein_mode>  (764) 
expansion

>  <fragmenstein_error>  (764) 


$$$$
C15329-P44
     RDKit          3D

 42 43  0  0  0  0  0  0  0  0999 V2000
    0.6028   -8.4503   29.0191 C   0  0  0  0  0  0  0  0  0  0  0  0
   -0.4876   -9.6946   28.8787 C   0  0  0  0  0  0  0  0  0  0  0  0
   -1.5518  -10.8225   30.0324 C   0  0  0  0  0  0  0  0  0  0  0  0
   -0.5968   -9.6189   31.1888 C   0  0  0  0  0  0  0  0  0  0  0  0
   -2.0946   -9.3083   31.2603 C   0  0  0  0  0  0  0  0  0  0  0  0
   -1.9861   -7.7748   30.3956 N   0  0  0  0  0  0  0  0  0  0  0  0
   -2.3693   -9.3755   32.4147 O   0  0  0  0  0  0  0  0  0  0  0  0
   -2.8442  -12.5835   29.5943 C   0  0  0  0  0  0  0  0  0  0  0  0
   -3.8061  -12.2156   28.9007 O   0  0  0  0  0  0  0  0  0  0  0  0
   -3.0990  -14.5529   30.1399 N   0  0  0  0  0  0  0  0  0  0  0  0
   -2.2646  -15.6297   28.8225 C   0  0  0  0  0  0  0  0  0  0  0  0
   -0.8611  -16.9380   28.6873 C   0  0  0  0  0  0  0  0  0  0  0  0
   -1.4532  -18.4942   28.5262 C   0  0  0  0  0  0  0  0  0  0  0  0
   -2.6974  -18.6693   29.4590 C   0  0  0  0  0  0  0  0  0  0  0  0
   -3.1448  -20.7973   29.7503 C   0  0  0  0  0  0  0  0  0  0  0  0
   -4.4794  -22.3343   29.7696 C   0  0  0  0  0  0  0  0  0  0  0  0
   -6.0890  -22.5813   28.6683 C   0  0  0  0  0  0  0  0  0  0  0  0
   -5.7256  -21.8262   27.7458 N   0  0  0  0  0  0  0  0  0  0  0  0
   -4.6165  -22.0130   28.9468 N   0  0  0  0  0  0  0  0  0  0  0  0
   -2.6588  -16.4506   29.4101 C   0  0  0  0  0  0  0  0  0  0  0  0
    1.0322   -8.1907   28.0666 H   0  0  0  0  0  0  0  0  0  0  0  0
    0.3055   -7.5890   29.6139 H   0  0  0  0  0  0  0  0  0  0  0  0
    1.5560   -8.7633   29.4840 H   0  0  0  0  0  0  0  0  0  0  0  0
   -0.7796   -9.9062   27.8965 H   0  0  0  0  0  0  0  0  0  0  0  0
    0.4524  -10.1989   28.9018 H   0  0  0  0  0  0  0  0  0  0  0  0
   -0.5294   -8.4745   31.4392 H   0  0  0  0  0  0  0  0  0  0  0  0
   -0.3989   -9.7714   32.2211 H   0  0  0  0  0  0  0  0  0  0  0  0
    0.2293   -9.1895   30.7105 H   0  0  0  0  0  0  0  0  0  0  0  0
   -1.8474   -7.9672   29.3768 H   0  0  0  0  0  0  0  0  0  0  0  0
   -1.6190   -7.9522   29.4396 H   0  0  0  0  0  0  0  0  0  0  0  0
   -2.6971  -15.5066   27.7776 H   0  0  0  0  0  0  0  0  0  0  0  0
   -1.5637  -14.7931   28.6038 H   0  0  0  0  0  0  0  0  0  0  0  0
   -0.2403  -16.8474   29.5879 H   0  0  0  0  0  0  0  0  0  0  0  0
   -0.2894  -16.6746   27.7907 H   0  0  0  0  0  0  0  0  0  0  0  0
   -1.7658  -18.6253   27.4852 H   0  0  0  0  0  0  0  0  0  0  0  0
   -0.6593  -19.2115   28.7534 H   0  0  0  0  0  0  0  0  0  0  0  0
   -2.2247  -18.7008   30.4686 H   0  0  0  0  0  0  0  0  0  0  0  0
   -4.2155  -23.6128   29.4065 H   0  0  0  0  0  0  0  0  0  0  0  0
   -7.0572  -23.0452   28.8212 H   0  0  0  0  0  0  0  0  0  0  0  0
   -4.0910  -22.5860   28.1547 H   0  0  0  0  0  0  0  0  0  0  0  0
   -2.4404  -16.6356   30.5354 H   0  0  0  0  0  0  0  0  0  0  0  0
   -3.8089  -16.6256   29.3335 H   0  0  0  0  0  0  0  0  0  0  0  0
  1  2  1  0
  2  3  1  0
  3  4  1  0
  3  5  1  0
  5  6  1  0
  5  7  2  0
  3  8  1  0
  8  9  2  0
  8 10  1  0
 10 11  1  0
 11 12  1  0
 12 13  1  0
 13 14  1  0
 14 15  1  0
 15 16  2  0
 16 17  1  0
 17 18  2  0
 18 19  1  0
 14 20  1  0
 20 10  1  0
 19 15  1  0
  1 21  1  0
  1 22  1  0
  1 23  1  0
  2 24  1  0
  2 25  1  0
  4 26  1  0
  4 27  1  0
  4 28  1  0
  6 29  1  0
  6 30  1  0
 11 31  1  0
 11 32  1  0
 12 33  1  0
 12 34  1  0
 13 35  1  0
 13 36  1  0
 14 37  1  0
 16 38  1  0
 17 39  1  0
 19 40  1  0
 20 41  1  0
 20 42  1  0
M  END
>  <Energy>  (765) 
2822.267080492566

>  <compound_id>  (765) 
15329

>  <target_id>  (765) 
1

>  <reference_id>  (765) 
44

>  <inspiration_ids>  (765) 
[44, 96]

>  <energy_score>  (765) 
2753.651912397461

>  <distance_score>  (765) 
10.006434426249063

>  <path>  (765) 
/opt/xchem-fragalysis-2/maxwin/BulkDock/SCRATCH/511013/C15329-P44/C15329-P44.minimised.mol

>  <scratch_subdir>  (765) 
/opt/xchem-fragalysis-2/maxwin/BulkDock/SCRATCH/511013/C15329-P44

>  <fragmenstein_runtime>  (765) 
16.98604440689087

>  <fragmenstein_outcome>  (765) 
too moved

>  <fragmenstein_mode>  (765) 
expansion

>  <fragmenstein_error>  (765) 


$$$$
C15329-P96
     RDKit          3D

 42 43  0  0  0  0  0  0  0  0999 V2000
   -1.6079   -7.6977   27.3583 C   0  0  0  0  0  0  0  0  0  0  0  0
   -2.3965   -8.5619   28.4925 C   0  0  0  0  0  0  0  0  0  0  0  0
   -3.9220   -9.2853   28.8564 C   0  0  0  0  0  0  0  0  0  0  0  0
   -3.8246  -10.0468   27.5921 C   0  0  0  0  0  0  0  0  0  0  0  0
   -4.1868   -7.4720   29.6737 C   0  0  0  0  0  0  0  0  0  0  0  0
   -5.3495   -7.4049   30.4847 N   0  0  0  0  0  0  0  0  0  0  0  0
   -3.4118   -6.6097   29.3550 O   0  0  0  0  0  0  0  0  0  0  0  0
   -5.6175  -10.2109   28.9204 C   0  0  0  0  0  0  0  0  0  0  0  0
   -6.3919   -9.6001   29.7189 O   0  0  0  0  0  0  0  0  0  0  0  0
   -6.5507  -11.5589   28.0394 N   0  0  0  0  0  0  0  0  0  0  0  0
   -6.8634  -13.0307   28.2577 C   0  0  0  0  0  0  0  0  0  0  0  0
   -8.5028  -13.5521   27.8629 C   0  0  0  0  0  0  0  0  0  0  0  0
   -8.9875  -14.2384   29.0580 C   0  0  0  0  0  0  0  0  0  0  0  0
   -7.6671  -14.3683   29.7488 C   0  0  0  0  0  0  0  0  0  0  0  0
   -7.7932  -14.3856   31.2253 C   0  0  0  0  0  0  0  0  0  0  0  0
   -7.0756  -15.1085   32.1384 C   0  0  0  0  0  0  0  0  0  0  0  0
   -7.6965  -14.8933   33.3671 C   0  0  0  0  0  0  0  0  0  0  0  0
   -8.7495  -14.0827   33.2565 N   0  0  0  0  0  0  0  0  0  0  0  0
   -8.7716  -13.7667   31.9548 N   0  0  0  0  0  0  0  0  0  0  0  0
   -6.4193  -13.1402   29.0630 C   0  0  0  0  0  0  0  0  0  0  0  0
   -1.7751   -8.0054   26.3326 H   0  0  0  0  0  0  0  0  0  0  0  0
   -0.5278   -7.8676   27.4493 H   0  0  0  0  0  0  0  0  0  0  0  0
   -1.7100   -6.6123   27.4645 H   0  0  0  0  0  0  0  0  0  0  0  0
   -1.6806   -9.2503   28.8724 H   0  0  0  0  0  0  0  0  0  0  0  0
   -2.2561   -7.9679   29.3580 H   0  0  0  0  0  0  0  0  0  0  0  0
   -3.3914  -10.9807   27.8944 H   0  0  0  0  0  0  0  0  0  0  0  0
   -3.3107   -9.5439   26.8026 H   0  0  0  0  0  0  0  0  0  0  0  0
   -4.7049  -10.3503   27.0676 H   0  0  0  0  0  0  0  0  0  0  0  0
   -5.7059   -8.3637   30.6370 H   0  0  0  0  0  0  0  0  0  0  0  0
   -5.8367   -8.3235   30.4473 H   0  0  0  0  0  0  0  0  0  0  0  0
   -7.0706  -12.8120   27.1321 H   0  0  0  0  0  0  0  0  0  0  0  0
   -6.4047  -14.0211   27.5627 H   0  0  0  0  0  0  0  0  0  0  0  0
   -8.4179  -14.2911   27.0470 H   0  0  0  0  0  0  0  0  0  0  0  0
   -9.1547  -12.7843   27.4754 H   0  0  0  0  0  0  0  0  0  0  0  0
   -9.7298  -13.6468   29.5892 H   0  0  0  0  0  0  0  0  0  0  0  0
   -9.4645  -15.1818   28.7914 H   0  0  0  0  0  0  0  0  0  0  0  0
   -7.2087  -15.3228   29.4425 H   0  0  0  0  0  0  0  0  0  0  0  0
   -6.2542  -15.7591   31.9053 H   0  0  0  0  0  0  0  0  0  0  0  0
   -7.4226  -15.2930   34.3344 H   0  0  0  0  0  0  0  0  0  0  0  0
   -9.5060  -13.1430   31.6364 H   0  0  0  0  0  0  0  0  0  0  0  0
   -6.5967  -12.5805   29.9904 H   0  0  0  0  0  0  0  0  0  0  0  0
   -5.4623  -13.7875   29.0999 H   0  0  0  0  0  0  0  0  0  0  0  0
  1  2  1  0
  2  3  1  0
  3  4  1  0
  3  5  1  0
  5  6  1  0
  5  7  2  0
  3  8  1  0
  8  9  2  0
  8 10  1  0
 10 11  1  0
 11 12  1  0
 12 13  1  0
 13 14  1  0
 14 15  1  0
 15 16  2  0
 16 17  1  0
 17 18  2  0
 18 19  1  0
 14 20  1  0
 20 10  1  0
 19 15  1  0
  1 21  1  0
  1 22  1  0
  1 23  1  0
  2 24  1  0
  2 25  1  0
  4 26  1  0
  4 27  1  0
  4 28  1  0
  6 29  1  0
  6 30  1  0
 11 31  1  0
 11 32  1  0
 12 33  1  0
 12 34  1  0
 13 35  1  0
 13 36  1  0
 14 37  1  0
 16 38  1  0
 17 39  1  0
 19 40  1  0
 20 41  1  0
 20 42  1  0
M  END
>  <Energy>  (766) 
1162.2285002280403

>  <compound_id>  (766) 
15329

>  <target_id>  (766) 
1

>  <reference_id>  (766) 
96

>  <inspiration_ids>  (766) 
[44, 96]

>  <energy_score>  (766) 
1093.613332132924

>  <distance_score>  (766) 
10.922373902892383

>  <path>  (766) 
/opt/xchem-fragalysis-2/maxwin/BulkDock/SCRATCH/511013/C15329-P96/C15329-P96.minimised.mol

>  <scratch_subdir>  (766) 
/opt/xchem-fragalysis-2/maxwin/BulkDock/SCRATCH/511013/C15329-P96

>  <fragmenstein_runtime>  (766) 
15.338475942611694

>  <fragmenstein_outcome>  (766) 
too moved

>  <fragmenstein_mode>  (766) 
expansion

>  <fragmenstein_error>  (766) 


$$$$
C15332-P44
     RDKit          3D

 48 49  0  0  0  0  0  0  0  0999 V2000
   -5.7623  -18.4404   32.8268 C   0  0  0  0  0  0  0  0  0  0  0  0
   -4.4147  -18.9854   33.2464 C   0  0  0  0  0  0  0  0  0  0  0  0
   -3.6011  -18.0572   34.1594 C   0  0  0  0  0  0  0  0  0  0  0  0
   -2.7307  -16.9774   33.4493 C   0  0  0  0  0  0  0  0  0  0  0  0
   -1.8419  -16.1634   34.4427 C   0  0  0  0  0  0  0  0  0  0  0  0
   -1.9953  -16.3320   35.6191 O   0  0  0  0  0  0  0  0  0  0  0  0
   -0.9253  -15.2970   33.7225 N   0  0  0  0  0  0  0  0  0  0  0  0
    0.0278  -14.2913   34.2073 C   0  0  0  0  0  0  0  0  0  0  0  0
    1.0755  -13.7953   33.1807 C   0  0  0  0  0  0  0  0  0  0  0  0
    1.1552  -12.2875   32.9414 C   0  0  0  0  0  0  0  0  0  0  0  0
    2.4276  -11.9443   32.1414 C   0  0  0  0  0  0  0  0  0  0  0  0
    3.0873  -13.0714   31.3688 N   0  0  0  0  0  0  0  0  0  0  0  0
    3.8247  -12.5448   30.2623 C   0  0  0  0  0  0  0  0  0  0  0  0
    4.9751  -12.1973   30.1826 O   0  0  0  0  0  0  0  0  0  0  0  0
    2.9107  -12.4877   29.0275 C   0  0  0  0  0  0  0  0  0  0  0  0
    3.4865  -13.2419   27.8766 C   0  0  0  0  0  0  0  0  0  0  0  0
    2.8914  -13.9671   26.8663 C   0  0  0  0  0  0  0  0  0  0  0  0
    3.9592  -14.4216   26.0713 C   0  0  0  0  0  0  0  0  0  0  0  0
    5.1440  -14.0210   26.5348 N   0  0  0  0  0  0  0  0  0  0  0  0
    4.8349  -13.3018   27.6261 N   0  0  0  0  0  0  0  0  0  0  0  0
    3.5344  -13.4625   32.7442 C   0  0  0  0  0  0  0  0  0  0  0  0
    2.4878  -14.1784   33.6018 C   0  0  0  0  0  0  0  0  0  0  0  0
   -5.6350  -17.5156   32.2592 H   0  0  0  0  0  0  0  0  0  0  0  0
   -6.4001  -18.2436   33.6932 H   0  0  0  0  0  0  0  0  0  0  0  0
   -6.2715  -19.1595   32.1828 H   0  0  0  0  0  0  0  0  0  0  0  0
   -4.6001  -19.9225   33.7825 H   0  0  0  0  0  0  0  0  0  0  0  0
   -3.8318  -19.2115   32.3499 H   0  0  0  0  0  0  0  0  0  0  0  0
   -4.2647  -17.5728   34.8863 H   0  0  0  0  0  0  0  0  0  0  0  0
   -2.9191  -18.6882   34.7451 H   0  0  0  0  0  0  0  0  0  0  0  0
   -2.0717  -17.4674   32.7235 H   0  0  0  0  0  0  0  0  0  0  0  0
   -3.3784  -16.2718   32.9176 H   0  0  0  0  0  0  0  0  0  0  0  0
   -1.0159  -15.4736   32.7262 H   0  0  0  0  0  0  0  0  0  0  0  0
   -0.5663  -13.4593   34.5938 H   0  0  0  0  0  0  0  0  0  0  0  0
    0.5112  -14.7396   35.0831 H   0  0  0  0  0  0  0  0  0  0  0  0
    0.8903  -14.2994   32.2262 H   0  0  0  0  0  0  0  0  0  0  0  0
    1.1636  -11.7359   33.8892 H   0  0  0  0  0  0  0  0  0  0  0  0
    0.2979  -11.9296   32.3757 H   0  0  0  0  0  0  0  0  0  0  0  0
    3.1166  -11.2553   32.6588 H   0  0  0  0  0  0  0  0  0  0  0  0
    2.0414  -11.2899   31.3478 H   0  0  0  0  0  0  0  0  0  0  0  0
    2.7812  -11.4334   28.7571 H   0  0  0  0  0  0  0  0  0  0  0  0
    1.9183  -12.8876   29.2660 H   0  0  0  0  0  0  0  0  0  0  0  0
    1.8358  -14.1423   26.7156 H   0  0  0  0  0  0  0  0  0  0  0  0
    3.9232  -15.0265   25.1743 H   0  0  0  0  0  0  0  0  0  0  0  0
    5.5870  -12.8874   28.1740 H   0  0  0  0  0  0  0  0  0  0  0  0
    4.2975  -14.2271   32.5265 H   0  0  0  0  0  0  0  0  0  0  0  0
    4.1598  -12.7316   33.2860 H   0  0  0  0  0  0  0  0  0  0  0  0
    2.6079  -15.2653   33.5080 H   0  0  0  0  0  0  0  0  0  0  0  0
    2.6739  -13.9368   34.6558 H   0  0  0  0  0  0  0  0  0  0  0  0
  1  2  1  0
  2  3  1  0
  3  4  1  0
  4  5  1  0
  5  6  2  0
  5  7  1  0
  7  8  1  0
  8  9  1  0
  9 10  1  0
 10 11  1  0
 11 12  1  0
 12 13  1  0
 13 14  2  0
 13 15  1  0
 15 16  1  0
 16 17  2  0
 17 18  1  0
 18 19  2  0
 19 20  1  0
 12 21  1  0
 21 22  1  0
 22  9  1  0
 20 16  1  0
  1 23  1  0
  1 24  1  0
  1 25  1  0
  2 26  1  0
  2 27  1  0
  3 28  1  0
  3 29  1  0
  4 30  1  0
  4 31  1  0
  7 32  1  0
  8 33  1  0
  8 34  1  0
  9 35  1  0
 10 36  1  0
 10 37  1  0
 11 38  1  0
 11 39  1  0
 15 40  1  0
 15 41  1  0
 17 42  1  0
 18 43  1  0
 20 44  1  0
 21 45  1  0
 21 46  1  0
 22 47  1  0
 22 48  1  0
M  END
>  <Energy>  (767) 
83.415171888998913

>  <compound_id>  (767) 
15332

>  <target_id>  (767) 
1

>  <reference_id>  (767) 
44

>  <inspiration_ids>  (767) 
[44, 96]

>  <energy_score>  (767) 
41.23690499731697

>  <distance_score>  (767) 
13.820527136727309

>  <path>  (767) 
/opt/xchem-fragalysis-2/maxwin/BulkDock/SCRATCH/511013/C15332-P44/C15332-P44.minimised.mol

>  <scratch_subdir>  (767) 
/opt/xchem-fragalysis-2/maxwin/BulkDock/SCRATCH/511013/C15332-P44

>  <fragmenstein_runtime>  (767) 
47.388582706451416

>  <fragmenstein_outcome>  (767) 
too moved

>  <fragmenstein_mode>  (767) 
expansion

>  <fragmenstein_error>  (767) 


$$$$
C15332-P96
     RDKit          3D

 48 49  0  0  0  0  0  0  0  0999 V2000
  -10.0580  -19.6484   31.0353 C   0  0  0  0  0  0  0  0  0  0  0  0
   -9.4795  -19.1127   29.4772 C   0  0  0  0  0  0  0  0  0  0  0  0
   -8.0613  -17.7128   28.4343 C   0  0  0  0  0  0  0  0  0  0  0  0
   -6.6437  -16.3693   29.4180 C   0  0  0  0  0  0  0  0  0  0  0  0
   -5.7287  -14.4423   28.9552 C   0  0  0  0  0  0  0  0  0  0  0  0
   -4.7020  -14.6173   28.4315 O   0  0  0  0  0  0  0  0  0  0  0  0
   -6.1669  -12.5811   29.0699 N   0  0  0  0  0  0  0  0  0  0  0  0
   -5.1768  -10.9257   28.5667 C   0  0  0  0  0  0  0  0  0  0  0  0
   -3.8814   -9.3388   28.6929 C   0  0  0  0  0  0  0  0  0  0  0  0
   -2.3860   -8.2430   28.2907 C   0  0  0  0  0  0  0  0  0  0  0  0
   -2.1306   -6.3749   28.5839 C   0  0  0  0  0  0  0  0  0  0  0  0
   -2.5773   -5.6163   29.8258 N   0  0  0  0  0  0  0  0  0  0  0  0
   -2.2921   -4.1924   29.6761 C   0  0  0  0  0  0  0  0  0  0  0  0
   -2.9697   -3.3021   29.2324 O   0  0  0  0  0  0  0  0  0  0  0  0
   -0.9832   -3.8083   30.2696 C   0  0  0  0  0  0  0  0  0  0  0  0
   -0.9372   -2.5509   31.0790 C   0  0  0  0  0  0  0  0  0  0  0  0
   -1.5891   -1.3404   31.0413 C   0  0  0  0  0  0  0  0  0  0  0  0
   -1.0162   -0.5888   32.0816 C   0  0  0  0  0  0  0  0  0  0  0  0
   -0.0673   -1.2610   32.7404 N   0  0  0  0  0  0  0  0  0  0  0  0
   -0.0189   -2.4379   32.0892 N   0  0  0  0  0  0  0  0  0  0  0  0
   -3.7866   -6.3577   29.5887 C   0  0  0  0  0  0  0  0  0  0  0  0
   -4.0480   -7.8425   29.7612 C   0  0  0  0  0  0  0  0  0  0  0  0
   -9.7246  -18.9874   31.8307 H   0  0  0  0  0  0  0  0  0  0  0  0
  -11.1667  -19.6081   31.0386 H   0  0  0  0  0  0  0  0  0  0  0  0
   -9.9217  -20.6960   31.3055 H   0  0  0  0  0  0  0  0  0  0  0  0
  -10.3723  -18.4555   29.9782 H   0  0  0  0  0  0  0  0  0  0  0  0
   -9.7742  -19.9889   28.8274 H   0  0  0  0  0  0  0  0  0  0  0  0
   -8.5757  -17.0445   27.7402 H   0  0  0  0  0  0  0  0  0  0  0  0
   -7.7474  -18.3520   27.5380 H   0  0  0  0  0  0  0  0  0  0  0  0
   -6.7434  -16.1847   30.4964 H   0  0  0  0  0  0  0  0  0  0  0  0
   -5.8147  -16.1590   28.7048 H   0  0  0  0  0  0  0  0  0  0  0  0
   -7.0148  -12.4944   29.6060 H   0  0  0  0  0  0  0  0  0  0  0  0
   -5.7528  -10.5842   27.7193 H   0  0  0  0  0  0  0  0  0  0  0  0
   -5.7406  -10.3898   29.3347 H   0  0  0  0  0  0  0  0  0  0  0  0
   -3.7433   -9.5461   27.6220 H   0  0  0  0  0  0  0  0  0  0  0  0
   -1.6584   -8.7825   28.8182 H   0  0  0  0  0  0  0  0  0  0  0  0
   -2.1077   -8.3021   27.2313 H   0  0  0  0  0  0  0  0  0  0  0  0
   -1.0818   -6.0964   28.3887 H   0  0  0  0  0  0  0  0  0  0  0  0
   -2.3942   -5.7371   27.7002 H   0  0  0  0  0  0  0  0  0  0  0  0
   -0.3139   -3.6761   29.4154 H   0  0  0  0  0  0  0  0  0  0  0  0
   -0.7503   -4.6112   30.9707 H   0  0  0  0  0  0  0  0  0  0  0  0
   -2.3768   -1.0420   30.3640 H   0  0  0  0  0  0  0  0  0  0  0  0
   -1.2585    0.4196   32.3881 H   0  0  0  0  0  0  0  0  0  0  0  0
    0.6670   -3.1313   32.3720 H   0  0  0  0  0  0  0  0  0  0  0  0
   -4.3887   -5.8494   28.8748 H   0  0  0  0  0  0  0  0  0  0  0  0
   -4.2618   -6.0643   30.5218 H   0  0  0  0  0  0  0  0  0  0  0  0
   -5.0583   -7.8625   30.2082 H   0  0  0  0  0  0  0  0  0  0  0  0
   -3.2187   -7.8957   30.4768 H   0  0  0  0  0  0  0  0  0  0  0  0
  1  2  1  0
  2  3  1  0
  3  4  1  0
  4  5  1  0
  5  6  2  0
  5  7  1  0
  7  8  1  0
  8  9  1  0
  9 10  1  0
 10 11  1  0
 11 12  1  0
 12 13  1  0
 13 14  2  0
 13 15  1  0
 15 16  1  0
 16 17  2  0
 17 18  1  0
 18 19  2  0
 19 20  1  0
 12 21  1  0
 21 22  1  0
 22  9  1  0
 20 16  1  0
  1 23  1  0
  1 24  1  0
  1 25  1  0
  2 26  1  0
  2 27  1  0
  3 28  1  0
  3 29  1  0
  4 30  1  0
  4 31  1  0
  7 32  1  0
  8 33  1  0
  8 34  1  0
  9 35  1  0
 10 36  1  0
 10 37  1  0
 11 38  1  0
 11 39  1  0
 15 40  1  0
 15 41  1  0
 17 42  1  0
 18 43  1  0
 20 44  1  0
 21 45  1  0
 21 46  1  0
 22 47  1  0
 22 48  1  0
M  END
>  <Energy>  (768) 
1187.7004506183098

>  <compound_id>  (768) 
15332

>  <target_id>  (768) 
1

>  <reference_id>  (768) 
96

>  <inspiration_ids>  (768) 
[44, 96]

>  <energy_score>  (768) 
1145.522183726632

>  <distance_score>  (768) 
9.03083476670651

>  <path>  (768) 
/opt/xchem-fragalysis-2/maxwin/BulkDock/SCRATCH/511013/C15332-P96/C15332-P96.minimised.mol

>  <scratch_subdir>  (768) 
/opt/xchem-fragalysis-2/maxwin/BulkDock/SCRATCH/511013/C15332-P96

>  <fragmenstein_runtime>  (768) 
36.87391781806946

>  <fragmenstein_outcome>  (768) 
too moved

>  <fragmenstein_mode>  (768) 
expansion

>  <fragmenstein_error>  (768) 


$$$$
C15336-P44
     RDKit          3D

 48 50  0  0  0  0  0  0  0  0999 V2000
   -0.0362  -11.1350   24.8672 C   0  0  0  0  0  0  0  0  0  0  0  0
   -0.0082  -10.8071   26.3704 C   0  0  0  0  0  0  0  0  0  0  0  0
    0.5628  -12.1165   27.1126 C   0  0  0  0  0  0  0  0  0  0  0  0
   -0.5455  -13.2151   27.4326 C   0  0  0  0  0  0  0  0  0  0  0  0
   -1.5663  -12.7939   27.9109 O   0  0  0  0  0  0  0  0  0  0  0  0
   -0.1861  -14.5622   27.0052 N   0  0  0  0  0  0  0  0  0  0  0  0
    0.4592  -15.3233   28.1526 C   0  0  0  0  0  0  0  0  0  0  0  0
    1.3046  -16.5899   27.8369 C   0  0  0  0  0  0  0  0  0  0  0  0
    0.5548  -17.6340   27.2175 O   0  0  0  0  0  0  0  0  0  0  0  0
   -0.2534  -17.0253   26.2121 C   0  0  0  0  0  0  0  0  0  0  0  0
   -1.0733  -15.9135   26.9161 C   0  0  0  0  0  0  0  0  0  0  0  0
   -2.0102  -16.5710   27.9907 C   0  0  0  0  0  0  0  0  0  0  0  0
   -2.5312  -16.2364   29.2278 C   0  0  0  0  0  0  0  0  0  0  0  0
   -3.3906  -17.2899   29.6102 C   0  0  0  0  0  0  0  0  0  0  0  0
   -3.4191  -18.2611   28.7030 N   0  0  0  0  0  0  0  0  0  0  0  0
   -2.5965  -17.8107   27.7420 N   0  0  0  0  0  0  0  0  0  0  0  0
    0.6923   -9.3958   26.6463 C   0  0  0  0  0  0  0  0  0  0  0  0
    0.6007   -8.9251   28.1203 C   0  0  0  0  0  0  0  0  0  0  0  0
    0.1455   -7.4663   28.3209 C   0  0  0  0  0  0  0  0  0  0  0  0
    0.8591   -6.5374   27.4597 N   0  0  0  0  0  0  0  0  0  0  0  0
    0.7246   -6.8688   26.0471 C   0  0  0  0  0  0  0  0  0  0  0  0
    0.1699   -8.2625   25.7241 C   0  0  0  0  0  0  0  0  0  0  0  0
   -0.6549  -10.4227   24.3132 H   0  0  0  0  0  0  0  0  0  0  0  0
    0.9737  -11.1228   24.4443 H   0  0  0  0  0  0  0  0  0  0  0  0
   -0.4664  -12.1267   24.6893 H   0  0  0  0  0  0  0  0  0  0  0  0
   -1.0507  -10.7217   26.6682 H   0  0  0  0  0  0  0  0  0  0  0  0
    1.3700  -12.5674   26.5252 H   0  0  0  0  0  0  0  0  0  0  0  0
    0.9790  -11.8239   28.0833 H   0  0  0  0  0  0  0  0  0  0  0  0
   -0.1816  -15.4553   29.0232 H   0  0  0  0  0  0  0  0  0  0  0  0
    1.2021  -14.6080   28.5407 H   0  0  0  0  0  0  0  0  0  0  0  0
    1.7388  -16.9871   28.7600 H   0  0  0  0  0  0  0  0  0  0  0  0
    2.1344  -16.3233   27.1708 H   0  0  0  0  0  0  0  0  0  0  0  0
    0.3862  -16.6155   25.4201 H   0  0  0  0  0  0  0  0  0  0  0  0
   -0.8767  -17.7978   25.7536 H   0  0  0  0  0  0  0  0  0  0  0  0
   -1.7870  -15.5741   26.1516 H   0  0  0  0  0  0  0  0  0  0  0  0
   -2.3703  -15.3180   29.7698 H   0  0  0  0  0  0  0  0  0  0  0  0
   -3.9993  -17.3720   30.5023 H   0  0  0  0  0  0  0  0  0  0  0  0
   -2.4786  -18.4039   26.9286 H   0  0  0  0  0  0  0  0  0  0  0  0
    1.7581   -9.5318   26.4142 H   0  0  0  0  0  0  0  0  0  0  0  0
    1.5941   -9.0453   28.5733 H   0  0  0  0  0  0  0  0  0  0  0  0
   -0.0630   -9.5816   28.6945 H   0  0  0  0  0  0  0  0  0  0  0  0
   -0.9318   -7.3639   28.1576 H   0  0  0  0  0  0  0  0  0  0  0  0
    0.3228   -7.1887   29.3663 H   0  0  0  0  0  0  0  0  0  0  0  0
    0.5299   -5.5885   27.6405 H   0  0  0  0  0  0  0  0  0  0  0  0
    1.7103   -6.7565   25.5819 H   0  0  0  0  0  0  0  0  0  0  0  0
    0.0651   -6.1407   25.5639 H   0  0  0  0  0  0  0  0  0  0  0  0
    0.4246   -8.4844   24.6812 H   0  0  0  0  0  0  0  0  0  0  0  0
   -0.9244   -8.2260   25.7692 H   0  0  0  0  0  0  0  0  0  0  0  0
  1  2  1  0
  2  3  1  0
  3  4  1  0
  4  5  2  0
  4  6  1  0
  6  7  1  0
  7  8  1  0
  8  9  1  0
  9 10  1  0
 10 11  1  0
 11 12  1  0
 12 13  2  0
 13 14  1  0
 14 15  2  0
 15 16  1  0
  2 17  1  0
 17 18  1  0
 18 19  1  0
 19 20  1  0
 20 21  1  0
 21 22  1  0
 11  6  1  0
 16 12  1  0
 22 17  1  0
  1 23  1  0
  1 24  1  0
  1 25  1  0
  2 26  1  0
  3 27  1  0
  3 28  1  0
  7 29  1  0
  7 30  1  0
  8 31  1  0
  8 32  1  0
 10 33  1  0
 10 34  1  0
 11 35  1  0
 13 36  1  0
 14 37  1  0
 16 38  1  0
 17 39  1  0
 18 40  1  0
 18 41  1  0
 19 42  1  0
 19 43  1  0
 20 44  1  0
 21 45  1  0
 21 46  1  0
 22 47  1  0
 22 48  1  0
M  END
>  <Energy>  (769) 
157.97259683316489

>  <compound_id>  (769) 
15336

>  <target_id>  (769) 
1

>  <reference_id>  (769) 
44

>  <inspiration_ids>  (769) 
[44, 96]

>  <energy_score>  (769) 
44.32723927772554

>  <distance_score>  (769) 
11.708567277185562

>  <path>  (769) 
/opt/xchem-fragalysis-2/maxwin/BulkDock/SCRATCH/511013/C15336-P44/C15336-P44.minimised.mol

>  <scratch_subdir>  (769) 
/opt/xchem-fragalysis-2/maxwin/BulkDock/SCRATCH/511013/C15336-P44

>  <fragmenstein_runtime>  (769) 
28.753586053848267

>  <fragmenstein_outcome>  (769) 
too moved

>  <fragmenstein_mode>  (769) 
expansion

>  <fragmenstein_error>  (769) 


$$$$
C15336-P96
     RDKit          3D

 48 50  0  0  0  0  0  0  0  0999 V2000
    1.5907  -10.1318   31.4227 C   0  0  0  0  0  0  0  0  0  0  0  0
    0.3709  -10.3583   30.5183 C   0  0  0  0  0  0  0  0  0  0  0  0
    0.4675  -11.8673   29.9392 C   0  0  0  0  0  0  0  0  0  0  0  0
   -0.1302  -13.0492   30.8794 C   0  0  0  0  0  0  0  0  0  0  0  0
   -1.1784  -12.8174   31.4259 O   0  0  0  0  0  0  0  0  0  0  0  0
    0.7343  -14.2251   30.9511 N   0  0  0  0  0  0  0  0  0  0  0  0
    1.7599  -14.0505   32.0642 C   0  0  0  0  0  0  0  0  0  0  0  0
    1.2168  -13.8454   33.5075 C   0  0  0  0  0  0  0  0  0  0  0  0
    0.6243  -15.0298   34.0234 O   0  0  0  0  0  0  0  0  0  0  0  0
   -0.2567  -15.5390   33.0335 C   0  0  0  0  0  0  0  0  0  0  0  0
    0.5154  -15.6755   31.7008 C   0  0  0  0  0  0  0  0  0  0  0  0
   -0.1191  -16.7985   30.8359 C   0  0  0  0  0  0  0  0  0  0  0  0
    0.3647  -17.4771   29.7271 C   0  0  0  0  0  0  0  0  0  0  0  0
   -0.4844  -18.5868   29.5402 C   0  0  0  0  0  0  0  0  0  0  0  0
   -1.4311  -18.6489   30.4727 N   0  0  0  0  0  0  0  0  0  0  0  0
   -1.2227  -17.5445   31.2127 N   0  0  0  0  0  0  0  0  0  0  0  0
    0.1261   -9.1378   29.5189 C   0  0  0  0  0  0  0  0  0  0  0  0
    1.2594   -8.8134   28.5330 C   0  0  0  0  0  0  0  0  0  0  0  0
    0.9172   -7.5996   27.6458 C   0  0  0  0  0  0  0  0  0  0  0  0
    0.6029   -6.4022   28.4250 N   0  0  0  0  0  0  0  0  0  0  0  0
   -0.5060   -6.6407   29.3389 C   0  0  0  0  0  0  0  0  0  0  0  0
   -0.2035   -7.8121   30.2792 C   0  0  0  0  0  0  0  0  0  0  0  0
    2.5226  -10.1572   30.8498 H   0  0  0  0  0  0  0  0  0  0  0  0
    1.5382   -9.1778   31.9527 H   0  0  0  0  0  0  0  0  0  0  0  0
    1.6482  -10.9080   32.1916 H   0  0  0  0  0  0  0  0  0  0  0  0
   -0.4997  -10.3600   31.1807 H   0  0  0  0  0  0  0  0  0  0  0  0
   -0.1228  -11.9133   29.0160 H   0  0  0  0  0  0  0  0  0  0  0  0
    1.5042  -12.1032   29.6762 H   0  0  0  0  0  0  0  0  0  0  0  0
    2.6126  -14.7429   31.9948 H   0  0  0  0  0  0  0  0  0  0  0  0
    2.2415  -13.0943   31.8163 H   0  0  0  0  0  0  0  0  0  0  0  0
    0.4867  -13.0302   33.5531 H   0  0  0  0  0  0  0  0  0  0  0  0
    2.0451  -13.5748   34.1705 H   0  0  0  0  0  0  0  0  0  0  0  0
   -0.6101  -16.4944   33.4282 H   0  0  0  0  0  0  0  0  0  0  0  0
   -1.1041  -14.8639   32.9165 H   0  0  0  0  0  0  0  0  0  0  0  0
    1.4874  -16.1673   31.8846 H   0  0  0  0  0  0  0  0  0  0  0  0
    1.2476  -17.2237   29.1565 H   0  0  0  0  0  0  0  0  0  0  0  0
   -0.4291  -19.3593   28.7842 H   0  0  0  0  0  0  0  0  0  0  0  0
   -1.8525  -17.3934   31.9932 H   0  0  0  0  0  0  0  0  0  0  0  0
   -0.7517   -9.4051   28.9161 H   0  0  0  0  0  0  0  0  0  0  0  0
    2.1874   -8.6035   29.0784 H   0  0  0  0  0  0  0  0  0  0  0  0
    1.4536   -9.6838   27.8958 H   0  0  0  0  0  0  0  0  0  0  0  0
    0.0772   -7.8475   26.9851 H   0  0  0  0  0  0  0  0  0  0  0  0
    1.7759   -7.3831   27.0008 H   0  0  0  0  0  0  0  0  0  0  0  0
    0.3869   -5.6288   27.7973 H   0  0  0  0  0  0  0  0  0  0  0  0
   -0.6799   -5.7376   29.9337 H   0  0  0  0  0  0  0  0  0  0  0  0
   -1.4257   -6.8387   28.7772 H   0  0  0  0  0  0  0  0  0  0  0  0
   -1.0554   -7.9636   30.9501 H   0  0  0  0  0  0  0  0  0  0  0  0
    0.6435   -7.5255   30.9138 H   0  0  0  0  0  0  0  0  0  0  0  0
  1  2  1  0
  2  3  1  0
  3  4  1  0
  4  5  2  0
  4  6  1  0
  6  7  1  0
  7  8  1  0
  8  9  1  0
  9 10  1  0
 10 11  1  0
 11 12  1  0
 12 13  2  0
 13 14  1  0
 14 15  2  0
 15 16  1  0
  2 17  1  0
 17 18  1  0
 18 19  1  0
 19 20  1  0
 20 21  1  0
 21 22  1  0
 11  6  1  0
 16 12  1  0
 22 17  1  0
  1 23  1  0
  1 24  1  0
  1 25  1  0
  2 26  1  0
  3 27  1  0
  3 28  1  0
  7 29  1  0
  7 30  1  0
  8 31  1  0
  8 32  1  0
 10 33  1  0
 10 34  1  0
 11 35  1  0
 13 36  1  0
 14 37  1  0
 16 38  1  0
 17 39  1  0
 18 40  1  0
 18 41  1  0
 19 42  1  0
 19 43  1  0
 20 44  1  0
 21 45  1  0
 21 46  1  0
 22 47  1  0
 22 48  1  0
M  END
>  <Energy>  (770) 
143.59723824545267

>  <compound_id>  (770) 
15336

>  <target_id>  (770) 
1

>  <reference_id>  (770) 
96

>  <inspiration_ids>  (770) 
[44, 96]

>  <energy_score>  (770) 
29.951880690012672

>  <distance_score>  (770) 
12.180143654584006

>  <path>  (770) 
/opt/xchem-fragalysis-2/maxwin/BulkDock/SCRATCH/511013/C15336-P96/C15336-P96.minimised.mol

>  <scratch_subdir>  (770) 
/opt/xchem-fragalysis-2/maxwin/BulkDock/SCRATCH/511013/C15336-P96

>  <fragmenstein_runtime>  (770) 
25.028825283050537

>  <fragmenstein_outcome>  (770) 
too moved

>  <fragmenstein_mode>  (770) 
expansion

>  <fragmenstein_error>  (770) 


$$$$
C15339-P44
     RDKit          3D

 50 51  0  0  0  0  0  0  0  0999 V2000
   -7.7402  -15.7364   29.0455 C   0  0  0  0  0  0  0  0  0  0  0  0
   -6.4875  -15.8289   29.8906 C   0  0  0  0  0  0  0  0  0  0  0  0
   -5.9175  -14.4688   30.3944 C   0  0  0  0  0  0  0  0  0  0  0  0
   -5.5745  -13.3957   29.4090 N   0  0  0  0  0  0  0  0  0  0  0  0
   -4.7196  -13.8392   28.3062 C   0  0  0  0  0  0  0  0  0  0  0  0
   -5.2265  -11.6103   29.6825 C   0  0  0  0  0  0  0  0  0  0  0  0
   -5.5692  -10.4333   31.4489 C   0  0  0  0  0  0  0  0  0  0  0  0
   -5.7144  -10.9626   32.6178 O   0  0  0  0  0  0  0  0  0  0  0  0
   -5.7480   -8.5212   30.8565 N   0  0  0  0  0  0  0  0  0  0  0  0
   -6.3587   -6.7016   31.8226 C   0  0  0  0  0  0  0  0  0  0  0  0
   -6.0575   -5.0127   30.6621 C   0  0  0  0  0  0  0  0  0  0  0  0
   -5.8330   -3.4646   30.9645 C   0  0  0  0  0  0  0  0  0  0  0  0
   -5.9864   -2.8666   32.2935 C   0  0  0  0  0  0  0  0  0  0  0  0
   -4.9352   -3.3355   33.1348 N   0  0  0  0  0  0  0  0  0  0  0  0
   -3.6311   -2.9165   32.5901 C   0  0  0  0  0  0  0  0  0  0  0  0
   -2.8847   -3.4773   31.8233 O   0  0  0  0  0  0  0  0  0  0  0  0
   -3.2666   -1.5537   33.2007 C   0  0  0  0  0  0  0  0  0  0  0  0
   -1.9675   -1.6085   33.9267 C   0  0  0  0  0  0  0  0  0  0  0  0
   -0.8910   -0.7500   33.9706 C   0  0  0  0  0  0  0  0  0  0  0  0
    0.0143   -1.3556   34.8617 C   0  0  0  0  0  0  0  0  0  0  0  0
   -0.4472   -2.5066   35.3539 N   0  0  0  0  0  0  0  0  0  0  0  0
   -1.6410   -2.6539   34.7531 N   0  0  0  0  0  0  0  0  0  0  0  0
   -5.8380   -4.8896   32.9720 C   0  0  0  0  0  0  0  0  0  0  0  0
   -7.5564  -15.1690   28.1280 H   0  0  0  0  0  0  0  0  0  0  0  0
   -8.5462  -15.2398   29.5886 H   0  0  0  0  0  0  0  0  0  0  0  0
   -8.0790  -16.7345   28.7524 H   0  0  0  0  0  0  0  0  0  0  0  0
   -6.7033  -16.4517   30.7678 H   0  0  0  0  0  0  0  0  0  0  0  0
   -5.7138  -16.3615   29.3249 H   0  0  0  0  0  0  0  0  0  0  0  0
   -6.6073  -14.0730   31.1429 H   0  0  0  0  0  0  0  0  0  0  0  0
   -5.0251  -14.8033   30.9249 H   0  0  0  0  0  0  0  0  0  0  0  0
   -3.6980  -14.0282   28.6491 H   0  0  0  0  0  0  0  0  0  0  0  0
   -4.6847  -13.0832   27.5157 H   0  0  0  0  0  0  0  0  0  0  0  0
   -5.1015  -14.7474   27.8324 H   0  0  0  0  0  0  0  0  0  0  0  0
   -4.1326  -11.7604   29.4767 H   0  0  0  0  0  0  0  0  0  0  0  0
   -5.8777  -11.4970   28.8921 H   0  0  0  0  0  0  0  0  0  0  0  0
   -5.4852   -8.4054   29.8664 H   0  0  0  0  0  0  0  0  0  0  0  0
   -7.3183   -6.9615   32.2792 H   0  0  0  0  0  0  0  0  0  0  0  0
   -5.9000   -5.2343   29.5964 H   0  0  0  0  0  0  0  0  0  0  0  0
   -6.9748   -4.4253   30.6680 H   0  0  0  0  0  0  0  0  0  0  0  0
   -4.8988   -3.1058   30.6119 H   0  0  0  0  0  0  0  0  0  0  0  0
   -6.6538   -2.9073   30.4880 H   0  0  0  0  0  0  0  0  0  0  0  0
   -5.7700   -1.7934   32.2042 H   0  0  0  0  0  0  0  0  0  0  0  0
   -6.9984   -2.7335   32.7080 H   0  0  0  0  0  0  0  0  0  0  0  0
   -3.2205   -0.8299   32.3790 H   0  0  0  0  0  0  0  0  0  0  0  0
   -4.0461   -1.2136   33.8920 H   0  0  0  0  0  0  0  0  0  0  0  0
   -0.7681    0.1806   33.4363 H   0  0  0  0  0  0  0  0  0  0  0  0
    0.9891   -1.0045   35.1747 H   0  0  0  0  0  0  0  0  0  0  0  0
   -2.1911   -3.4942   34.9347 H   0  0  0  0  0  0  0  0  0  0  0  0
   -6.6068   -4.2695   33.3407 H   0  0  0  0  0  0  0  0  0  0  0  0
   -6.1272   -5.2277   34.0218 H   0  0  0  0  0  0  0  0  0  0  0  0
  1  2  1  0
  2  3  1  0
  3  4  1  0
  4  5  1  0
  4  6  1  0
  6  7  1  0
  7  8  2  0
  7  9  1  0
  9 10  1  0
 10 11  1  0
 11 12  1  0
 12 13  1  0
 13 14  1  0
 14 15  1  0
 15 16  2  0
 15 17  1  0
 17 18  1  0
 18 19  2  0
 19 20  1  0
 20 21  2  0
 21 22  1  0
 14 23  1  0
 23 10  1  0
 22 18  1  0
  1 24  1  0
  1 25  1  0
  1 26  1  0
  2 27  1  0
  2 28  1  0
  3 29  1  0
  3 30  1  0
  5 31  1  0
  5 32  1  0
  5 33  1  0
  6 34  1  0
  6 35  1  0
  9 36  1  0
 10 37  1  0
 11 38  1  0
 11 39  1  0
 12 40  1  0
 12 41  1  0
 13 42  1  0
 13 43  1  0
 17 44  1  0
 17 45  1  0
 19 46  1  0
 20 47  1  0
 22 48  1  0
 23 49  1  0
 23 50  1  0
M  END
>  <Energy>  (771) 
1002.919768860058

>  <compound_id>  (771) 
15339

>  <target_id>  (771) 
1

>  <reference_id>  (771) 
44

>  <inspiration_ids>  (771) 
[44, 96]

>  <energy_score>  (771) 
892.3545319736369

>  <distance_score>  (771) 
9.923206251655339

>  <path>  (771) 
/opt/xchem-fragalysis-2/maxwin/BulkDock/SCRATCH/511013/C15339-P44/C15339-P44.minimised.mol

>  <scratch_subdir>  (771) 
/opt/xchem-fragalysis-2/maxwin/BulkDock/SCRATCH/511013/C15339-P44

>  <fragmenstein_runtime>  (771) 
51.35939598083496

>  <fragmenstein_outcome>  (771) 
too moved

>  <fragmenstein_mode>  (771) 
expansion

>  <fragmenstein_error>  (771) 


$$$$
C15339-P96
     RDKit          3D

 50 51  0  0  0  0  0  0  0  0999 V2000
  -10.1125  -14.6725   34.1962 C   0  0  0  0  0  0  0  0  0  0  0  0
  -10.0232  -15.4236   32.8750 C   0  0  0  0  0  0  0  0  0  0  0  0
   -8.8197  -14.9659   32.0252 C   0  0  0  0  0  0  0  0  0  0  0  0
   -9.0680  -14.8808   30.5449 N   0  0  0  0  0  0  0  0  0  0  0  0
  -10.3020  -14.1583   30.2257 C   0  0  0  0  0  0  0  0  0  0  0  0
   -7.9090  -14.2966   29.7285 C   0  0  0  0  0  0  0  0  0  0  0  0
   -7.5798  -12.8493   30.1344 C   0  0  0  0  0  0  0  0  0  0  0  0
   -8.0477  -12.5242   31.2126 O   0  0  0  0  0  0  0  0  0  0  0  0
   -6.6414  -12.0870   29.1799 N   0  0  0  0  0  0  0  0  0  0  0  0
   -5.7795  -10.4577   29.3639 C   0  0  0  0  0  0  0  0  0  0  0  0
   -5.9228   -9.8787   28.0615 C   0  0  0  0  0  0  0  0  0  0  0  0
   -7.0455   -8.2015   28.2873 C   0  0  0  0  0  0  0  0  0  0  0  0
   -5.9418   -6.9061   29.4154 C   0  0  0  0  0  0  0  0  0  0  0  0
   -4.8620   -7.5718   30.1237 N   0  0  0  0  0  0  0  0  0  0  0  0
   -4.3454   -6.6906   31.2108 C   0  0  0  0  0  0  0  0  0  0  0  0
   -4.6746   -6.6000   32.3709 O   0  0  0  0  0  0  0  0  0  0  0  0
   -3.1699   -5.9490   30.5498 C   0  0  0  0  0  0  0  0  0  0  0  0
   -2.5807   -4.8003   31.2574 C   0  0  0  0  0  0  0  0  0  0  0  0
   -1.6968   -3.8523   30.7859 C   0  0  0  0  0  0  0  0  0  0  0  0
   -1.4713   -3.0014   31.8716 C   0  0  0  0  0  0  0  0  0  0  0  0
   -2.1595   -3.3795   32.9460 N   0  0  0  0  0  0  0  0  0  0  0  0
   -2.8339   -4.4646   32.5538 N   0  0  0  0  0  0  0  0  0  0  0  0
   -6.0118   -8.8510   30.1588 C   0  0  0  0  0  0  0  0  0  0  0  0
  -10.4127  -13.6336   34.0173 H   0  0  0  0  0  0  0  0  0  0  0  0
   -9.1547  -14.6401   34.7245 H   0  0  0  0  0  0  0  0  0  0  0  0
  -10.8674  -15.1239   34.8476 H   0  0  0  0  0  0  0  0  0  0  0  0
   -9.9558  -16.4976   33.0428 H   0  0  0  0  0  0  0  0  0  0  0  0
  -10.9816  -15.2343   32.3896 H   0  0  0  0  0  0  0  0  0  0  0  0
   -7.9843  -15.6477   32.2064 H   0  0  0  0  0  0  0  0  0  0  0  0
   -8.4926  -14.0294   32.4674 H   0  0  0  0  0  0  0  0  0  0  0  0
  -10.3376  -13.8827   29.1670 H   0  0  0  0  0  0  0  0  0  0  0  0
  -10.4239  -13.2748   30.8537 H   0  0  0  0  0  0  0  0  0  0  0  0
  -11.1857  -14.7803   30.3734 H   0  0  0  0  0  0  0  0  0  0  0  0
   -7.0180  -14.9102   29.8985 H   0  0  0  0  0  0  0  0  0  0  0  0
   -8.1518  -14.3376   28.6616 H   0  0  0  0  0  0  0  0  0  0  0  0
   -6.5209  -12.6213   28.3361 H   0  0  0  0  0  0  0  0  0  0  0  0
   -4.8082  -10.7251   29.0811 H   0  0  0  0  0  0  0  0  0  0  0  0
   -6.3031  -10.6122   27.3264 H   0  0  0  0  0  0  0  0  0  0  0  0
   -4.8441   -9.9079   27.7111 H   0  0  0  0  0  0  0  0  0  0  0  0
   -8.0398   -8.4745   28.5438 H   0  0  0  0  0  0  0  0  0  0  0  0
   -7.2472   -7.6964   27.3218 H   0  0  0  0  0  0  0  0  0  0  0  0
   -5.1773   -6.4470   28.7872 H   0  0  0  0  0  0  0  0  0  0  0  0
   -6.1446   -5.9279   29.8526 H   0  0  0  0  0  0  0  0  0  0  0  0
   -2.3958   -6.7034   30.4342 H   0  0  0  0  0  0  0  0  0  0  0  0
   -3.4381   -5.6125   29.5459 H   0  0  0  0  0  0  0  0  0  0  0  0
   -1.2568   -3.7928   29.7997 H   0  0  0  0  0  0  0  0  0  0  0  0
   -0.8350   -2.1285   31.9277 H   0  0  0  0  0  0  0  0  0  0  0  0
   -3.4637   -4.9180   33.2130 H   0  0  0  0  0  0  0  0  0  0  0  0
   -6.1889   -8.4024   31.1264 H   0  0  0  0  0  0  0  0  0  0  0  0
   -6.8585   -9.3690   30.5949 H   0  0  0  0  0  0  0  0  0  0  0  0
  1  2  1  0
  2  3  1  0
  3  4  1  0
  4  5  1  0
  4  6  1  0
  6  7  1  0
  7  8  2  0
  7  9  1  0
  9 10  1  0
 10 11  1  0
 11 12  1  0
 12 13  1  0
 13 14  1  0
 14 15  1  0
 15 16  2  0
 15 17  1  0
 17 18  1  0
 18 19  2  0
 19 20  1  0
 20 21  2  0
 21 22  1  0
 14 23  1  0
 23 10  1  0
 22 18  1  0
  1 24  1  0
  1 25  1  0
  1 26  1  0
  2 27  1  0
  2 28  1  0
  3 29  1  0
  3 30  1  0
  5 31  1  0
  5 32  1  0
  5 33  1  0
  6 34  1  0
  6 35  1  0
  9 36  1  0
 10 37  1  0
 11 38  1  0
 11 39  1  0
 12 40  1  0
 12 41  1  0
 13 42  1  0
 13 43  1  0
 17 44  1  0
 17 45  1  0
 19 46  1  0
 20 47  1  0
 22 48  1  0
 23 49  1  0
 23 50  1  0
M  END
>  <Energy>  (772) 
519.58318640755488

>  <compound_id>  (772) 
15339

>  <target_id>  (772) 
1

>  <reference_id>  (772) 
96

>  <inspiration_ids>  (772) 
[44, 96]

>  <energy_score>  (772) 
409.0179495211287

>  <distance_score>  (772) 
10.588362585441475

>  <path>  (772) 
/opt/xchem-fragalysis-2/maxwin/BulkDock/SCRATCH/511013/C15339-P96/C15339-P96.minimised.mol

>  <scratch_subdir>  (772) 
/opt/xchem-fragalysis-2/maxwin/BulkDock/SCRATCH/511013/C15339-P96

>  <fragmenstein_runtime>  (772) 
41.25615477561951

>  <fragmenstein_outcome>  (772) 
too moved

>  <fragmenstein_mode>  (772) 
expansion

>  <fragmenstein_error>  (772) 


$$$$
C15341-P44
     RDKit          3D

 42 44  0  0  0  0  0  0  0  0999 V2000
   -6.4847   -6.7817   26.7830 O   0  0  0  0  0  0  0  0  0  0  0  0
   -6.4848   -7.3151   27.8922 C   0  0  0  0  0  0  0  0  0  0  0  0
   -7.0677   -8.7220   28.1269 C   0  0  0  0  0  0  0  0  0  0  0  0
   -6.5141   -9.8538   29.4219 C   0  0  0  0  0  0  0  0  0  0  0  0
   -5.9269  -11.8564   28.7768 C   0  0  0  0  0  0  0  0  0  0  0  0
   -7.0241  -13.6605   28.5215 C   0  0  0  0  0  0  0  0  0  0  0  0
   -8.1988  -13.6612   28.2964 O   0  0  0  0  0  0  0  0  0  0  0  0
   -6.1690  -15.0904   28.7838 N   0  0  0  0  0  0  0  0  0  0  0  0
   -6.1276  -15.3965   30.4225 C   0  0  0  0  0  0  0  0  0  0  0  0
   -5.7241  -16.2139   29.4886 C   0  0  0  0  0  0  0  0  0  0  0  0
   -7.5230  -16.5107   28.2781 C   0  0  0  0  0  0  0  0  0  0  0  0
   -8.5162  -17.9601   28.3846 C   0  0  0  0  0  0  0  0  0  0  0  0
   -8.8106  -19.8901   28.3249 C   0  0  0  0  0  0  0  0  0  0  0  0
   -7.9572  -21.3119   27.7685 C   0  0  0  0  0  0  0  0  0  0  0  0
   -8.7456  -22.6394   28.0681 C   0  0  0  0  0  0  0  0  0  0  0  0
  -10.0452  -22.4090   28.3755 N   0  0  0  0  0  0  0  0  0  0  0  0
  -10.2339  -21.0326   28.2010 N   0  0  0  0  0  0  0  0  0  0  0  0
   -6.7730  -17.1951   28.6055 C   0  0  0  0  0  0  0  0  0  0  0  0
   -5.3707   -8.3253   30.4018 C   0  0  0  0  0  0  0  0  0  0  0  0
   -4.9874   -7.0805   29.6393 C   0  0  0  0  0  0  0  0  0  0  0  0
   -3.9044   -6.5572   29.8684 O   0  0  0  0  0  0  0  0  0  0  0  0
   -6.0417   -6.5762   28.9394 N   0  0  0  0  0  0  0  0  0  0  0  0
   -8.1623   -8.6448   28.1858 H   0  0  0  0  0  0  0  0  0  0  0  0
   -6.9374   -9.1485   27.1584 H   0  0  0  0  0  0  0  0  0  0  0  0
   -7.3667  -10.0479   30.0206 H   0  0  0  0  0  0  0  0  0  0  0  0
   -5.4820  -11.8439   27.7163 H   0  0  0  0  0  0  0  0  0  0  0  0
   -5.0344  -12.0924   29.3550 H   0  0  0  0  0  0  0  0  0  0  0  0
   -5.1578  -15.1525   30.8954 H   0  0  0  0  0  0  0  0  0  0  0  0
   -6.5242  -14.3963   30.6677 H   0  0  0  0  0  0  0  0  0  0  0  0
   -5.7748  -16.9225   30.2220 H   0  0  0  0  0  0  0  0  0  0  0  0
   -4.6534  -16.3408   29.1388 H   0  0  0  0  0  0  0  0  0  0  0  0
   -7.9070  -16.2346   27.2268 H   0  0  0  0  0  0  0  0  0  0  0  0
   -8.2073  -15.6635   28.3762 H   0  0  0  0  0  0  0  0  0  0  0  0
   -9.0882  -17.7049   27.4854 H   0  0  0  0  0  0  0  0  0  0  0  0
   -6.9091  -21.4162   27.5605 H   0  0  0  0  0  0  0  0  0  0  0  0
   -8.4993  -23.6275   27.8060 H   0  0  0  0  0  0  0  0  0  0  0  0
  -11.1408  -20.6715   28.4548 H   0  0  0  0  0  0  0  0  0  0  0  0
   -5.9806  -17.9035   27.9865 H   0  0  0  0  0  0  0  0  0  0  0  0
   -6.4034  -17.9848   29.3894 H   0  0  0  0  0  0  0  0  0  0  0  0
   -5.7204   -7.7626   31.2975 H   0  0  0  0  0  0  0  0  0  0  0  0
   -4.4899   -8.5966   31.0589 H   0  0  0  0  0  0  0  0  0  0  0  0
   -5.8988   -5.6293   28.6170 H   0  0  0  0  0  0  0  0  0  0  0  0
  1  2  2  0
  2  3  1  0
  3  4  1  0
  4  5  1  0
  5  6  1  0
  6  7  2  0
  6  8  1  0
  8  9  1  0
  9 10  1  0
 10 11  1  0
 11 12  1  0
 12 13  1  0
 13 14  2  0
 14 15  1  0
 15 16  2  0
 16 17  1  0
 12 18  1  0
  4 19  1  0
 19 20  1  0
 20 21  2  0
 20 22  1  0
 22  2  1  0
 18  8  1  0
 17 13  1  0
  3 23  1  0
  3 24  1  0
  4 25  1  0
  5 26  1  0
  5 27  1  0
  9 28  1  0
  9 29  1  0
 10 30  1  0
 10 31  1  0
 11 32  1  0
 11 33  1  0
 12 34  1  0
 14 35  1  0
 15 36  1  0
 17 37  1  0
 18 38  1  0
 18 39  1  0
 19 40  1  0
 19 41  1  0
 22 42  1  0
M  END
>  <Energy>  (773) 
1565.2933564489831

>  <compound_id>  (773) 
15341

>  <target_id>  (773) 
1

>  <reference_id>  (773) 
44

>  <inspiration_ids>  (773) 
[44, 96]

>  <energy_score>  (773) 
1559.386486289503

>  <distance_score>  (773) 
9.212990523243233

>  <path>  (773) 
/opt/xchem-fragalysis-2/maxwin/BulkDock/SCRATCH/511013/C15341-P44/C15341-P44.minimised.mol

>  <scratch_subdir>  (773) 
/opt/xchem-fragalysis-2/maxwin/BulkDock/SCRATCH/511013/C15341-P44

>  <fragmenstein_runtime>  (773) 
18.94421887397766

>  <fragmenstein_outcome>  (773) 
too moved

>  <fragmenstein_mode>  (773) 
expansion

>  <fragmenstein_error>  (773) 


$$$$
C15341-P96
     RDKit          3D

 42 44  0  0  0  0  0  0  0  0999 V2000
   -8.1913   -5.8025   28.5044 O   0  0  0  0  0  0  0  0  0  0  0  0
   -7.6814   -6.6338   29.2463 C   0  0  0  0  0  0  0  0  0  0  0  0
   -7.9915   -8.1125   29.1388 C   0  0  0  0  0  0  0  0  0  0  0  0
   -7.8376   -9.0848   30.4305 C   0  0  0  0  0  0  0  0  0  0  0  0
   -7.2820  -11.0379   30.4738 C   0  0  0  0  0  0  0  0  0  0  0  0
   -8.1267  -12.4667   31.5454 C   0  0  0  0  0  0  0  0  0  0  0  0
   -9.2784  -12.7144   31.2699 O   0  0  0  0  0  0  0  0  0  0  0  0
   -7.2235  -13.1291   32.8802 N   0  0  0  0  0  0  0  0  0  0  0  0
   -6.5067  -14.4090   32.4545 C   0  0  0  0  0  0  0  0  0  0  0  0
   -6.5573  -15.7949   33.1161 C   0  0  0  0  0  0  0  0  0  0  0  0
   -7.9013  -16.1801   33.5245 C   0  0  0  0  0  0  0  0  0  0  0  0
   -8.7569  -14.9488   33.6278 C   0  0  0  0  0  0  0  0  0  0  0  0
  -10.1874  -14.8278   34.1012 C   0  0  0  0  0  0  0  0  0  0  0  0
  -11.0417  -15.3699   35.0411 C   0  0  0  0  0  0  0  0  0  0  0  0
  -12.3410  -15.0320   34.6132 C   0  0  0  0  0  0  0  0  0  0  0  0
  -12.3307  -14.2186   33.5609 N   0  0  0  0  0  0  0  0  0  0  0  0
  -11.0220  -14.0143   33.3468 N   0  0  0  0  0  0  0  0  0  0  0  0
   -7.6687  -14.0148   34.0149 C   0  0  0  0  0  0  0  0  0  0  0  0
   -7.9962   -7.8919   31.5520 C   0  0  0  0  0  0  0  0  0  0  0  0
   -6.9942   -6.7597   31.4568 C   0  0  0  0  0  0  0  0  0  0  0  0
   -6.5192   -6.1983   32.4377 O   0  0  0  0  0  0  0  0  0  0  0  0
   -6.7824   -6.2972   30.2013 N   0  0  0  0  0  0  0  0  0  0  0  0
   -9.0577   -8.1093   28.8630 H   0  0  0  0  0  0  0  0  0  0  0  0
   -7.4202   -8.4226   28.2818 H   0  0  0  0  0  0  0  0  0  0  0  0
   -8.8984   -9.2966   30.6415 H   0  0  0  0  0  0  0  0  0  0  0  0
   -6.7768  -11.6021   29.6747 H   0  0  0  0  0  0  0  0  0  0  0  0
   -7.4393  -11.0605   31.5052 H   0  0  0  0  0  0  0  0  0  0  0  0
   -5.6355  -14.2371   31.8295 H   0  0  0  0  0  0  0  0  0  0  0  0
   -7.2476  -14.7788   31.8316 H   0  0  0  0  0  0  0  0  0  0  0  0
   -6.1380  -16.5623   32.4798 H   0  0  0  0  0  0  0  0  0  0  0  0
   -6.0188  -15.7877   34.0762 H   0  0  0  0  0  0  0  0  0  0  0  0
   -7.5222  -16.5396   34.4819 H   0  0  0  0  0  0  0  0  0  0  0  0
   -8.3604  -17.0020   32.9904 H   0  0  0  0  0  0  0  0  0  0  0  0
   -8.9848  -14.6420   32.6192 H   0  0  0  0  0  0  0  0  0  0  0  0
  -10.8330  -16.0145   35.8775 H   0  0  0  0  0  0  0  0  0  0  0  0
  -13.2884  -15.3377   35.0377 H   0  0  0  0  0  0  0  0  0  0  0  0
  -10.7279  -13.3876   32.5954 H   0  0  0  0  0  0  0  0  0  0  0  0
   -8.1517  -13.3443   34.7395 H   0  0  0  0  0  0  0  0  0  0  0  0
   -6.8633  -14.2640   34.7284 H   0  0  0  0  0  0  0  0  0  0  0  0
   -8.1856   -8.1790   32.5909 H   0  0  0  0  0  0  0  0  0  0  0  0
   -8.9644   -7.3953   31.3424 H   0  0  0  0  0  0  0  0  0  0  0  0
   -6.5630   -5.3168   30.2205 H   0  0  0  0  0  0  0  0  0  0  0  0
  1  2  2  0
  2  3  1  0
  3  4  1  0
  4  5  1  0
  5  6  1  0
  6  7  2  0
  6  8  1  0
  8  9  1  0
  9 10  1  0
 10 11  1  0
 11 12  1  0
 12 13  1  0
 13 14  2  0
 14 15  1  0
 15 16  2  0
 16 17  1  0
 12 18  1  0
  4 19  1  0
 19 20  1  0
 20 21  2  0
 20 22  1  0
 22  2  1  0
 18  8  1  0
 17 13  1  0
  3 23  1  0
  3 24  1  0
  4 25  1  0
  5 26  1  0
  5 27  1  0
  9 28  1  0
  9 29  1  0
 10 30  1  0
 10 31  1  0
 11 32  1  0
 11 33  1  0
 12 34  1  0
 14 35  1  0
 15 36  1  0
 17 37  1  0
 18 38  1  0
 18 39  1  0
 19 40  1  0
 19 41  1  0
 22 42  1  0
M  END
>  <Energy>  (774) 
390.41694846948576

>  <compound_id>  (774) 
15341

>  <target_id>  (774) 
1

>  <reference_id>  (774) 
96

>  <inspiration_ids>  (774) 
[44, 96]

>  <energy_score>  (774) 
384.51007830999174

>  <distance_score>  (774) 
11.268987750364772

>  <path>  (774) 
/opt/xchem-fragalysis-2/maxwin/BulkDock/SCRATCH/511013/C15341-P96/C15341-P96.minimised.mol

>  <scratch_subdir>  (774) 
/opt/xchem-fragalysis-2/maxwin/BulkDock/SCRATCH/511013/C15341-P96

>  <fragmenstein_runtime>  (774) 
14.150062084197998

>  <fragmenstein_outcome>  (774) 
too moved

>  <fragmenstein_mode>  (774) 
expansion

>  <fragmenstein_error>  (774) 


$$$$
C15342-P44
     RDKit          3D

 42 44  0  0  0  0  0  0  0  0999 V2000
   -5.3312   -7.3415   21.0780 O   0  0  0  0  0  0  0  0  0  0  0  0
   -5.8059   -6.9395   22.1334 C   0  0  0  0  0  0  0  0  0  0  0  0
   -5.6901   -7.7298   23.4178 C   0  0  0  0  0  0  0  0  0  0  0  0
   -7.0656   -8.0326   24.0444 C   0  0  0  0  0  0  0  0  0  0  0  0
   -7.6994   -9.3836   23.5061 C   0  0  0  0  0  0  0  0  0  0  0  0
   -8.8636   -9.9359   24.3863 C   0  0  0  0  0  0  0  0  0  0  0  0
   -9.3133   -9.1967   25.2269 O   0  0  0  0  0  0  0  0  0  0  0  0
   -9.2912  -11.2653   23.9704 N   0  0  0  0  0  0  0  0  0  0  0  0
  -10.5010  -12.0877   24.3826 C   0  0  0  0  0  0  0  0  0  0  0  0
  -10.7238  -13.6158   24.3122 C   0  0  0  0  0  0  0  0  0  0  0  0
   -9.6258  -14.2734   23.5223 C   0  0  0  0  0  0  0  0  0  0  0  0
   -9.7231  -15.7757   23.4411 C   0  0  0  0  0  0  0  0  0  0  0  0
   -8.8342  -16.7225   22.9694 C   0  0  0  0  0  0  0  0  0  0  0  0
   -9.5761  -17.9125   22.8753 C   0  0  0  0  0  0  0  0  0  0  0  0
  -10.8094  -17.7780   23.3731 N   0  0  0  0  0  0  0  0  0  0  0  0
  -10.8805  -16.4723   23.6863 N   0  0  0  0  0  0  0  0  0  0  0  0
   -8.3421  -13.7286   24.1221 C   0  0  0  0  0  0  0  0  0  0  0  0
   -8.5615  -12.3322   24.7855 C   0  0  0  0  0  0  0  0  0  0  0  0
   -7.9805   -6.7919   23.9304 C   0  0  0  0  0  0  0  0  0  0  0  0
   -7.8084   -6.0272   22.6256 C   0  0  0  0  0  0  0  0  0  0  0  0
   -8.7699   -5.6785   21.9487 O   0  0  0  0  0  0  0  0  0  0  0  0
   -6.5148   -5.7791   22.2587 N   0  0  0  0  0  0  0  0  0  0  0  0
   -5.0762   -7.1481   24.1137 H   0  0  0  0  0  0  0  0  0  0  0  0
   -5.1431   -8.6537   23.2024 H   0  0  0  0  0  0  0  0  0  0  0  0
   -6.8951   -8.2085   25.1147 H   0  0  0  0  0  0  0  0  0  0  0  0
   -8.0836   -9.2312   22.4914 H   0  0  0  0  0  0  0  0  0  0  0  0
   -6.9207  -10.1535   23.4682 H   0  0  0  0  0  0  0  0  0  0  0  0
  -10.8788  -11.7018   25.3400 H   0  0  0  0  0  0  0  0  0  0  0  0
  -11.2503  -11.6771   23.6866 H   0  0  0  0  0  0  0  0  0  0  0  0
  -11.7124  -13.8151   23.8798 H   0  0  0  0  0  0  0  0  0  0  0  0
  -10.7583  -14.0175   25.3350 H   0  0  0  0  0  0  0  0  0  0  0  0
   -9.6951  -13.9054   22.4880 H   0  0  0  0  0  0  0  0  0  0  0  0
   -7.8205  -16.5523   22.6339 H   0  0  0  0  0  0  0  0  0  0  0  0
   -9.2656  -18.8699   22.4755 H   0  0  0  0  0  0  0  0  0  0  0  0
  -11.7706  -16.1105   24.0120 H   0  0  0  0  0  0  0  0  0  0  0  0
   -7.5755  -13.6511   23.3413 H   0  0  0  0  0  0  0  0  0  0  0  0
   -7.9559  -14.4086   24.8860 H   0  0  0  0  0  0  0  0  0  0  0  0
   -7.5437  -11.9354   24.9209 H   0  0  0  0  0  0  0  0  0  0  0  0
   -8.9050  -12.4263   25.8226 H   0  0  0  0  0  0  0  0  0  0  0  0
   -9.0352   -7.0714   24.0154 H   0  0  0  0  0  0  0  0  0  0  0  0
   -7.7793   -6.0978   24.7523 H   0  0  0  0  0  0  0  0  0  0  0  0
   -6.0898   -5.2489   22.9998 H   0  0  0  0  0  0  0  0  0  0  0  0
  1  2  2  0
  2  3  1  0
  3  4  1  0
  4  5  1  0
  5  6  1  0
  6  7  2  0
  6  8  1  0
  8  9  1  0
  9 10  1  0
 10 11  1  0
 11 12  1  0
 12 13  2  0
 13 14  1  0
 14 15  2  0
 15 16  1  0
 11 17  1  0
 17 18  1  0
  4 19  1  0
 19 20  1  0
 20 21  2  0
 20 22  1  0
 22  2  1  0
 18  8  1  0
 16 12  1  0
  3 23  1  0
  3 24  1  0
  4 25  1  0
  5 26  1  0
  5 27  1  0
  9 28  1  0
  9 29  1  0
 10 30  1  0
 10 31  1  0
 11 32  1  0
 13 33  1  0
 14 34  1  0
 16 35  1  0
 17 36  1  0
 17 37  1  0
 18 38  1  0
 18 39  1  0
 19 40  1  0
 19 41  1  0
 22 42  1  0
M  END
>  <Energy>  (775) 
61.806848550117024

>  <compound_id>  (775) 
15342

>  <target_id>  (775) 
1

>  <reference_id>  (775) 
44

>  <inspiration_ids>  (775) 
[44, 96]

>  <energy_score>  (775) 
53.628951238946684

>  <distance_score>  (775) 
11.782507825680849

>  <path>  (775) 
/opt/xchem-fragalysis-2/maxwin/BulkDock/SCRATCH/511013/C15342-P44/C15342-P44.minimised.mol

>  <scratch_subdir>  (775) 
/opt/xchem-fragalysis-2/maxwin/BulkDock/SCRATCH/511013/C15342-P44

>  <fragmenstein_runtime>  (775) 
30.054792404174805

>  <fragmenstein_outcome>  (775) 
too moved

>  <fragmenstein_mode>  (775) 
expansion

>  <fragmenstein_error>  (775) 


$$$$
C15342-P96
     RDKit          3D

 42 44  0  0  0  0  0  0  0  0999 V2000
   -0.5733   -7.6347   23.7328 O   0  0  0  0  0  0  0  0  0  0  0  0
   -0.6230   -8.4207   24.6761 C   0  0  0  0  0  0  0  0  0  0  0  0
   -1.0898   -9.8589   24.5021 C   0  0  0  0  0  0  0  0  0  0  0  0
   -0.8444  -10.7365   25.7397 C   0  0  0  0  0  0  0  0  0  0  0  0
   -1.4801  -12.1925   25.6060 C   0  0  0  0  0  0  0  0  0  0  0  0
   -0.5477  -13.3762   25.1984 C   0  0  0  0  0  0  0  0  0  0  0  0
    0.5675  -13.1142   24.8233 O   0  0  0  0  0  0  0  0  0  0  0  0
   -1.1906  -14.6751   25.4428 N   0  0  0  0  0  0  0  0  0  0  0  0
   -0.6241  -16.0703   25.4088 C   0  0  0  0  0  0  0  0  0  0  0  0
   -1.4892  -17.2020   26.0112 C   0  0  0  0  0  0  0  0  0  0  0  0
   -2.9169  -17.1616   25.4823 C   0  0  0  0  0  0  0  0  0  0  0  0
   -3.5759  -18.5303   25.4624 C   0  0  0  0  0  0  0  0  0  0  0  0
   -3.2609  -19.7249   24.8393 C   0  0  0  0  0  0  0  0  0  0  0  0
   -4.1896  -20.6694   25.3232 C   0  0  0  0  0  0  0  0  0  0  0  0
   -5.0388  -20.1286   26.1936 N   0  0  0  0  0  0  0  0  0  0  0  0
   -4.7006  -18.8270   26.1969 N   0  0  0  0  0  0  0  0  0  0  0  0
   -2.8463  -16.4409   24.1466 C   0  0  0  0  0  0  0  0  0  0  0  0
   -1.8965  -15.1727   24.1602 C   0  0  0  0  0  0  0  0  0  0  0  0
   -1.4201   -9.9739   26.9541 C   0  0  0  0  0  0  0  0  0  0  0  0
   -0.9901   -8.5183   27.0445 C   0  0  0  0  0  0  0  0  0  0  0  0
   -1.2763   -7.8137   28.0119 O   0  0  0  0  0  0  0  0  0  0  0  0
   -0.3712   -7.9911   25.9489 N   0  0  0  0  0  0  0  0  0  0  0  0
   -0.5590  -10.2858   23.6438 H   0  0  0  0  0  0  0  0  0  0  0  0
   -2.1588   -9.8290   24.2615 H   0  0  0  0  0  0  0  0  0  0  0  0
    0.2390  -10.8310   25.8892 H   0  0  0  0  0  0  0  0  0  0  0  0
   -2.3198  -12.1648   24.9052 H   0  0  0  0  0  0  0  0  0  0  0  0
   -1.8454  -12.4778   26.5990 H   0  0  0  0  0  0  0  0  0  0  0  0
   -0.0880  -16.3549   24.4857 H   0  0  0  0  0  0  0  0  0  0  0  0
    0.2292  -15.9806   26.1002 H   0  0  0  0  0  0  0  0  0  0  0  0
   -1.4779  -17.1294   27.1013 H   0  0  0  0  0  0  0  0  0  0  0  0
   -0.9972  -18.1546   25.7767 H   0  0  0  0  0  0  0  0  0  0  0  0
   -3.5098  -16.5091   26.1264 H   0  0  0  0  0  0  0  0  0  0  0  0
   -2.4429  -19.9048   24.1562 H   0  0  0  0  0  0  0  0  0  0  0  0
   -4.2681  -21.7243   25.0913 H   0  0  0  0  0  0  0  0  0  0  0  0
   -5.2672  -18.1999   26.7646 H   0  0  0  0  0  0  0  0  0  0  0  0
   -3.8490  -16.1412   23.8178 H   0  0  0  0  0  0  0  0  0  0  0  0
   -2.4773  -17.1199   23.3656 H   0  0  0  0  0  0  0  0  0  0  0  0
   -2.5344  -14.3281   23.8644 H   0  0  0  0  0  0  0  0  0  0  0  0
   -1.1911  -15.1951   23.3095 H   0  0  0  0  0  0  0  0  0  0  0  0
   -2.5145   -9.9946   26.9232 H   0  0  0  0  0  0  0  0  0  0  0  0
   -1.0983  -10.4720   27.8757 H   0  0  0  0  0  0  0  0  0  0  0  0
   -0.1566   -7.0049   26.0134 H   0  0  0  0  0  0  0  0  0  0  0  0
  1  2  2  0
  2  3  1  0
  3  4  1  0
  4  5  1  0
  5  6  1  0
  6  7  2  0
  6  8  1  0
  8  9  1  0
  9 10  1  0
 10 11  1  0
 11 12  1  0
 12 13  2  0
 13 14  1  0
 14 15  2  0
 15 16  1  0
 11 17  1  0
 17 18  1  0
  4 19  1  0
 19 20  1  0
 20 21  2  0
 20 22  1  0
 22  2  1  0
 18  8  1  0
 16 12  1  0
  3 23  1  0
  3 24  1  0
  4 25  1  0
  5 26  1  0
  5 27  1  0
  9 28  1  0
  9 29  1  0
 10 30  1  0
 10 31  1  0
 11 32  1  0
 13 33  1  0
 14 34  1  0
 16 35  1  0
 17 36  1  0
 17 37  1  0
 18 38  1  0
 18 39  1  0
 19 40  1  0
 19 41  1  0
 22 42  1  0
M  END
>  <Energy>  (776) 
33.782614837636608

>  <compound_id>  (776) 
15342

>  <target_id>  (776) 
1

>  <reference_id>  (776) 
96

>  <inspiration_ids>  (776) 
[44, 96]

>  <energy_score>  (776) 
25.604717526458842

>  <distance_score>  (776) 
11.582921748964525

>  <path>  (776) 
/opt/xchem-fragalysis-2/maxwin/BulkDock/SCRATCH/511013/C15342-P96/C15342-P96.minimised.mol

>  <scratch_subdir>  (776) 
/opt/xchem-fragalysis-2/maxwin/BulkDock/SCRATCH/511013/C15342-P96

>  <fragmenstein_runtime>  (776) 
15.947813510894775

>  <fragmenstein_outcome>  (776) 
too moved

>  <fragmenstein_mode>  (776) 
expansion

>  <fragmenstein_error>  (776) 


$$$$
C15343-P44
     RDKit          3D

 40 42  0  0  0  0  0  0  0  0999 V2000
   -2.4844   -5.1593   34.3019 O   0  0  0  0  0  0  0  0  0  0  0  0
   -3.2639   -6.0942   34.1473 C   0  0  0  0  0  0  0  0  0  0  0  0
   -4.7528   -5.8972   34.1499 C   0  0  0  0  0  0  0  0  0  0  0  0
   -5.5896   -7.1783   34.0090 C   0  0  0  0  0  0  0  0  0  0  0  0
   -4.9315   -8.5361   33.4427 C   0  0  0  0  0  0  0  0  0  0  0  0
   -5.7518  -10.3550   33.4281 C   0  0  0  0  0  0  0  0  0  0  0  0
   -7.0859  -11.6865   33.0089 N   0  0  0  0  0  0  0  0  0  0  0  0
   -8.2061  -12.4578   33.8056 C   0  0  0  0  0  0  0  0  0  0  0  0
   -8.3552  -13.9686   33.9814 C   0  0  0  0  0  0  0  0  0  0  0  0
   -8.1458  -14.7003   32.6169 C   0  0  0  0  0  0  0  0  0  0  0  0
   -6.9009  -14.2362   31.6985 C   0  0  0  0  0  0  0  0  0  0  0  0
   -6.4848  -14.2775   29.9566 C   0  0  0  0  0  0  0  0  0  0  0  0
   -7.1169  -13.8794   28.7110 C   0  0  0  0  0  0  0  0  0  0  0  0
   -8.0807  -14.6923   28.1102 C   0  0  0  0  0  0  0  0  0  0  0  0
   -7.6089  -15.9920   28.2726 N   0  0  0  0  0  0  0  0  0  0  0  0
   -6.1753  -15.6120   29.2579 N   0  0  0  0  0  0  0  0  0  0  0  0
   -6.5913  -12.8947   32.3517 C   0  0  0  0  0  0  0  0  0  0  0  0
   -3.5816   -8.4806   34.1995 C   0  0  0  0  0  0  0  0  0  0  0  0
   -3.2062   -9.4008   34.9177 O   0  0  0  0  0  0  0  0  0  0  0  0
   -2.8046   -7.3694   33.9911 N   0  0  0  0  0  0  0  0  0  0  0  0
   -5.0008   -5.4292   35.1131 H   0  0  0  0  0  0  0  0  0  0  0  0
   -5.0453   -5.1552   33.4026 H   0  0  0  0  0  0  0  0  0  0  0  0
   -6.4869   -6.9100   33.4422 H   0  0  0  0  0  0  0  0  0  0  0  0
   -5.8701   -7.3435   35.0566 H   0  0  0  0  0  0  0  0  0  0  0  0
   -4.6264   -8.3467   32.4054 H   0  0  0  0  0  0  0  0  0  0  0  0
   -5.2611  -10.5145   34.3989 H   0  0  0  0  0  0  0  0  0  0  0  0
   -5.5068  -10.7825   32.4960 H   0  0  0  0  0  0  0  0  0  0  0  0
   -8.9333  -12.3650   33.0381 H   0  0  0  0  0  0  0  0  0  0  0  0
   -8.4370  -11.9851   34.7710 H   0  0  0  0  0  0  0  0  0  0  0  0
   -9.3867  -14.1789   34.3025 H   0  0  0  0  0  0  0  0  0  0  0  0
   -7.7580  -14.2825   34.8377 H   0  0  0  0  0  0  0  0  0  0  0  0
   -9.0756  -14.4350   32.1789 H   0  0  0  0  0  0  0  0  0  0  0  0
   -8.2324  -15.7695   32.8158 H   0  0  0  0  0  0  0  0  0  0  0  0
   -6.0881  -14.9188   31.9453 H   0  0  0  0  0  0  0  0  0  0  0  0
   -6.8735  -13.0275   28.1106 H   0  0  0  0  0  0  0  0  0  0  0  0
   -8.7794  -14.4836   27.3052 H   0  0  0  0  0  0  0  0  0  0  0  0
   -5.7136  -16.4175   29.6778 H   0  0  0  0  0  0  0  0  0  0  0  0
   -6.0452  -13.3423   33.1540 H   0  0  0  0  0  0  0  0  0  0  0  0
   -6.4303  -12.3329   31.5099 H   0  0  0  0  0  0  0  0  0  0  0  0
   -1.8576   -7.4484   34.3447 H   0  0  0  0  0  0  0  0  0  0  0  0
  1  2  2  0
  2  3  1  0
  3  4  1  0
  4  5  1  0
  5  6  1  0
  6  7  1  0
  7  8  1  0
  8  9  1  0
  9 10  1  0
 10 11  1  0
 11 12  1  0
 12 13  2  0
 13 14  1  0
 14 15  2  0
 15 16  1  0
 11 17  1  0
  5 18  1  0
 18 19  2  0
 18 20  1  0
 20  2  1  0
 17  7  1  0
 16 12  1  0
  3 21  1  0
  3 22  1  0
  4 23  1  0
  4 24  1  0
  5 25  1  0
  6 26  1  0
  6 27  1  0
  8 28  1  0
  8 29  1  0
  9 30  1  0
  9 31  1  0
 10 32  1  0
 10 33  1  0
 11 34  1  0
 13 35  1  0
 14 36  1  0
 16 37  1  0
 17 38  1  0
 17 39  1  0
 20 40  1  0
M  END
>  <Energy>  (777) 
430.74194819781127

>  <compound_id>  (777) 
15343

>  <target_id>  (777) 
1

>  <reference_id>  (777) 
44

>  <inspiration_ids>  (777) 
[44, 96]

>  <energy_score>  (777) 
402.4475435336291

>  <distance_score>  (777) 
11.168762650022822

>  <path>  (777) 
/opt/xchem-fragalysis-2/maxwin/BulkDock/SCRATCH/511013/C15343-P44/C15343-P44.minimised.mol

>  <scratch_subdir>  (777) 
/opt/xchem-fragalysis-2/maxwin/BulkDock/SCRATCH/511013/C15343-P44

>  <fragmenstein_runtime>  (777) 
13.345682621002197

>  <fragmenstein_outcome>  (777) 
too moved

>  <fragmenstein_mode>  (777) 
expansion

>  <fragmenstein_error>  (777) 


$$$$
C15343-P96
     RDKit          3D

 40 42  0  0  0  0  0  0  0  0999 V2000
   -8.8200  -14.8164   23.2244 O   0  0  0  0  0  0  0  0  0  0  0  0
   -9.4956  -14.5436   24.2054 C   0  0  0  0  0  0  0  0  0  0  0  0
   -9.0762  -14.0332   25.5384 C   0  0  0  0  0  0  0  0  0  0  0  0
   -8.6986  -15.3066   26.2066 C   0  0  0  0  0  0  0  0  0  0  0  0
   -9.7778  -16.3435   26.2642 C   0  0  0  0  0  0  0  0  0  0  0  0
   -9.1165  -17.6350   27.6871 C   0  0  0  0  0  0  0  0  0  0  0  0
   -9.6482  -19.3523   28.7748 N   0  0  0  0  0  0  0  0  0  0  0  0
  -10.4195  -20.5734   28.0555 C   0  0  0  0  0  0  0  0  0  0  0  0
  -10.0672  -21.9950   28.4961 C   0  0  0  0  0  0  0  0  0  0  0  0
  -10.5702  -22.2518   29.8976 C   0  0  0  0  0  0  0  0  0  0  0  0
  -11.1218  -20.9638   30.5145 C   0  0  0  0  0  0  0  0  0  0  0  0
  -11.4145  -21.1295   31.9651 C   0  0  0  0  0  0  0  0  0  0  0  0
  -11.7629  -22.2424   32.7017 C   0  0  0  0  0  0  0  0  0  0  0  0
  -12.2134  -21.7217   33.9218 C   0  0  0  0  0  0  0  0  0  0  0  0
  -12.1478  -20.3920   33.9628 N   0  0  0  0  0  0  0  0  0  0  0  0
  -11.5355  -20.0750   32.8212 N   0  0  0  0  0  0  0  0  0  0  0  0
  -10.4780  -19.5303   30.0620 C   0  0  0  0  0  0  0  0  0  0  0  0
  -10.6283  -16.1434   24.7497 C   0  0  0  0  0  0  0  0  0  0  0  0
  -11.1741  -16.9755   24.0208 O   0  0  0  0  0  0  0  0  0  0  0  0
  -10.7689  -14.8961   24.2874 N   0  0  0  0  0  0  0  0  0  0  0  0
   -8.2794  -13.3048   25.4736 H   0  0  0  0  0  0  0  0  0  0  0  0
   -9.9139  -13.5195   26.0210 H   0  0  0  0  0  0  0  0  0  0  0  0
   -8.0549  -15.8913   25.6207 H   0  0  0  0  0  0  0  0  0  0  0  0
   -8.1562  -15.1288   27.1226 H   0  0  0  0  0  0  0  0  0  0  0  0
  -10.7292  -15.9641   26.7042 H   0  0  0  0  0  0  0  0  0  0  0  0
  -10.0937  -17.0835   28.1777 H   0  0  0  0  0  0  0  0  0  0  0  0
   -8.0911  -17.3094   27.9732 H   0  0  0  0  0  0  0  0  0  0  0  0
  -11.4859  -20.4665   28.2681 H   0  0  0  0  0  0  0  0  0  0  0  0
  -10.5362  -20.4992   26.9967 H   0  0  0  0  0  0  0  0  0  0  0  0
   -8.9944  -22.1897   28.4212 H   0  0  0  0  0  0  0  0  0  0  0  0
  -10.5431  -22.7089   27.8117 H   0  0  0  0  0  0  0  0  0  0  0  0
   -9.8010  -22.7323   30.5147 H   0  0  0  0  0  0  0  0  0  0  0  0
  -11.3761  -22.9984   29.8475 H   0  0  0  0  0  0  0  0  0  0  0  0
  -12.1463  -20.9187   30.1146 H   0  0  0  0  0  0  0  0  0  0  0  0
  -11.7757  -23.2721   32.3786 H   0  0  0  0  0  0  0  0  0  0  0  0
  -12.6206  -22.2420   34.7750 H   0  0  0  0  0  0  0  0  0  0  0  0
  -11.2949  -19.1013   32.6647 H   0  0  0  0  0  0  0  0  0  0  0  0
  -11.3990  -19.0563   29.7685 H   0  0  0  0  0  0  0  0  0  0  0  0
   -9.9991  -19.1205   30.9447 H   0  0  0  0  0  0  0  0  0  0  0  0
  -11.1587  -15.0216   23.3580 H   0  0  0  0  0  0  0  0  0  0  0  0
  1  2  2  0
  2  3  1  0
  3  4  1  0
  4  5  1  0
  5  6  1  0
  6  7  1  0
  7  8  1  0
  8  9  1  0
  9 10  1  0
 10 11  1  0
 11 12  1  0
 12 13  2  0
 13 14  1  0
 14 15  2  0
 15 16  1  0
 11 17  1  0
  5 18  1  0
 18 19  2  0
 18 20  1  0
 20  2  1  0
 17  7  1  0
 16 12  1  0
  3 21  1  0
  3 22  1  0
  4 23  1  0
  4 24  1  0
  5 25  1  0
  6 26  1  0
  6 27  1  0
  8 28  1  0
  8 29  1  0
  9 30  1  0
  9 31  1  0
 10 32  1  0
 10 33  1  0
 11 34  1  0
 13 35  1  0
 14 36  1  0
 16 37  1  0
 17 38  1  0
 17 39  1  0
 20 40  1  0
M  END
>  <Energy>  (778) 
358.42617554558706

>  <compound_id>  (778) 
15343

>  <target_id>  (778) 
1

>  <reference_id>  (778) 
96

>  <inspiration_ids>  (778) 
[44, 96]

>  <energy_score>  (778) 
330.1317708814131

>  <distance_score>  (778) 
13.26149032639598

>  <path>  (778) 
/opt/xchem-fragalysis-2/maxwin/BulkDock/SCRATCH/511013/C15343-P96/C15343-P96.minimised.mol

>  <scratch_subdir>  (778) 
/opt/xchem-fragalysis-2/maxwin/BulkDock/SCRATCH/511013/C15343-P96

>  <fragmenstein_runtime>  (778) 
13.769744157791138

>  <fragmenstein_outcome>  (778) 
too moved

>  <fragmenstein_mode>  (778) 
expansion

>  <fragmenstein_error>  (778) 


$$$$
C15344-P44
     RDKit          3D

 40 42  0  0  0  0  0  0  0  0999 V2000
   -6.5058   -5.0630   27.7675 O   0  0  0  0  0  0  0  0  0  0  0  0
   -5.9819   -6.1315   27.4672 C   0  0  0  0  0  0  0  0  0  0  0  0
   -6.3629   -7.7184   26.3097 C   0  0  0  0  0  0  0  0  0  0  0  0
   -6.4937   -9.5306   27.4132 C   0  0  0  0  0  0  0  0  0  0  0  0
   -6.0269  -11.2775   28.9025 C   0  0  0  0  0  0  0  0  0  0  0  0
   -6.2140  -13.4512   29.5460 C   0  0  0  0  0  0  0  0  0  0  0  0
   -5.8017  -15.3896   30.2103 N   0  0  0  0  0  0  0  0  0  0  0  0
   -5.9573  -16.4864   31.8103 C   0  0  0  0  0  0  0  0  0  0  0  0
   -6.9772  -18.2863   32.3566 C   0  0  0  0  0  0  0  0  0  0  0  0
   -7.2929  -20.3310   31.8875 C   0  0  0  0  0  0  0  0  0  0  0  0
   -9.4211  -21.3737   32.0859 C   0  0  0  0  0  0  0  0  0  0  0  0
  -10.4769  -21.2810   30.4453 C   0  0  0  0  0  0  0  0  0  0  0  0
  -11.7661  -21.1116   29.8383 C   0  0  0  0  0  0  0  0  0  0  0  0
  -12.0202  -20.8292   31.0374 N   0  0  0  0  0  0  0  0  0  0  0  0
  -11.0795  -21.8281   31.3984 N   0  0  0  0  0  0  0  0  0  0  0  0
   -7.2740  -18.5170   30.8018 C   0  0  0  0  0  0  0  0  0  0  0  0
   -6.0358  -17.2293   29.6316 C   0  0  0  0  0  0  0  0  0  0  0  0
   -6.5690   -9.3138   29.0816 C   0  0  0  0  0  0  0  0  0  0  0  0
   -7.8179   -9.4332   29.1841 O   0  0  0  0  0  0  0  0  0  0  0  0
   -5.6204   -7.7103   28.6292 N   0  0  0  0  0  0  0  0  0  0  0  0
   -6.9158   -6.6281   26.0679 H   0  0  0  0  0  0  0  0  0  0  0  0
   -6.4458   -7.6649   25.1234 H   0  0  0  0  0  0  0  0  0  0  0  0
   -6.3855  -10.2290   26.4586 H   0  0  0  0  0  0  0  0  0  0  0  0
   -7.6043   -9.2959   27.2449 H   0  0  0  0  0  0  0  0  0  0  0  0
   -4.9425  -11.6622   28.8777 H   0  0  0  0  0  0  0  0  0  0  0  0
   -6.4751  -13.4055   30.6264 H   0  0  0  0  0  0  0  0  0  0  0  0
   -6.9883  -13.8338   28.8549 H   0  0  0  0  0  0  0  0  0  0  0  0
   -6.3683  -15.5737   32.2008 H   0  0  0  0  0  0  0  0  0  0  0  0
   -4.8847  -16.4533   31.9905 H   0  0  0  0  0  0  0  0  0  0  0  0
   -6.3507  -18.7128   33.1155 H   0  0  0  0  0  0  0  0  0  0  0  0
   -7.7757  -17.9783   33.0370 H   0  0  0  0  0  0  0  0  0  0  0  0
   -6.8227  -20.5624   32.8837 H   0  0  0  0  0  0  0  0  0  0  0  0
  -10.2118  -21.9311   29.5344 H   0  0  0  0  0  0  0  0  0  0  0  0
  -12.3102  -21.1414   28.9098 H   0  0  0  0  0  0  0  0  0  0  0  0
  -11.4138  -22.6771   31.8301 H   0  0  0  0  0  0  0  0  0  0  0  0
   -7.2060  -19.2820   30.2218 H   0  0  0  0  0  0  0  0  0  0  0  0
   -7.9076  -18.5805   29.9190 H   0  0  0  0  0  0  0  0  0  0  0  0
   -6.5103  -17.3857   28.6384 H   0  0  0  0  0  0  0  0  0  0  0  0
   -5.0335  -17.4929   29.2359 H   0  0  0  0  0  0  0  0  0  0  0  0
   -5.7090   -7.1705   29.4695 H   0  0  0  0  0  0  0  0  0  0  0  0
  1  2  2  0
  2  3  1  0
  3  4  1  0
  4  5  1  0
  5  6  1  0
  6  7  1  0
  7  8  1  0
  8  9  1  0
  9 10  1  0
 10 11  1  0
 11 12  2  0
 12 13  1  0
 13 14  2  0
 14 15  1  0
 10 16  1  0
 16 17  1  0
  5 18  1  0
 18 19  2  0
 18 20  1  0
 20  2  1  0
 17  7  1  0
 15 11  1  0
  3 21  1  0
  3 22  1  0
  4 23  1  0
  4 24  1  0
  5 25  1  0
  6 26  1  0
  6 27  1  0
  8 28  1  0
  8 29  1  0
  9 30  1  0
  9 31  1  0
 10 32  1  0
 12 33  1  0
 13 34  1  0
 15 35  1  0
 16 36  1  0
 16 37  1  0
 17 38  1  0
 17 39  1  0
 20 40  1  0
M  END
>  <Energy>  (779) 
2836.3558976182699

>  <compound_id>  (779) 
15344

>  <target_id>  (779) 
1

>  <reference_id>  (779) 
44

>  <inspiration_ids>  (779) 
[44, 96]

>  <energy_score>  (779) 
2808.4304837818217

>  <distance_score>  (779) 
8.994735180039749

>  <path>  (779) 
/opt/xchem-fragalysis-2/maxwin/BulkDock/SCRATCH/511013/C15344-P44/C15344-P44.minimised.mol

>  <scratch_subdir>  (779) 
/opt/xchem-fragalysis-2/maxwin/BulkDock/SCRATCH/511013/C15344-P44

>  <fragmenstein_runtime>  (779) 
16.52732825279236

>  <fragmenstein_outcome>  (779) 
too moved

>  <fragmenstein_mode>  (779) 
expansion

>  <fragmenstein_error>  (779) 


$$$$
C15344-P96
     RDKit          3D

 40 42  0  0  0  0  0  0  0  0999 V2000
   -1.9002  -11.9425   24.3953 O   0  0  0  0  0  0  0  0  0  0  0  0
   -2.3549  -11.9008   25.5371 C   0  0  0  0  0  0  0  0  0  0  0  0
   -3.2904  -10.6553   26.0712 C   0  0  0  0  0  0  0  0  0  0  0  0
   -3.7627  -10.9473   27.8697 C   0  0  0  0  0  0  0  0  0  0  0  0
   -3.8215  -12.8390   28.6395 C   0  0  0  0  0  0  0  0  0  0  0  0
   -5.4546  -14.0045   29.2957 C   0  0  0  0  0  0  0  0  0  0  0  0
   -5.7485  -14.4140   31.2174 N   0  0  0  0  0  0  0  0  0  0  0  0
   -7.0558  -13.8940   32.2100 C   0  0  0  0  0  0  0  0  0  0  0  0
   -8.2318  -14.6478   32.9831 C   0  0  0  0  0  0  0  0  0  0  0  0
   -8.0407  -16.1234   33.2639 C   0  0  0  0  0  0  0  0  0  0  0  0
   -9.4503  -17.2888   33.0714 C   0  0  0  0  0  0  0  0  0  0  0  0
  -10.8306  -17.3826   33.8570 C   0  0  0  0  0  0  0  0  0  0  0  0
  -11.4305  -18.6565   33.5963 C   0  0  0  0  0  0  0  0  0  0  0  0
  -10.8465  -19.3005   32.5892 N   0  0  0  0  0  0  0  0  0  0  0  0
   -9.8666  -18.4393   32.1302 N   0  0  0  0  0  0  0  0  0  0  0  0
   -6.5944  -16.4277   33.0558 C   0  0  0  0  0  0  0  0  0  0  0  0
   -5.8821  -15.8190   31.7944 C   0  0  0  0  0  0  0  0  0  0  0  0
   -2.6895  -13.5613   27.6901 C   0  0  0  0  0  0  0  0  0  0  0  0
   -2.2705  -14.6837   27.9950 O   0  0  0  0  0  0  0  0  0  0  0  0
   -2.1190  -12.9931   26.4912 N   0  0  0  0  0  0  0  0  0  0  0  0
   -2.8326   -9.6893   25.8828 H   0  0  0  0  0  0  0  0  0  0  0  0
   -4.1929  -10.6955   25.4682 H   0  0  0  0  0  0  0  0  0  0  0  0
   -3.2313  -10.1726   28.3992 H   0  0  0  0  0  0  0  0  0  0  0  0
   -4.7916  -10.5378   27.9344 H   0  0  0  0  0  0  0  0  0  0  0  0
   -4.7302  -12.1347   28.6784 H   0  0  0  0  0  0  0  0  0  0  0  0
   -6.1769  -13.2013   29.1581 H   0  0  0  0  0  0  0  0  0  0  0  0
   -5.5603  -14.9030   28.6983 H   0  0  0  0  0  0  0  0  0  0  0  0
   -6.5168  -13.4018   33.0288 H   0  0  0  0  0  0  0  0  0  0  0  0
   -7.6837  -13.1973   31.6348 H   0  0  0  0  0  0  0  0  0  0  0  0
   -9.2135  -14.4086   32.5584 H   0  0  0  0  0  0  0  0  0  0  0  0
   -8.2973  -14.1561   33.9679 H   0  0  0  0  0  0  0  0  0  0  0  0
   -7.8759  -15.9759   34.3321 H   0  0  0  0  0  0  0  0  0  0  0  0
  -11.1539  -16.6550   34.5936 H   0  0  0  0  0  0  0  0  0  0  0  0
  -12.2769  -19.1094   34.0956 H   0  0  0  0  0  0  0  0  0  0  0  0
   -9.7077  -18.4960   31.1423 H   0  0  0  0  0  0  0  0  0  0  0  0
   -6.0684  -16.0225   33.9340 H   0  0  0  0  0  0  0  0  0  0  0  0
   -6.3745  -17.4922   33.1741 H   0  0  0  0  0  0  0  0  0  0  0  0
   -4.9505  -16.0287   32.3066 H   0  0  0  0  0  0  0  0  0  0  0  0
   -6.1076  -16.3585   30.9122 H   0  0  0  0  0  0  0  0  0  0  0  0
   -1.4939  -13.6722   26.0727 H   0  0  0  0  0  0  0  0  0  0  0  0
  1  2  2  0
  2  3  1  0
  3  4  1  0
  4  5  1  0
  5  6  1  0
  6  7  1  0
  7  8  1  0
  8  9  1  0
  9 10  1  0
 10 11  1  0
 11 12  2  0
 12 13  1  0
 13 14  2  0
 14 15  1  0
 10 16  1  0
 16 17  1  0
  5 18  1  0
 18 19  2  0
 18 20  1  0
 20  2  1  0
 17  7  1  0
 15 11  1  0
  3 21  1  0
  3 22  1  0
  4 23  1  0
  4 24  1  0
  5 25  1  0
  6 26  1  0
  6 27  1  0
  8 28  1  0
  8 29  1  0
  9 30  1  0
  9 31  1  0
 10 32  1  0
 12 33  1  0
 13 34  1  0
 15 35  1  0
 16 36  1  0
 16 37  1  0
 17 38  1  0
 17 39  1  0
 20 40  1  0
M  END
>  <Energy>  (780) 
522.41609522274996

>  <compound_id>  (780) 
15344

>  <target_id>  (780) 
1

>  <reference_id>  (780) 
96

>  <inspiration_ids>  (780) 
[44, 96]

>  <energy_score>  (780) 
494.49068138629696

>  <distance_score>  (780) 
11.415098163874843

>  <path>  (780) 
/opt/xchem-fragalysis-2/maxwin/BulkDock/SCRATCH/511013/C15344-P96/C15344-P96.minimised.mol

>  <scratch_subdir>  (780) 
/opt/xchem-fragalysis-2/maxwin/BulkDock/SCRATCH/511013/C15344-P96

>  <fragmenstein_runtime>  (780) 
10.13254165649414

>  <fragmenstein_outcome>  (780) 
too moved

>  <fragmenstein_mode>  (780) 
expansion

>  <fragmenstein_error>  (780) 


$$$$
C15345-P44
     RDKit          3D

 48 49  0  0  0  0  0  0  0  0999 V2000
    0.6925    1.9287   29.4250 C   0  0  0  0  0  0  0  0  0  0  0  0
   -0.1027    1.6563   28.1631 C   0  0  0  0  0  0  0  0  0  0  0  0
   -1.0437    0.6140   28.4326 O   0  0  0  0  0  0  0  0  0  0  0  0
   -1.1774   -0.1948   27.2280 N   0  0  0  0  0  0  0  0  0  0  0  0
   -2.5967   -0.3427   26.9541 C   0  0  0  0  0  0  0  0  0  0  0  0
   -2.9116   -1.2966   25.6955 C   0  0  0  0  0  0  0  0  0  0  0  0
   -2.9206   -2.9651   25.6122 C   0  0  0  0  0  0  0  0  0  0  0  0
   -3.1952   -4.5513   24.1648 C   0  0  0  0  0  0  0  0  0  0  0  0
   -4.4370   -6.3918   23.6483 C   0  0  0  0  0  0  0  0  0  0  0  0
   -3.8982   -7.0206   22.6806 O   0  0  0  0  0  0  0  0  0  0  0  0
   -6.0513   -7.0659   24.6918 N   0  0  0  0  0  0  0  0  0  0  0  0
   -7.1032   -8.8837   24.6651 C   0  0  0  0  0  0  0  0  0  0  0  0
   -6.6189  -10.9130   25.2605 C   0  0  0  0  0  0  0  0  0  0  0  0
   -7.2201  -12.6603   25.9506 N   0  0  0  0  0  0  0  0  0  0  0  0
   -7.3375  -14.3972   25.1205 C   0  0  0  0  0  0  0  0  0  0  0  0
   -6.8585  -14.4799   24.0365 O   0  0  0  0  0  0  0  0  0  0  0  0
   -8.0339  -15.6449   25.4070 C   0  0  0  0  0  0  0  0  0  0  0  0
   -9.3655  -16.0401   25.6521 C   0  0  0  0  0  0  0  0  0  0  0  0
  -10.1065  -16.6992   24.1441 C   0  0  0  0  0  0  0  0  0  0  0  0
   -9.2007  -16.9602   22.9634 N   0  0  0  0  0  0  0  0  0  0  0  0
   -7.6472  -16.5148   23.7756 N   0  0  0  0  0  0  0  0  0  0  0  0
   -1.6930   -2.6699   27.1829 C   0  0  0  0  0  0  0  0  0  0  0  0
   -0.7034   -1.5139   27.5697 C   0  0  0  0  0  0  0  0  0  0  0  0
    0.0332    2.1992   30.2546 H   0  0  0  0  0  0  0  0  0  0  0  0
    1.2383    1.0311   29.7342 H   0  0  0  0  0  0  0  0  0  0  0  0
    1.4092    2.7393   29.2661 H   0  0  0  0  0  0  0  0  0  0  0  0
    0.5891    1.3823   27.3566 H   0  0  0  0  0  0  0  0  0  0  0  0
   -0.6570    2.5506   27.8598 H   0  0  0  0  0  0  0  0  0  0  0  0
   -2.9778    0.6615   26.7207 H   0  0  0  0  0  0  0  0  0  0  0  0
   -3.0801   -0.7027   27.8540 H   0  0  0  0  0  0  0  0  0  0  0  0
   -2.1960   -0.7531   25.1640 H   0  0  0  0  0  0  0  0  0  0  0  0
   -3.8179   -1.0234   25.2875 H   0  0  0  0  0  0  0  0  0  0  0  0
   -3.7968   -2.8584   26.2880 H   0  0  0  0  0  0  0  0  0  0  0  0
   -3.0702   -3.8871   23.2575 H   0  0  0  0  0  0  0  0  0  0  0  0
   -2.1728   -5.0107   24.1051 H   0  0  0  0  0  0  0  0  0  0  0  0
   -6.3398   -6.3791   25.3362 H   0  0  0  0  0  0  0  0  0  0  0  0
   -7.4756   -8.9141   25.7959 H   0  0  0  0  0  0  0  0  0  0  0  0
   -8.0386   -8.7750   23.6645 H   0  0  0  0  0  0  0  0  0  0  0  0
   -7.6802  -10.8269   25.4251 H   0  0  0  0  0  0  0  0  0  0  0  0
   -6.2488  -10.6716   26.2110 H   0  0  0  0  0  0  0  0  0  0  0  0
   -7.5812  -12.7339   26.8943 H   0  0  0  0  0  0  0  0  0  0  0  0
   -9.9955  -15.7995   26.4940 H   0  0  0  0  0  0  0  0  0  0  0  0
  -11.1570  -16.7399   24.1697 H   0  0  0  0  0  0  0  0  0  0  0  0
   -6.7841  -16.8027   23.3462 H   0  0  0  0  0  0  0  0  0  0  0  0
   -2.3809   -2.4897   28.0414 H   0  0  0  0  0  0  0  0  0  0  0  0
   -1.1241   -3.5912   27.4423 H   0  0  0  0  0  0  0  0  0  0  0  0
    0.3150   -1.6558   27.2129 H   0  0  0  0  0  0  0  0  0  0  0  0
   -0.5752   -1.5997   28.6616 H   0  0  0  0  0  0  0  0  0  0  0  0
  1  2  1  0
  2  3  1  0
  3  4  1  0
  4  5  1  0
  5  6  1  0
  6  7  1  0
  7  8  1  0
  8  9  1  0
  9 10  2  0
  9 11  1  0
 11 12  1  0
 12 13  1  0
 13 14  1  0
 14 15  1  0
 15 16  2  0
 15 17  1  0
 17 18  2  0
 18 19  1  0
 19 20  2  0
 20 21  1  0
  7 22  1  0
 22 23  1  0
 23  4  1  0
 21 17  1  0
  1 24  1  0
  1 25  1  0
  1 26  1  0
  2 27  1  0
  2 28  1  0
  5 29  1  0
  5 30  1  0
  6 31  1  0
  6 32  1  0
  7 33  1  0
  8 34  1  0
  8 35  1  0
 11 36  1  0
 12 37  1  0
 12 38  1  0
 13 39  1  0
 13 40  1  0
 14 41  1  0
 18 42  1  0
 19 43  1  0
 21 44  1  0
 22 45  1  0
 22 46  1  0
 23 47  1  0
 23 48  1  0
M  END
>  <Energy>  (781) 
1314.3339251239856

>  <compound_id>  (781) 
15345

>  <target_id>  (781) 
1

>  <reference_id>  (781) 
44

>  <inspiration_ids>  (781) 
[44, 96]

>  <energy_score>  (781) 
1277.4640806216998

>  <distance_score>  (781) 
7.271593647704517

>  <path>  (781) 
/opt/xchem-fragalysis-2/maxwin/BulkDock/SCRATCH/511013/C15345-P44/C15345-P44.minimised.mol

>  <scratch_subdir>  (781) 
/opt/xchem-fragalysis-2/maxwin/BulkDock/SCRATCH/511013/C15345-P44

>  <fragmenstein_runtime>  (781) 
24.128315448760986

>  <fragmenstein_outcome>  (781) 
too moved

>  <fragmenstein_mode>  (781) 
expansion

>  <fragmenstein_error>  (781) 


$$$$
C15345-P96
     RDKit          3D

 48 49  0  0  0  0  0  0  0  0999 V2000
    0.3213   -1.4152   32.0629 C   0  0  0  0  0  0  0  0  0  0  0  0
   -0.2204   -0.9094   30.7384 C   0  0  0  0  0  0  0  0  0  0  0  0
   -1.5056   -1.4840   30.4738 O   0  0  0  0  0  0  0  0  0  0  0  0
   -1.3084   -2.7510   29.7895 N   0  0  0  0  0  0  0  0  0  0  0  0
   -2.0346   -3.7900   30.5347 C   0  0  0  0  0  0  0  0  0  0  0  0
   -2.4894   -5.0221   29.6957 C   0  0  0  0  0  0  0  0  0  0  0  0
   -1.5972   -5.1810   28.4953 C   0  0  0  0  0  0  0  0  0  0  0  0
   -1.5745   -6.4460   27.6183 C   0  0  0  0  0  0  0  0  0  0  0  0
   -1.7946   -7.9507   27.2324 C   0  0  0  0  0  0  0  0  0  0  0  0
   -1.2210   -8.1959   26.1875 O   0  0  0  0  0  0  0  0  0  0  0  0
   -2.7476   -8.8515   28.1095 N   0  0  0  0  0  0  0  0  0  0  0  0
   -3.4198  -10.5167   27.8048 C   0  0  0  0  0  0  0  0  0  0  0  0
   -2.4715  -12.3127   27.6955 C   0  0  0  0  0  0  0  0  0  0  0  0
   -1.5445  -13.3464   26.7446 N   0  0  0  0  0  0  0  0  0  0  0  0
   -1.6675  -13.7327   25.3434 C   0  0  0  0  0  0  0  0  0  0  0  0
   -2.4094  -13.3456   24.4897 O   0  0  0  0  0  0  0  0  0  0  0  0
   -0.7832  -14.8357   25.0469 C   0  0  0  0  0  0  0  0  0  0  0  0
    0.5449  -15.1486   25.2017 C   0  0  0  0  0  0  0  0  0  0  0  0
    0.6209  -16.5474   25.0036 C   0  0  0  0  0  0  0  0  0  0  0  0
   -0.5634  -17.0989   24.7488 N   0  0  0  0  0  0  0  0  0  0  0  0
   -1.4003  -16.0517   24.7799 N   0  0  0  0  0  0  0  0  0  0  0  0
   -1.5123   -3.8629   27.6507 C   0  0  0  0  0  0  0  0  0  0  0  0
   -1.7992   -2.5834   28.4379 C   0  0  0  0  0  0  0  0  0  0  0  0
    1.2656   -0.9216   32.3094 H   0  0  0  0  0  0  0  0  0  0  0  0
   -0.3969   -1.2273   32.8672 H   0  0  0  0  0  0  0  0  0  0  0  0
    0.4923   -2.4960   32.0324 H   0  0  0  0  0  0  0  0  0  0  0  0
    0.4824   -1.1037   29.9189 H   0  0  0  0  0  0  0  0  0  0  0  0
   -0.3613    0.1750   30.7950 H   0  0  0  0  0  0  0  0  0  0  0  0
   -2.9050   -3.3829   31.0476 H   0  0  0  0  0  0  0  0  0  0  0  0
   -1.3656   -4.1484   31.3264 H   0  0  0  0  0  0  0  0  0  0  0  0
   -2.4633   -5.9155   30.3294 H   0  0  0  0  0  0  0  0  0  0  0  0
   -3.5107   -4.9155   29.3540 H   0  0  0  0  0  0  0  0  0  0  0  0
   -0.6194   -5.1841   28.9488 H   0  0  0  0  0  0  0  0  0  0  0  0
   -0.5533   -6.7213   27.7835 H   0  0  0  0  0  0  0  0  0  0  0  0
   -1.6559   -6.0122   26.6073 H   0  0  0  0  0  0  0  0  0  0  0  0
   -2.9841   -8.3623   28.9570 H   0  0  0  0  0  0  0  0  0  0  0  0
   -3.9269  -10.2887   26.8666 H   0  0  0  0  0  0  0  0  0  0  0  0
   -4.3326  -10.5924   28.4012 H   0  0  0  0  0  0  0  0  0  0  0  0
   -3.1460  -13.0034   28.2018 H   0  0  0  0  0  0  0  0  0  0  0  0
   -2.5451  -12.3400   26.6521 H   0  0  0  0  0  0  0  0  0  0  0  0
   -0.7644  -13.8114   27.1417 H   0  0  0  0  0  0  0  0  0  0  0  0
    1.3503  -14.4790   25.4657 H   0  0  0  0  0  0  0  0  0  0  0  0
    1.4963  -17.1834   25.0467 H   0  0  0  0  0  0  0  0  0  0  0  0
   -2.4010  -16.2345   24.7330 H   0  0  0  0  0  0  0  0  0  0  0  0
   -0.4940   -3.7742   27.2539 H   0  0  0  0  0  0  0  0  0  0  0  0
   -2.1498   -3.9210   26.7664 H   0  0  0  0  0  0  0  0  0  0  0  0
   -2.8631   -2.3417   28.4492 H   0  0  0  0  0  0  0  0  0  0  0  0
   -1.2942   -1.7463   27.9409 H   0  0  0  0  0  0  0  0  0  0  0  0
  1  2  1  0
  2  3  1  0
  3  4  1  0
  4  5  1  0
  5  6  1  0
  6  7  1  0
  7  8  1  0
  8  9  1  0
  9 10  2  0
  9 11  1  0
 11 12  1  0
 12 13  1  0
 13 14  1  0
 14 15  1  0
 15 16  2  0
 15 17  1  0
 17 18  2  0
 18 19  1  0
 19 20  2  0
 20 21  1  0
  7 22  1  0
 22 23  1  0
 23  4  1  0
 21 17  1  0
  1 24  1  0
  1 25  1  0
  1 26  1  0
  2 27  1  0
  2 28  1  0
  5 29  1  0
  5 30  1  0
  6 31  1  0
  6 32  1  0
  7 33  1  0
  8 34  1  0
  8 35  1  0
 11 36  1  0
 12 37  1  0
 12 38  1  0
 13 39  1  0
 13 40  1  0
 14 41  1  0
 18 42  1  0
 19 43  1  0
 21 44  1  0
 22 45  1  0
 22 46  1  0
 23 47  1  0
 23 48  1  0
M  END
>  <Energy>  (782) 
275.96815380879593

>  <compound_id>  (782) 
15345

>  <target_id>  (782) 
1

>  <reference_id>  (782) 
96

>  <inspiration_ids>  (782) 
[44, 96]

>  <energy_score>  (782) 
239.09830930649514

>  <distance_score>  (782) 
10.488124254063656

>  <path>  (782) 
/opt/xchem-fragalysis-2/maxwin/BulkDock/SCRATCH/511013/C15345-P96/C15345-P96.minimised.mol

>  <scratch_subdir>  (782) 
/opt/xchem-fragalysis-2/maxwin/BulkDock/SCRATCH/511013/C15345-P96

>  <fragmenstein_runtime>  (782) 
17.22928476333618

>  <fragmenstein_outcome>  (782) 
too moved

>  <fragmenstein_mode>  (782) 
expansion

>  <fragmenstein_error>  (782) 


$$$$
C15346-P44
     RDKit          3D

 44 45  0  0  0  0  0  0  0  0999 V2000
   -1.4639   -0.4425   27.9729 C   0  0  0  0  0  0  0  0  0  0  0  0
   -2.7788   -0.6764   27.3903 N   0  0  0  0  0  0  0  0  0  0  0  0
   -3.2060   -2.0260   27.4242 C   0  0  0  0  0  0  0  0  0  0  0  0
   -4.8349   -2.6446   26.7211 C   0  0  0  0  0  0  0  0  0  0  0  0
   -5.7973   -2.7053   24.8659 C   0  0  0  0  0  0  0  0  0  0  0  0
   -7.0893   -4.4447   24.2596 C   0  0  0  0  0  0  0  0  0  0  0  0
   -6.8892   -6.4656   25.1012 C   0  0  0  0  0  0  0  0  0  0  0  0
   -6.5515   -6.3656   26.2073 O   0  0  0  0  0  0  0  0  0  0  0  0
   -7.2528   -8.4082   24.6976 N   0  0  0  0  0  0  0  0  0  0  0  0
   -7.2752   -9.9914   25.7925 C   0  0  0  0  0  0  0  0  0  0  0  0
   -6.6666  -11.7976   25.8225 C   0  0  0  0  0  0  0  0  0  0  0  0
   -7.3640  -13.0068   26.6937 N   0  0  0  0  0  0  0  0  0  0  0  0
   -7.8879  -14.2659   26.2905 C   0  0  0  0  0  0  0  0  0  0  0  0
   -7.8773  -14.8127   25.2351 O   0  0  0  0  0  0  0  0  0  0  0  0
   -8.6344  -14.9520   27.2315 C   0  0  0  0  0  0  0  0  0  0  0  0
   -9.9752  -15.1554   26.9646 C   0  0  0  0  0  0  0  0  0  0  0  0
   -9.9930  -16.4858   26.7884 C   0  0  0  0  0  0  0  0  0  0  0  0
   -8.9505  -17.1188   27.2255 N   0  0  0  0  0  0  0  0  0  0  0  0
   -8.2632  -16.1538   27.7188 N   0  0  0  0  0  0  0  0  0  0  0  0
   -3.7760   -2.0661   25.1007 C   0  0  0  0  0  0  0  0  0  0  0  0
   -2.7897   -0.6526   25.9580 C   0  0  0  0  0  0  0  0  0  0  0  0
   -0.6902   -1.1246   27.6049 H   0  0  0  0  0  0  0  0  0  0  0  0
   -1.1398    0.5843   27.7708 H   0  0  0  0  0  0  0  0  0  0  0  0
   -1.5155   -0.5502   29.0619 H   0  0  0  0  0  0  0  0  0  0  0  0
   -2.3801   -2.4816   26.8687 H   0  0  0  0  0  0  0  0  0  0  0  0
   -3.0465   -2.3958   28.4429 H   0  0  0  0  0  0  0  0  0  0  0  0
   -4.6967   -3.5993   26.9548 H   0  0  0  0  0  0  0  0  0  0  0  0
   -5.4545   -2.8045   27.6439 H   0  0  0  0  0  0  0  0  0  0  0  0
   -6.5883   -1.8632   25.0194 H   0  0  0  0  0  0  0  0  0  0  0  0
   -8.1397   -4.4538   24.7771 H   0  0  0  0  0  0  0  0  0  0  0  0
   -7.7789   -3.5713   24.1370 H   0  0  0  0  0  0  0  0  0  0  0  0
   -7.6386   -8.4636   23.7736 H   0  0  0  0  0  0  0  0  0  0  0  0
   -7.0481  -10.3393   24.7836 H   0  0  0  0  0  0  0  0  0  0  0  0
   -7.1162   -9.4205   26.7209 H   0  0  0  0  0  0  0  0  0  0  0  0
   -7.7165  -11.6287   25.7877 H   0  0  0  0  0  0  0  0  0  0  0  0
   -5.9499  -11.7108   26.6015 H   0  0  0  0  0  0  0  0  0  0  0  0
   -7.4808  -12.9077   27.6690 H   0  0  0  0  0  0  0  0  0  0  0  0
  -10.8080  -14.4923   27.2051 H   0  0  0  0  0  0  0  0  0  0  0  0
  -10.7648  -17.1415   26.8869 H   0  0  0  0  0  0  0  0  0  0  0  0
   -7.4414  -16.4291   28.2186 H   0  0  0  0  0  0  0  0  0  0  0  0
   -4.0119   -1.0385   25.0796 H   0  0  0  0  0  0  0  0  0  0  0  0
   -3.2056   -2.4309   24.2324 H   0  0  0  0  0  0  0  0  0  0  0  0
   -3.2301    0.3507   25.7415 H   0  0  0  0  0  0  0  0  0  0  0  0
   -1.8129   -0.4254   25.5889 H   0  0  0  0  0  0  0  0  0  0  0  0
  1  2  1  0
  2  3  1  0
  3  4  1  0
  4  5  1  0
  5  6  1  0
  6  7  1  0
  7  8  2  0
  7  9  1  0
  9 10  1  0
 10 11  1  0
 11 12  1  0
 12 13  1  0
 13 14  2  0
 13 15  1  0
 15 16  2  0
 16 17  1  0
 17 18  2  0
 18 19  1  0
  5 20  1  0
 20 21  1  0
 21  2  1  0
 19 15  1  0
  1 22  1  0
  1 23  1  0
  1 24  1  0
  3 25  1  0
  3 26  1  0
  4 27  1  0
  4 28  1  0
  5 29  1  0
  6 30  1  0
  6 31  1  0
  9 32  1  0
 10 33  1  0
 10 34  1  0
 11 35  1  0
 11 36  1  0
 12 37  1  0
 16 38  1  0
 17 39  1  0
 19 40  1  0
 20 41  1  0
 20 42  1  0
 21 43  1  0
 21 44  1  0
M  END
>  <Energy>  (783) 
1275.1986154824976

>  <compound_id>  (783) 
15346

>  <target_id>  (783) 
1

>  <reference_id>  (783) 
44

>  <inspiration_ids>  (783) 
[44, 96]

>  <energy_score>  (783) 
1273.352340357048

>  <distance_score>  (783) 
6.805282862853371

>  <path>  (783) 
/opt/xchem-fragalysis-2/maxwin/BulkDock/SCRATCH/511013/C15346-P44/C15346-P44.minimised.mol

>  <scratch_subdir>  (783) 
/opt/xchem-fragalysis-2/maxwin/BulkDock/SCRATCH/511013/C15346-P44

>  <fragmenstein_runtime>  (783) 
16.217320680618286

>  <fragmenstein_outcome>  (783) 
too moved

>  <fragmenstein_mode>  (783) 
expansion

>  <fragmenstein_error>  (783) 


$$$$
C15346-P96
     RDKit          3D

 44 45  0  0  0  0  0  0  0  0999 V2000
   -1.1011   -1.9484   29.2637 C   0  0  0  0  0  0  0  0  0  0  0  0
   -1.6496   -2.5068   28.0304 N   0  0  0  0  0  0  0  0  0  0  0  0
   -0.8732   -3.6749   27.5698 C   0  0  0  0  0  0  0  0  0  0  0  0
   -1.0010   -3.9565   26.0513 C   0  0  0  0  0  0  0  0  0  0  0  0
   -2.4072   -3.6751   25.5456 C   0  0  0  0  0  0  0  0  0  0  0  0
   -3.4587   -4.8769   26.1552 C   0  0  0  0  0  0  0  0  0  0  0  0
   -4.5978   -5.8437   25.1650 C   0  0  0  0  0  0  0  0  0  0  0  0
   -4.1336   -5.9906   24.0454 O   0  0  0  0  0  0  0  0  0  0  0  0
   -6.1360   -6.5809   25.9474 N   0  0  0  0  0  0  0  0  0  0  0  0
   -7.4661   -7.9806   25.2878 C   0  0  0  0  0  0  0  0  0  0  0  0
   -7.5561   -9.9774   24.4741 C   0  0  0  0  0  0  0  0  0  0  0  0
   -7.9999  -11.6068   25.4787 N   0  0  0  0  0  0  0  0  0  0  0  0
   -7.9813  -13.0184   25.0994 C   0  0  0  0  0  0  0  0  0  0  0  0
   -7.5966  -13.5504   24.1072 O   0  0  0  0  0  0  0  0  0  0  0  0
   -8.6436  -13.9981   25.9642 C   0  0  0  0  0  0  0  0  0  0  0  0
   -8.3451  -15.0498   26.7688 C   0  0  0  0  0  0  0  0  0  0  0  0
   -9.1895  -16.1102   26.3861 C   0  0  0  0  0  0  0  0  0  0  0  0
  -10.1666  -15.6867   25.6500 N   0  0  0  0  0  0  0  0  0  0  0  0
   -9.2861  -14.8847   25.1182 N   0  0  0  0  0  0  0  0  0  0  0  0
   -2.4938   -2.0882   25.8027 C   0  0  0  0  0  0  0  0  0  0  0  0
   -1.6718   -1.5155   26.9665 C   0  0  0  0  0  0  0  0  0  0  0  0
   -0.0777   -1.5779   29.1350 H   0  0  0  0  0  0  0  0  0  0  0  0
   -1.7249   -1.1215   29.6208 H   0  0  0  0  0  0  0  0  0  0  0  0
   -1.0988   -2.7052   30.0558 H   0  0  0  0  0  0  0  0  0  0  0  0
    0.1889   -3.5170   27.7866 H   0  0  0  0  0  0  0  0  0  0  0  0
   -1.2075   -4.5500   28.1383 H   0  0  0  0  0  0  0  0  0  0  0  0
   -0.7558   -4.9805   25.7755 H   0  0  0  0  0  0  0  0  0  0  0  0
   -0.2788   -3.3336   25.5053 H   0  0  0  0  0  0  0  0  0  0  0  0
   -2.4136   -3.8437   24.4645 H   0  0  0  0  0  0  0  0  0  0  0  0
   -2.6538   -5.6298   26.1441 H   0  0  0  0  0  0  0  0  0  0  0  0
   -3.5709   -4.9551   27.2433 H   0  0  0  0  0  0  0  0  0  0  0  0
   -6.2611   -6.2379   26.8957 H   0  0  0  0  0  0  0  0  0  0  0  0
   -8.0350   -7.9729   26.2261 H   0  0  0  0  0  0  0  0  0  0  0  0
   -6.7142   -8.5816   25.2989 H   0  0  0  0  0  0  0  0  0  0  0  0
   -8.5984   -9.8573   24.1973 H   0  0  0  0  0  0  0  0  0  0  0  0
   -7.2613  -10.2978   23.4700 H   0  0  0  0  0  0  0  0  0  0  0  0
   -8.3039  -11.5328   26.3811 H   0  0  0  0  0  0  0  0  0  0  0  0
   -7.4868  -15.2321   27.3518 H   0  0  0  0  0  0  0  0  0  0  0  0
   -9.1493  -17.0244   26.9392 H   0  0  0  0  0  0  0  0  0  0  0  0
   -8.9303  -15.1237   24.2086 H   0  0  0  0  0  0  0  0  0  0  0  0
   -3.4954   -1.6907   25.9455 H   0  0  0  0  0  0  0  0  0  0  0  0
   -2.1178   -1.5948   24.8982 H   0  0  0  0  0  0  0  0  0  0  0  0
   -2.1493   -0.5860   27.3021 H   0  0  0  0  0  0  0  0  0  0  0  0
   -0.6593   -1.2454   26.6374 H   0  0  0  0  0  0  0  0  0  0  0  0
  1  2  1  0
  2  3  1  0
  3  4  1  0
  4  5  1  0
  5  6  1  0
  6  7  1  0
  7  8  2  0
  7  9  1  0
  9 10  1  0
 10 11  1  0
 11 12  1  0
 12 13  1  0
 13 14  2  0
 13 15  1  0
 15 16  2  0
 16 17  1  0
 17 18  2  0
 18 19  1  0
  5 20  1  0
 20 21  1  0
 21  2  1  0
 19 15  1  0
  1 22  1  0
  1 23  1  0
  1 24  1  0
  3 25  1  0
  3 26  1  0
  4 27  1  0
  4 28  1  0
  5 29  1  0
  6 30  1  0
  6 31  1  0
  9 32  1  0
 10 33  1  0
 10 34  1  0
 11 35  1  0
 11 36  1  0
 12 37  1  0
 16 38  1  0
 17 39  1  0
 19 40  1  0
 20 41  1  0
 20 42  1  0
 21 43  1  0
 21 44  1  0
M  END
>  <Energy>  (784) 
536.270047844479

>  <compound_id>  (784) 
15346

>  <target_id>  (784) 
1

>  <reference_id>  (784) 
96

>  <inspiration_ids>  (784) 
[44, 96]

>  <energy_score>  (784) 
534.4237727190261

>  <distance_score>  (784) 
7.245057963646192

>  <path>  (784) 
/opt/xchem-fragalysis-2/maxwin/BulkDock/SCRATCH/511013/C15346-P96/C15346-P96.minimised.mol

>  <scratch_subdir>  (784) 
/opt/xchem-fragalysis-2/maxwin/BulkDock/SCRATCH/511013/C15346-P96

>  <fragmenstein_runtime>  (784) 
12.110357284545898

>  <fragmenstein_outcome>  (784) 
too moved

>  <fragmenstein_mode>  (784) 
expansion

>  <fragmenstein_error>  (784) 


$$$$
C15349-P44
     RDKit          3D

 48 49  0  0  0  0  0  0  0  0999 V2000
   -2.3072   -0.4872   27.5888 C   0  0  0  0  0  0  0  0  0  0  0  0
   -2.5360   -2.0315   27.5023 C   0  0  0  0  0  0  0  0  0  0  0  0
   -1.0305   -2.5279   27.8658 C   0  0  0  0  0  0  0  0  0  0  0  0
   -0.2912   -2.3838   29.4999 S   0  0  0  0  0  0  0  0  0  0  0  0
    1.4266   -2.6265   29.1175 C   0  0  0  0  0  0  0  0  0  0  0  0
   -0.6559   -3.5353   30.3132 O   0  0  0  0  0  0  0  0  0  0  0  0
   -0.3757   -1.0246   30.0012 O   0  0  0  0  0  0  0  0  0  0  0  0
   -3.3472   -2.6601   28.7150 C   0  0  0  0  0  0  0  0  0  0  0  0
   -2.9291   -2.1755   29.7871 O   0  0  0  0  0  0  0  0  0  0  0  0
   -4.8340   -3.8244   28.7393 N   0  0  0  0  0  0  0  0  0  0  0  0
   -5.6754   -4.2064   29.7800 C   0  0  0  0  0  0  0  0  0  0  0  0
   -6.3272   -5.7642   28.5279 C   0  0  0  0  0  0  0  0  0  0  0  0
   -5.7493   -7.7455   28.9594 C   0  0  0  0  0  0  0  0  0  0  0  0
   -6.6489   -9.5684   28.7564 N   0  0  0  0  0  0  0  0  0  0  0  0
   -5.9142  -11.4331   28.9711 C   0  0  0  0  0  0  0  0  0  0  0  0
   -4.7812  -11.7894   29.3797 O   0  0  0  0  0  0  0  0  0  0  0  0
   -6.9312  -13.0669   28.3165 C   0  0  0  0  0  0  0  0  0  0  0  0
   -7.8773  -14.3541   28.6455 C   0  0  0  0  0  0  0  0  0  0  0  0
   -8.9979  -14.8352   27.9942 C   0  0  0  0  0  0  0  0  0  0  0  0
   -9.0623  -16.1945   28.2974 C   0  0  0  0  0  0  0  0  0  0  0  0
   -8.1212  -16.5320   29.1738 N   0  0  0  0  0  0  0  0  0  0  0  0
   -7.5728  -15.3644   29.5372 N   0  0  0  0  0  0  0  0  0  0  0  0
   -6.1454   -5.8152   29.3302 C   0  0  0  0  0  0  0  0  0  0  0  0
   -6.1955   -3.6642   28.6419 C   0  0  0  0  0  0  0  0  0  0  0  0
   -2.4117   -0.1001   28.6051 H   0  0  0  0  0  0  0  0  0  0  0  0
   -2.9574    0.0855   26.9325 H   0  0  0  0  0  0  0  0  0  0  0  0
   -1.3111   -0.1892   27.2407 H   0  0  0  0  0  0  0  0  0  0  0  0
   -2.9013   -2.2406   26.4952 H   0  0  0  0  0  0  0  0  0  0  0  0
   -0.8923   -3.5903   27.6591 H   0  0  0  0  0  0  0  0  0  0  0  0
   -0.3193   -1.9419   27.2843 H   0  0  0  0  0  0  0  0  0  0  0  0
    1.5492   -3.5978   28.6347 H   0  0  0  0  0  0  0  0  0  0  0  0
    1.7645   -1.8227   28.4606 H   0  0  0  0  0  0  0  0  0  0  0  0
    1.9910   -2.6025   30.0523 H   0  0  0  0  0  0  0  0  0  0  0  0
   -6.4575   -3.6163   30.4524 H   0  0  0  0  0  0  0  0  0  0  0  0
   -5.2532   -4.2424   30.8425 H   0  0  0  0  0  0  0  0  0  0  0  0
   -7.3888   -5.4104   28.0071 H   0  0  0  0  0  0  0  0  0  0  0  0
   -5.9640   -5.7023   27.4629 H   0  0  0  0  0  0  0  0  0  0  0  0
   -5.0064   -7.9117   28.1709 H   0  0  0  0  0  0  0  0  0  0  0  0
   -7.5660   -9.5865   28.3273 H   0  0  0  0  0  0  0  0  0  0  0  0
   -6.7704  -13.1433   27.2310 H   0  0  0  0  0  0  0  0  0  0  0  0
   -6.3482  -13.6186   29.0962 H   0  0  0  0  0  0  0  0  0  0  0  0
   -9.5913  -14.2867   27.3013 H   0  0  0  0  0  0  0  0  0  0  0  0
   -9.7234  -16.9566   27.9143 H   0  0  0  0  0  0  0  0  0  0  0  0
   -6.8333  -15.3859   30.2316 H   0  0  0  0  0  0  0  0  0  0  0  0
   -6.6953   -6.3654   30.2803 H   0  0  0  0  0  0  0  0  0  0  0  0
   -6.1261   -5.6128   30.5709 H   0  0  0  0  0  0  0  0  0  0  0  0
   -6.6653   -3.1198   27.8050 H   0  0  0  0  0  0  0  0  0  0  0  0
   -7.2403   -3.3774   29.1140 H   0  0  0  0  0  0  0  0  0  0  0  0
  1  2  1  0
  2  3  1  0
  3  4  1  0
  4  5  1  0
  4  6  2  0
  4  7  2  0
  2  8  1  0
  8  9  2  0
  8 10  1  0
 10 11  1  0
 11 12  1  0
 12 13  1  0
 13 14  1  0
 14 15  1  0
 15 16  2  0
 15 17  1  0
 17 18  1  0
 18 19  2  0
 19 20  1  0
 20 21  2  0
 21 22  1  0
 13 23  1  0
 23 24  1  0
 24 10  1  0
 22 18  1  0
  1 25  1  0
  1 26  1  0
  1 27  1  0
  2 28  1  0
  3 29  1  0
  3 30  1  0
  5 31  1  0
  5 32  1  0
  5 33  1  0
 11 34  1  0
 11 35  1  0
 12 36  1  0
 12 37  1  0
 13 38  1  0
 14 39  1  0
 17 40  1  0
 17 41  1  0
 19 42  1  0
 20 43  1  0
 22 44  1  0
 23 45  1  0
 23 46  1  0
 24 47  1  0
 24 48  1  0
M  END
>  <Energy>  (785) 
1689.2511021795226

>  <compound_id>  (785) 
15349

>  <target_id>  (785) 
1

>  <reference_id>  (785) 
44

>  <inspiration_ids>  (785) 
[44, 96]

>  <energy_score>  (785) 
1661.9652837493768

>  <distance_score>  (785) 
8.979940126255784

>  <path>  (785) 
/opt/xchem-fragalysis-2/maxwin/BulkDock/SCRATCH/511013/C15349-P44/C15349-P44.minimised.mol

>  <scratch_subdir>  (785) 
/opt/xchem-fragalysis-2/maxwin/BulkDock/SCRATCH/511013/C15349-P44

>  <fragmenstein_runtime>  (785) 
29.493288278579712

>  <fragmenstein_outcome>  (785) 
too moved

>  <fragmenstein_mode>  (785) 
expansion

>  <fragmenstein_error>  (785) 


$$$$
C15349-P96
     RDKit          3D

 48 49  0  0  0  0  0  0  0  0999 V2000
   -1.0194    1.2244   29.1055 C   0  0  0  0  0  0  0  0  0  0  0  0
   -1.6539    0.2358   28.1278 C   0  0  0  0  0  0  0  0  0  0  0  0
   -1.9685    0.8455   26.7622 C   0  0  0  0  0  0  0  0  0  0  0  0
   -3.1170    2.2010   26.8330 S   0  0  0  0  0  0  0  0  0  0  0  0
   -3.5661    2.4090   25.1252 C   0  0  0  0  0  0  0  0  0  0  0  0
   -2.4066    3.3951   27.2483 O   0  0  0  0  0  0  0  0  0  0  0  0
   -4.2938    1.7674   27.5628 O   0  0  0  0  0  0  0  0  0  0  0  0
   -0.6673   -0.9038   27.8670 C   0  0  0  0  0  0  0  0  0  0  0  0
    0.4532   -0.6503   27.5104 O   0  0  0  0  0  0  0  0  0  0  0  0
   -1.3294   -2.1602   28.0263 N   0  0  0  0  0  0  0  0  0  0  0  0
   -0.8790   -3.5507   27.6950 C   0  0  0  0  0  0  0  0  0  0  0  0
   -1.8735   -4.7068   27.8055 C   0  0  0  0  0  0  0  0  0  0  0  0
   -2.2611   -4.9169   29.2405 C   0  0  0  0  0  0  0  0  0  0  0  0
   -3.4167   -5.8088   29.4482 N   0  0  0  0  0  0  0  0  0  0  0  0
   -3.6135   -6.8934   30.3643 C   0  0  0  0  0  0  0  0  0  0  0  0
   -2.8947   -7.3327   31.2080 O   0  0  0  0  0  0  0  0  0  0  0  0
   -5.2269   -7.5648   30.2522 C   0  0  0  0  0  0  0  0  0  0  0  0
   -5.7564   -9.3036   29.6485 C   0  0  0  0  0  0  0  0  0  0  0  0
   -5.2729  -10.2956   28.6827 C   0  0  0  0  0  0  0  0  0  0  0  0
   -6.0146  -11.5252   28.8368 C   0  0  0  0  0  0  0  0  0  0  0  0
   -6.8881  -11.4412   29.8382 N   0  0  0  0  0  0  0  0  0  0  0  0
   -6.8081  -10.0287   30.2039 N   0  0  0  0  0  0  0  0  0  0  0  0
   -2.2566   -3.5881   29.9716 C   0  0  0  0  0  0  0  0  0  0  0  0
   -1.1429   -2.6736   29.4520 C   0  0  0  0  0  0  0  0  0  0  0  0
   -0.1830    1.7635   28.6473 H   0  0  0  0  0  0  0  0  0  0  0  0
   -0.6310    0.7047   29.9883 H   0  0  0  0  0  0  0  0  0  0  0  0
   -1.7502    1.9598   29.4550 H   0  0  0  0  0  0  0  0  0  0  0  0
   -2.5721   -0.1575   28.5808 H   0  0  0  0  0  0  0  0  0  0  0  0
   -1.0666    1.2164   26.2622 H   0  0  0  0  0  0  0  0  0  0  0  0
   -2.4207    0.0835   26.1163 H   0  0  0  0  0  0  0  0  0  0  0  0
   -4.2673    3.2414   25.0522 H   0  0  0  0  0  0  0  0  0  0  0  0
   -2.6651    2.6305   24.5501 H   0  0  0  0  0  0  0  0  0  0  0  0
   -4.0353    1.4904   24.7683 H   0  0  0  0  0  0  0  0  0  0  0  0
   -0.7170   -3.4533   26.6115 H   0  0  0  0  0  0  0  0  0  0  0  0
    0.1445   -3.7716   28.0270 H   0  0  0  0  0  0  0  0  0  0  0  0
   -1.4419   -5.6343   27.4218 H   0  0  0  0  0  0  0  0  0  0  0  0
   -2.7258   -4.5589   27.1578 H   0  0  0  0  0  0  0  0  0  0  0  0
   -1.4386   -5.4587   29.7102 H   0  0  0  0  0  0  0  0  0  0  0  0
   -4.2728   -5.6588   28.9271 H   0  0  0  0  0  0  0  0  0  0  0  0
   -5.7207   -6.8080   29.6484 H   0  0  0  0  0  0  0  0  0  0  0  0
   -5.6782   -7.4181   31.2382 H   0  0  0  0  0  0  0  0  0  0  0  0
   -4.4348  -10.1915   28.0077 H   0  0  0  0  0  0  0  0  0  0  0  0
   -6.1609  -12.4803   28.4107 H   0  0  0  0  0  0  0  0  0  0  0  0
   -7.5584   -9.7542   30.8093 H   0  0  0  0  0  0  0  0  0  0  0  0
   -2.1500   -3.7481   31.0511 H   0  0  0  0  0  0  0  0  0  0  0  0
   -3.1775   -3.0513   29.8255 H   0  0  0  0  0  0  0  0  0  0  0  0
   -1.2561   -1.7662   30.0681 H   0  0  0  0  0  0  0  0  0  0  0  0
   -0.1165   -2.9611   29.7257 H   0  0  0  0  0  0  0  0  0  0  0  0
  1  2  1  0
  2  3  1  0
  3  4  1  0
  4  5  1  0
  4  6  2  0
  4  7  2  0
  2  8  1  0
  8  9  2  0
  8 10  1  0
 10 11  1  0
 11 12  1  0
 12 13  1  0
 13 14  1  0
 14 15  1  0
 15 16  2  0
 15 17  1  0
 17 18  1  0
 18 19  2  0
 19 20  1  0
 20 21  2  0
 21 22  1  0
 13 23  1  0
 23 24  1  0
 24 10  1  0
 22 18  1  0
  1 25  1  0
  1 26  1  0
  1 27  1  0
  2 28  1  0
  3 29  1  0
  3 30  1  0
  5 31  1  0
  5 32  1  0
  5 33  1  0
 11 34  1  0
 11 35  1  0
 12 36  1  0
 12 37  1  0
 13 38  1  0
 14 39  1  0
 17 40  1  0
 17 41  1  0
 19 42  1  0
 20 43  1  0
 22 44  1  0
 23 45  1  0
 23 46  1  0
 24 47  1  0
 24 48  1  0
M  END
>  <Energy>  (786) 
145.18020612870683

>  <compound_id>  (786) 
15349

>  <target_id>  (786) 
1

>  <reference_id>  (786) 
96

>  <inspiration_ids>  (786) 
[44, 96]

>  <energy_score>  (786) 
117.89438769858066

>  <distance_score>  (786) 
10.521945647706035

>  <path>  (786) 
/opt/xchem-fragalysis-2/maxwin/BulkDock/SCRATCH/511013/C15349-P96/C15349-P96.minimised.mol

>  <scratch_subdir>  (786) 
/opt/xchem-fragalysis-2/maxwin/BulkDock/SCRATCH/511013/C15349-P96

>  <fragmenstein_runtime>  (786) 
22.785078525543213

>  <fragmenstein_outcome>  (786) 
too moved

>  <fragmenstein_mode>  (786) 
expansion

>  <fragmenstein_error>  (786) 


$$$$
C15351-P44
     RDKit          3D

 39 41  0  0  0  0  0  0  0  0999 V2000
   -8.3638  -11.4989   32.8089 O   0  0  0  0  0  0  0  0  0  0  0  0
   -7.2712  -11.9418   32.7310 C   0  0  0  0  0  0  0  0  0  0  0  0
   -5.7758  -11.1163   33.2193 N   0  0  0  0  0  0  0  0  0  0  0  0
   -5.5006   -9.4801   34.0758 C   0  0  0  0  0  0  0  0  0  0  0  0
   -4.6216   -8.2373   33.4541 C   0  0  0  0  0  0  0  0  0  0  0  0
   -5.1751   -7.0396   34.1578 C   0  0  0  0  0  0  0  0  0  0  0  0
   -5.8778   -7.3663   35.2494 C   0  0  0  0  0  0  0  0  0  0  0  0
   -5.9502   -8.8544   35.5180 C   0  0  0  0  0  0  0  0  0  0  0  0
   -6.8054  -13.4224   32.3069 N   0  0  0  0  0  0  0  0  0  0  0  0
   -6.4477  -13.9794   30.9178 C   0  0  0  0  0  0  0  0  0  0  0  0
   -5.5924  -15.3178   31.0610 C   0  0  0  0  0  0  0  0  0  0  0  0
   -6.0072  -16.5262   32.0360 C   0  0  0  0  0  0  0  0  0  0  0  0
   -7.5820  -16.9040   32.6277 C   0  0  0  0  0  0  0  0  0  0  0  0
   -8.7435  -17.3902   33.9519 C   0  0  0  0  0  0  0  0  0  0  0  0
   -9.0074  -18.6447   34.5212 C   0  0  0  0  0  0  0  0  0  0  0  0
   -9.9906  -18.4248   35.4910 C   0  0  0  0  0  0  0  0  0  0  0  0
  -10.4148  -17.1666   35.5005 N   0  0  0  0  0  0  0  0  0  0  0  0
   -9.7300  -16.5850   34.4980 N   0  0  0  0  0  0  0  0  0  0  0  0
   -7.8412  -14.9015   31.9665 C   0  0  0  0  0  0  0  0  0  0  0  0
   -5.0211  -11.7298   33.1276 H   0  0  0  0  0  0  0  0  0  0  0  0
   -4.7246   -9.9534   34.6912 H   0  0  0  0  0  0  0  0  0  0  0  0
   -3.5627   -8.3317   33.7322 H   0  0  0  0  0  0  0  0  0  0  0  0
   -4.6602   -8.1123   32.3685 H   0  0  0  0  0  0  0  0  0  0  0  0
   -4.9920   -6.0223   33.8365 H   0  0  0  0  0  0  0  0  0  0  0  0
   -6.3334   -6.6415   35.9140 H   0  0  0  0  0  0  0  0  0  0  0  0
   -6.9186   -9.1681   35.9235 H   0  0  0  0  0  0  0  0  0  0  0  0
   -5.2206   -9.0875   36.3090 H   0  0  0  0  0  0  0  0  0  0  0  0
   -7.1502  -13.9686   30.1070 H   0  0  0  0  0  0  0  0  0  0  0  0
   -5.7720  -13.4189   30.3142 H   0  0  0  0  0  0  0  0  0  0  0  0
   -4.5417  -15.1140   31.2598 H   0  0  0  0  0  0  0  0  0  0  0  0
   -5.5553  -15.7637   30.0637 H   0  0  0  0  0  0  0  0  0  0  0  0
   -6.2815  -17.2577   31.2949 H   0  0  0  0  0  0  0  0  0  0  0  0
   -5.1262  -16.9371   32.4088 H   0  0  0  0  0  0  0  0  0  0  0  0
   -7.5580  -17.8979   32.1165 H   0  0  0  0  0  0  0  0  0  0  0  0
   -8.4804  -19.5684   34.3355 H   0  0  0  0  0  0  0  0  0  0  0  0
  -10.4167  -19.1259   36.1949 H   0  0  0  0  0  0  0  0  0  0  0  0
   -9.9975  -15.6429   34.2314 H   0  0  0  0  0  0  0  0  0  0  0  0
   -8.4058  -14.6298   31.0983 H   0  0  0  0  0  0  0  0  0  0  0  0
   -8.7304  -14.5739   32.5950 H   0  0  0  0  0  0  0  0  0  0  0  0
  1  2  2  0
  2  3  1  0
  3  4  1  0
  4  5  1  0
  5  6  1  0
  6  7  2  0
  7  8  1  0
  2  9  1  0
  9 10  1  0
 10 11  1  0
 11 12  1  0
 12 13  1  0
 13 14  1  0
 14 15  2  0
 15 16  1  0
 16 17  2  0
 17 18  1  0
 13 19  1  0
  8  4  1  0
 19  9  1  0
 18 14  1  0
  3 20  1  0
  4 21  1  0
  5 22  1  0
  5 23  1  0
  6 24  1  0
  7 25  1  0
  8 26  1  0
  8 27  1  0
 10 28  1  0
 10 29  1  0
 11 30  1  0
 11 31  1  0
 12 32  1  0
 12 33  1  0
 13 34  1  0
 15 35  1  0
 16 36  1  0
 18 37  1  0
 19 38  1  0
 19 39  1  0
M  END
>  <Energy>  (787) 
506.2453678496251

>  <compound_id>  (787) 
15351

>  <target_id>  (787) 
1

>  <reference_id>  (787) 
44

>  <inspiration_ids>  (787) 
[44, 96]

>  <energy_score>  (787) 
501.4993981070505

>  <distance_score>  (787) 
11.396913420868055

>  <path>  (787) 
/opt/xchem-fragalysis-2/maxwin/BulkDock/SCRATCH/511013/C15351-P44/C15351-P44.minimised.mol

>  <scratch_subdir>  (787) 
/opt/xchem-fragalysis-2/maxwin/BulkDock/SCRATCH/511013/C15351-P44

>  <fragmenstein_runtime>  (787) 
18.234184503555298

>  <fragmenstein_outcome>  (787) 
too moved

>  <fragmenstein_mode>  (787) 
expansion

>  <fragmenstein_error>  (787) 


$$$$
C15351-P96
     RDKit          3D

 39 41  0  0  0  0  0  0  0  0999 V2000
   -3.8015   -7.7689   29.9982 O   0  0  0  0  0  0  0  0  0  0  0  0
   -3.3836   -8.3469   29.0630 C   0  0  0  0  0  0  0  0  0  0  0  0
   -2.1193   -8.1776   28.3325 N   0  0  0  0  0  0  0  0  0  0  0  0
   -1.0369   -7.1752   28.4849 C   0  0  0  0  0  0  0  0  0  0  0  0
   -0.6526   -6.5396   27.1232 C   0  0  0  0  0  0  0  0  0  0  0  0
   -1.2566   -5.1676   27.1632 C   0  0  0  0  0  0  0  0  0  0  0  0
   -1.6382   -4.8370   28.3994 C   0  0  0  0  0  0  0  0  0  0  0  0
   -1.3542   -5.9395   29.3736 C   0  0  0  0  0  0  0  0  0  0  0  0
   -4.1289   -9.5577   28.0813 N   0  0  0  0  0  0  0  0  0  0  0  0
   -4.1206  -10.8609   28.1950 C   0  0  0  0  0  0  0  0  0  0  0  0
   -5.1631  -11.7469   28.7552 C   0  0  0  0  0  0  0  0  0  0  0  0
   -6.0075  -10.6667   29.7001 C   0  0  0  0  0  0  0  0  0  0  0  0
   -6.8221  -11.7708   29.3069 C   0  0  0  0  0  0  0  0  0  0  0  0
   -7.7403  -12.6649   30.8363 C   0  0  0  0  0  0  0  0  0  0  0  0
   -7.2060  -13.6950   32.0446 C   0  0  0  0  0  0  0  0  0  0  0  0
   -8.2304  -14.2944   32.7620 C   0  0  0  0  0  0  0  0  0  0  0  0
   -9.3822  -13.9165   32.2241 N   0  0  0  0  0  0  0  0  0  0  0  0
   -9.0348  -12.8187   31.4005 N   0  0  0  0  0  0  0  0  0  0  0  0
   -5.8988  -10.2010   28.1492 C   0  0  0  0  0  0  0  0  0  0  0  0
   -2.0452   -8.8989   27.6277 H   0  0  0  0  0  0  0  0  0  0  0  0
   -0.1907   -7.7339   28.8998 H   0  0  0  0  0  0  0  0  0  0  0  0
   -1.0240   -7.1182   26.2732 H   0  0  0  0  0  0  0  0  0  0  0  0
    0.4357   -6.4500   27.0320 H   0  0  0  0  0  0  0  0  0  0  0  0
   -1.3194   -4.5136   26.3037 H   0  0  0  0  0  0  0  0  0  0  0  0
   -2.0559   -3.8812   28.6853 H   0  0  0  0  0  0  0  0  0  0  0  0
   -2.1852   -6.0856   30.0620 H   0  0  0  0  0  0  0  0  0  0  0  0
   -0.4732   -5.6650   29.9657 H   0  0  0  0  0  0  0  0  0  0  0  0
   -4.2314  -10.6764   27.1184 H   0  0  0  0  0  0  0  0  0  0  0  0
   -3.3083  -11.5271   28.0233 H   0  0  0  0  0  0  0  0  0  0  0  0
   -5.8762  -12.2397   28.1118 H   0  0  0  0  0  0  0  0  0  0  0  0
   -4.4948  -12.6059   28.8802 H   0  0  0  0  0  0  0  0  0  0  0  0
   -5.8708   -9.5447   29.8302 H   0  0  0  0  0  0  0  0  0  0  0  0
   -6.9126  -10.4984   30.3363 H   0  0  0  0  0  0  0  0  0  0  0  0
   -7.4065  -12.1589   28.4287 H   0  0  0  0  0  0  0  0  0  0  0  0
   -6.1727  -14.0239   32.0934 H   0  0  0  0  0  0  0  0  0  0  0  0
   -8.1903  -15.0402   33.5413 H   0  0  0  0  0  0  0  0  0  0  0  0
   -9.5882  -12.0397   31.6797 H   0  0  0  0  0  0  0  0  0  0  0  0
   -6.1407  -10.4967   27.1411 H   0  0  0  0  0  0  0  0  0  0  0  0
   -6.5259   -9.2378   28.2293 H   0  0  0  0  0  0  0  0  0  0  0  0
  1  2  2  0
  2  3  1  0
  3  4  1  0
  4  5  1  0
  5  6  1  0
  6  7  2  0
  7  8  1  0
  2  9  1  0
  9 10  1  0
 10 11  1  0
 11 12  1  0
 12 13  1  0
 13 14  1  0
 14 15  2  0
 15 16  1  0
 16 17  2  0
 17 18  1  0
 13 19  1  0
  8  4  1  0
 19  9  1  0
 18 14  1  0
  3 20  1  0
  4 21  1  0
  5 22  1  0
  5 23  1  0
  6 24  1  0
  7 25  1  0
  8 26  1  0
  8 27  1  0
 10 28  1  0
 10 29  1  0
 11 30  1  0
 11 31  1  0
 12 32  1  0
 12 33  1  0
 13 34  1  0
 15 35  1  0
 16 36  1  0
 18 37  1  0
 19 38  1  0
 19 39  1  0
M  END
>  <Energy>  (788) 
856.70943884682697

>  <compound_id>  (788) 
15351

>  <target_id>  (788) 
1

>  <reference_id>  (788) 
96

>  <inspiration_ids>  (788) 
[44, 96]

>  <energy_score>  (788) 
851.9634691042623

>  <distance_score>  (788) 
11.717141464323761

>  <path>  (788) 
/opt/xchem-fragalysis-2/maxwin/BulkDock/SCRATCH/511013/C15351-P96/C15351-P96.minimised.mol

>  <scratch_subdir>  (788) 
/opt/xchem-fragalysis-2/maxwin/BulkDock/SCRATCH/511013/C15351-P96

>  <fragmenstein_runtime>  (788) 
9.843034029006958

>  <fragmenstein_outcome>  (788) 
too moved

>  <fragmenstein_mode>  (788) 
expansion

>  <fragmenstein_error>  (788) 


$$$$
C35648-P13
     RDKit          3D

 40 44  0  0  0  0  0  0  0  0999 V2000
   -1.7675   -8.1536   32.6266 C   0  0  0  0  0  0  0  0  0  0  0  0
   -1.1293   -7.1670   33.3530 C   0  0  0  0  0  0  0  0  0  0  0  0
   -0.0347   -6.5838   32.7511 C   0  0  0  0  0  0  0  0  0  0  0  0
    0.5341   -5.3947   33.2745 N   0  0  0  0  0  0  0  0  0  0  0  0
    1.8798   -5.1981   33.1440 N   0  0  0  0  0  0  0  0  0  0  0  0
    1.9524   -4.0308   32.4900 C   0  0  0  0  0  0  0  0  0  0  0  0
    0.7005   -3.4185   32.3239 C   0  0  0  0  0  0  0  0  0  0  0  0
    0.1086   -2.3659   31.6145 C   0  0  0  0  0  0  0  0  0  0  0  0
    0.7242   -1.6610   30.5776 N   0  0  0  0  0  0  0  0  0  0  0  0
    0.1896   -2.0314   29.2456 C   0  0  0  0  0  0  0  0  0  0  0  0
   -0.1069   -0.7574   28.4753 C   0  0  0  0  0  0  0  0  0  0  0  0
    0.8870    0.2459   28.3500 C   0  0  0  0  0  0  0  0  0  0  0  0
    0.6049    1.4721   27.7427 C   0  0  0  0  0  0  0  0  0  0  0  0
   -0.6659    1.6631   27.2502 C   0  0  0  0  0  0  0  0  0  0  0  0
   -1.6263    0.6841   27.3271 C   0  0  0  0  0  0  0  0  0  0  0  0
   -1.3806   -0.5354   27.9264 C   0  0  0  0  0  0  0  0  0  0  0  0
   -2.7972    1.0741   26.7584 O   0  0  0  0  0  0  0  0  0  0  0  0
   -2.4988    2.4370   26.4031 C   0  0  0  0  0  0  0  0  0  0  0  0
   -1.1158    2.7881   26.6329 O   0  0  0  0  0  0  0  0  0  0  0  0
   -1.1297   -1.9638   31.9560 N   0  0  0  0  0  0  0  0  0  0  0  0
   -1.8043   -2.7170   32.8300 C   0  0  0  0  0  0  0  0  0  0  0  0
   -1.4132   -3.8858   33.3675 N   0  0  0  0  0  0  0  0  0  0  0  0
   -0.1357   -4.1846   33.1109 C   0  0  0  0  0  0  0  0  0  0  0  0
    0.3842   -7.0042   31.4837 C   0  0  0  0  0  0  0  0  0  0  0  0
   -0.3441   -7.9853   30.8455 C   0  0  0  0  0  0  0  0  0  0  0  0
   -1.4333   -8.5601   31.3801 N   0  0  0  0  0  0  0  0  0  0  0  0
   -2.6163   -8.6659   33.0534 H   0  0  0  0  0  0  0  0  0  0  0  0
   -1.4943   -6.8593   34.3250 H   0  0  0  0  0  0  0  0  0  0  0  0
    2.9109   -3.6969   32.1129 H   0  0  0  0  0  0  0  0  0  0  0  0
    0.3594   -0.7188   30.7472 H   0  0  0  0  0  0  0  0  0  0  0  0
   -0.7148   -2.6502   29.3140 H   0  0  0  0  0  0  0  0  0  0  0  0
    0.9456   -2.6116   28.7043 H   0  0  0  0  0  0  0  0  0  0  0  0
    1.8812    0.0750   28.7597 H   0  0  0  0  0  0  0  0  0  0  0  0
    1.3541    2.2513   27.6674 H   0  0  0  0  0  0  0  0  0  0  0  0
   -2.1607   -1.2898   27.9639 H   0  0  0  0  0  0  0  0  0  0  0  0
   -2.7203    2.5794   25.3399 H   0  0  0  0  0  0  0  0  0  0  0  0
   -3.1351    3.1089   26.9889 H   0  0  0  0  0  0  0  0  0  0  0  0
   -2.7962   -2.3721   33.1053 H   0  0  0  0  0  0  0  0  0  0  0  0
    1.2257   -6.5482   30.9740 H   0  0  0  0  0  0  0  0  0  0  0  0
   -0.0499   -8.3628   29.8711 H   0  0  0  0  0  0  0  0  0  0  0  0
  1  2  2  0
  2  3  1  0
  3  4  1  0
  4  5  1  0
  5  6  2  0
  6  7  1  0
  7  8  2  0
  8  9  1  0
  9 10  1  0
 10 11  1  0
 11 12  2  0
 12 13  1  0
 13 14  2  0
 14 15  1  0
 15 16  2  0
 15 17  1  0
 17 18  1  0
 18 19  1  0
  8 20  1  0
 20 21  2  0
 21 22  1  0
 22 23  2  0
  3 24  2  0
 24 25  1  0
 25 26  2  0
 26  1  1  0
 23  4  1  0
 23  7  1  0
 16 11  1  0
 19 14  1  0
  1 27  1  0
  2 28  1  0
  6 29  1  0
  9 30  1  0
 10 31  1  0
 10 32  1  0
 12 33  1  0
 13 34  1  0
 16 35  1  0
 18 36  1  0
 18 37  1  0
 21 38  1  0
 24 39  1  0
 25 40  1  0
M  END
>  <Energy>  (789) 
73.756139727902308

>  <compound_id>  (789) 
35648

>  <target_id>  (789) 
1

>  <reference_id>  (789) 
13

>  <inspiration_ids>  (789) 
[13, 56]

>  <energy_score>  (789) 
-4.507528237698352

>  <distance_score>  (789) 
1.7186326954685776

>  <path>  (789) 
/opt/xchem-fragalysis-2/maxwin/BulkDock/SCRATCH/511013/C35648-P13/C35648-P13.minimised.mol

>  <scratch_subdir>  (789) 
/opt/xchem-fragalysis-2/maxwin/BulkDock/SCRATCH/511013/C35648-P13

>  <fragmenstein_runtime>  (789) 
2.9629290103912354

>  <fragmenstein_outcome>  (789) 
too moved

>  <fragmenstein_mode>  (789) 
expansion

>  <fragmenstein_error>  (789) 


$$$$
C35648-P56
     RDKit          3D

 40 44  0  0  0  0  0  0  0  0999 V2000
   -1.8521   -7.9861   33.8875 C   0  0  0  0  0  0  0  0  0  0  0  0
   -1.0837   -6.8884   34.2648 C   0  0  0  0  0  0  0  0  0  0  0  0
   -0.1680   -6.4096   33.3395 C   0  0  0  0  0  0  0  0  0  0  0  0
    0.5955   -5.2080   33.5466 N   0  0  0  0  0  0  0  0  0  0  0  0
    1.7646   -5.0730   32.8424 N   0  0  0  0  0  0  0  0  0  0  0  0
    1.4463   -4.1448   31.9356 C   0  0  0  0  0  0  0  0  0  0  0  0
    0.2714   -3.4600   32.2624 C   0  0  0  0  0  0  0  0  0  0  0  0
   -0.6254   -2.5407   31.7029 C   0  0  0  0  0  0  0  0  0  0  0  0
   -0.8584   -2.2866   30.3635 N   0  0  0  0  0  0  0  0  0  0  0  0
    0.1859   -2.0676   29.3800 C   0  0  0  0  0  0  0  0  0  0  0  0
   -0.0867   -0.7550   28.6670 C   0  0  0  0  0  0  0  0  0  0  0  0
    0.8472    0.3030   28.7387 C   0  0  0  0  0  0  0  0  0  0  0  0
    0.5783    1.5447   28.1511 C   0  0  0  0  0  0  0  0  0  0  0  0
   -0.6278    1.7054   27.5064 C   0  0  0  0  0  0  0  0  0  0  0  0
   -1.5361    0.6812   27.4112 C   0  0  0  0  0  0  0  0  0  0  0  0
   -1.2958   -0.5569   27.9709 C   0  0  0  0  0  0  0  0  0  0  0  0
   -2.6448    1.0461   26.7149 O   0  0  0  0  0  0  0  0  0  0  0  0
   -2.3993    2.4540   26.5191 C   0  0  0  0  0  0  0  0  0  0  0  0
   -1.0630    2.8434   26.9024 O   0  0  0  0  0  0  0  0  0  0  0  0
   -1.5025   -1.9443   32.5385 N   0  0  0  0  0  0  0  0  0  0  0  0
   -1.5306   -2.3447   33.8262 C   0  0  0  0  0  0  0  0  0  0  0  0
   -0.8671   -3.3721   34.4043 N   0  0  0  0  0  0  0  0  0  0  0  0
   -0.0138   -3.9406   33.5404 C   0  0  0  0  0  0  0  0  0  0  0  0
   -0.0649   -7.0334   32.0915 C   0  0  0  0  0  0  0  0  0  0  0  0
   -0.9175   -8.0684   31.7962 C   0  0  0  0  0  0  0  0  0  0  0  0
   -1.8183   -8.5635   32.6614 N   0  0  0  0  0  0  0  0  0  0  0  0
   -2.5592   -8.4357   34.5813 H   0  0  0  0  0  0  0  0  0  0  0  0
   -1.2057   -6.4263   35.2380 H   0  0  0  0  0  0  0  0  0  0  0  0
    2.0879   -4.0213   31.0743 H   0  0  0  0  0  0  0  0  0  0  0  0
   -1.5813   -1.5693   30.3407 H   0  0  0  0  0  0  0  0  0  0  0  0
    0.1817   -2.8820   28.6469 H   0  0  0  0  0  0  0  0  0  0  0  0
    1.1799   -2.0427   29.8399 H   0  0  0  0  0  0  0  0  0  0  0  0
    1.7848    0.1694   29.2746 H   0  0  0  0  0  0  0  0  0  0  0  0
    1.2863    2.3633   28.2157 H   0  0  0  0  0  0  0  0  0  0  0  0
   -2.0318   -1.3519   27.8815 H   0  0  0  0  0  0  0  0  0  0  0  0
   -2.5388    2.6899   25.4588 H   0  0  0  0  0  0  0  0  0  0  0  0
   -3.1218    3.0309   27.1056 H   0  0  0  0  0  0  0  0  0  0  0  0
   -2.2208   -1.8140   34.4751 H   0  0  0  0  0  0  0  0  0  0  0  0
    0.6524   -6.7243   31.3389 H   0  0  0  0  0  0  0  0  0  0  0  0
   -0.8433   -8.5642   30.8347 H   0  0  0  0  0  0  0  0  0  0  0  0
  1  2  2  0
  2  3  1  0
  3  4  1  0
  4  5  1  0
  5  6  2  0
  6  7  1  0
  7  8  2  0
  8  9  1  0
  9 10  1  0
 10 11  1  0
 11 12  2  0
 12 13  1  0
 13 14  2  0
 14 15  1  0
 15 16  2  0
 15 17  1  0
 17 18  1  0
 18 19  1  0
  8 20  1  0
 20 21  2  0
 21 22  1  0
 22 23  2  0
  3 24  2  0
 24 25  1  0
 25 26  2  0
 26  1  1  0
 23  4  1  0
 23  7  1  0
 16 11  1  0
 19 14  1  0
  1 27  1  0
  2 28  1  0
  6 29  1  0
  9 30  1  0
 10 31  1  0
 10 32  1  0
 12 33  1  0
 13 34  1  0
 16 35  1  0
 18 36  1  0
 18 37  1  0
 21 38  1  0
 24 39  1  0
 25 40  1  0
M  END
>  <Energy>  (790) 
83.348473010868744

>  <compound_id>  (790) 
35648

>  <target_id>  (790) 
1

>  <reference_id>  (790) 
56

>  <inspiration_ids>  (790) 
[13, 56]

>  <energy_score>  (790) 
5.084805045267387

>  <distance_score>  (790) 
1.893034452398564

>  <path>  (790) 
/opt/xchem-fragalysis-2/maxwin/BulkDock/SCRATCH/511013/C35648-P56/C35648-P56.minimised.mol

>  <scratch_subdir>  (790) 
/opt/xchem-fragalysis-2/maxwin/BulkDock/SCRATCH/511013/C35648-P56

>  <fragmenstein_runtime>  (790) 
2.726229667663574

>  <fragmenstein_outcome>  (790) 
too moved

>  <fragmenstein_mode>  (790) 
expansion

>  <fragmenstein_error>  (790) 


$$$$
C35661-P13
     RDKit          3D

 52 55  0  0  0  0  0  0  0  0999 V2000
   -2.1291   -3.7826   31.4636 O   0  0  0  0  0  0  0  0  0  0  0  0
   -1.1239   -3.1788   31.6555 C   0  0  0  0  0  0  0  0  0  0  0  0
   -0.2691   -2.4876   30.7531 N   0  0  0  0  0  0  0  0  0  0  0  0
   -0.2997   -2.3811   29.3144 C   0  0  0  0  0  0  0  0  0  0  0  0
   -0.4383   -0.9634   28.8258 C   0  0  0  0  0  0  0  0  0  0  0  0
    0.5349    0.0164   29.1327 C   0  0  0  0  0  0  0  0  0  0  0  0
    0.4245    1.3226   28.6401 C   0  0  0  0  0  0  0  0  0  0  0  0
   -0.6615    1.6218   27.8466 C   0  0  0  0  0  0  0  0  0  0  0  0
   -1.6087    0.6785   27.5352 C   0  0  0  0  0  0  0  0  0  0  0  0
   -1.5233   -0.6169   28.0015 C   0  0  0  0  0  0  0  0  0  0  0  0
   -2.5890    1.1762   26.7353 O   0  0  0  0  0  0  0  0  0  0  0  0
   -2.2075    2.5633   26.6636 C   0  0  0  0  0  0  0  0  0  0  0  0
   -0.9286    2.8309   27.2841 O   0  0  0  0  0  0  0  0  0  0  0  0
   -0.5614   -3.0738   32.9220 N   0  0  0  0  0  0  0  0  0  0  0  0
    0.3391   -3.7819   33.6778 C   0  0  0  0  0  0  0  0  0  0  0  0
    0.2425   -2.8051   35.1747 C   0  0  0  0  0  0  0  0  0  0  0  0
    1.1673   -3.3402   36.2418 C   0  0  0  0  0  0  0  0  0  0  0  0
    0.7562   -4.3880   37.0745 C   0  0  0  0  0  0  0  0  0  0  0  0
    1.6416   -4.9333   38.0021 C   0  0  0  0  0  0  0  0  0  0  0  0
    2.9354   -4.4287   38.1152 C   0  0  0  0  0  0  0  0  0  0  0  0
    3.3466   -3.3744   37.3038 C   0  0  0  0  0  0  0  0  0  0  0  0
    2.4665   -2.8325   36.3688 C   0  0  0  0  0  0  0  0  0  0  0  0
    0.6632   -4.5334   33.1077 C   0  0  0  0  0  0  0  0  0  0  0  0
   -0.0341   -5.9128   32.5174 C   0  0  0  0  0  0  0  0  0  0  0  0
    0.3177   -6.3935   31.2496 C   0  0  0  0  0  0  0  0  0  0  0  0
   -0.2585   -7.5771   30.8102 C   0  0  0  0  0  0  0  0  0  0  0  0
   -1.1632   -8.2855   31.5115 N   0  0  0  0  0  0  0  0  0  0  0  0
   -1.4665   -7.8064   32.7354 C   0  0  0  0  0  0  0  0  0  0  0  0
   -0.9327   -6.6516   33.2875 C   0  0  0  0  0  0  0  0  0  0  0  0
    0.4514   -2.0185   31.2786 H   0  0  0  0  0  0  0  0  0  0  0  0
    0.6345   -2.8066   28.9319 H   0  0  0  0  0  0  0  0  0  0  0  0
   -1.1198   -3.0077   28.9497 H   0  0  0  0  0  0  0  0  0  0  0  0
    1.3906   -0.2413   29.7511 H   0  0  0  0  0  0  0  0  0  0  0  0
    1.1648    2.0790   28.8727 H   0  0  0  0  0  0  0  0  0  0  0  0
   -2.2741   -1.3481   27.7123 H   0  0  0  0  0  0  0  0  0  0  0  0
   -2.1477    2.8536   25.6087 H   0  0  0  0  0  0  0  0  0  0  0  0
   -2.9737    3.1742   27.1531 H   0  0  0  0  0  0  0  0  0  0  0  0
    1.3339   -3.0423   33.6779 H   0  0  0  0  0  0  0  0  0  0  0  0
   -0.3724   -4.3820   34.4790 H   0  0  0  0  0  0  0  0  0  0  0  0
   -0.8003   -2.7811   35.5308 H   0  0  0  0  0  0  0  0  0  0  0  0
    0.4780   -1.7562   34.9336 H   0  0  0  0  0  0  0  0  0  0  0  0
   -0.2533   -4.7877   37.0032 H   0  0  0  0  0  0  0  0  0  0  0  0
    1.3185   -5.7463   38.6479 H   0  0  0  0  0  0  0  0  0  0  0  0
    3.6195   -4.8496   38.8479 H   0  0  0  0  0  0  0  0  0  0  0  0
    4.3520   -2.9731   37.4026 H   0  0  0  0  0  0  0  0  0  0  0  0
    2.8022   -2.0110   35.7396 H   0  0  0  0  0  0  0  0  0  0  0  0
    1.3409   -4.3426   32.1647 H   0  0  0  0  0  0  0  0  0  0  0  0
    1.5453   -4.9918   33.8788 H   0  0  0  0  0  0  0  0  0  0  0  0
    1.0220   -5.8753   30.6090 H   0  0  0  0  0  0  0  0  0  0  0  0
    0.0171   -8.0239   29.8622 H   0  0  0  0  0  0  0  0  0  0  0  0
   -2.1865   -8.3976   33.2890 H   0  0  0  0  0  0  0  0  0  0  0  0
   -1.2427   -6.3444   34.2789 H   0  0  0  0  0  0  0  0  0  0  0  0
  1  2  2  0
  2  3  1  0
  3  4  1  0
  4  5  1  0
  5  6  2  0
  6  7  1  0
  7  8  2  0
  8  9  1  0
  9 10  2  0
  9 11  1  0
 11 12  1  0
 12 13  1  0
  2 14  1  0
 14 15  1  0
 15 16  1  0
 16 17  1  0
 17 18  2  0
 18 19  1  0
 19 20  2  0
 20 21  1  0
 21 22  2  0
 14 23  1  0
 23 24  1  0
 24 25  2  0
 25 26  1  0
 26 27  2  0
 27 28  1  0
 28 29  2  0
 10  5  1  0
 22 17  1  0
 29 24  1  0
 13  8  1  0
  3 30  1  0
  4 31  1  0
  4 32  1  0
  6 33  1  0
  7 34  1  0
 10 35  1  0
 12 36  1  0
 12 37  1  0
 15 38  1  0
 15 39  1  0
 16 40  1  0
 16 41  1  0
 18 42  1  0
 19 43  1  0
 20 44  1  0
 21 45  1  0
 22 46  1  0
 23 47  1  0
 23 48  1  0
 25 49  1  0
 26 50  1  0
 28 51  1  0
 29 52  1  0
M  END
>  <Energy>  (791) 
566.54912845784088

>  <compound_id>  (791) 
35661

>  <target_id>  (791) 
1

>  <reference_id>  (791) 
13

>  <inspiration_ids>  (791) 
[13, 56]

>  <energy_score>  (791) 
549.8184606181874

>  <distance_score>  (791) 
1.7127424996024558

>  <path>  (791) 
/opt/xchem-fragalysis-2/maxwin/BulkDock/SCRATCH/511013/C35661-P13/C35661-P13.minimised.mol

>  <scratch_subdir>  (791) 
/opt/xchem-fragalysis-2/maxwin/BulkDock/SCRATCH/511013/C35661-P13

>  <fragmenstein_runtime>  (791) 
8.020616054534912

>  <fragmenstein_outcome>  (791) 
too moved

>  <fragmenstein_mode>  (791) 
expansion

>  <fragmenstein_error>  (791) 


$$$$
C35661-P56
     RDKit          3D

 52 55  0  0  0  0  0  0  0  0999 V2000
   -2.1279   -3.3162   31.4662 O   0  0  0  0  0  0  0  0  0  0  0  0
   -0.9700   -3.2087   31.7324 C   0  0  0  0  0  0  0  0  0  0  0  0
    0.1597   -2.9439   30.8954 N   0  0  0  0  0  0  0  0  0  0  0  0
    0.2530   -2.7276   29.4740 C   0  0  0  0  0  0  0  0  0  0  0  0
    0.0034   -1.2947   29.0738 C   0  0  0  0  0  0  0  0  0  0  0  0
    0.9297   -0.2801   29.4086 C   0  0  0  0  0  0  0  0  0  0  0  0
    0.7378    1.0416   28.9868 C   0  0  0  0  0  0  0  0  0  0  0  0
   -0.3801    1.3212   28.2316 C   0  0  0  0  0  0  0  0  0  0  0  0
   -1.2899    0.3469   27.9034 C   0  0  0  0  0  0  0  0  0  0  0  0
   -1.1355   -0.9604   28.3189 C   0  0  0  0  0  0  0  0  0  0  0  0
   -2.2989    0.8256   27.1272 O   0  0  0  0  0  0  0  0  0  0  0  0
   -1.9732    2.2302   27.0862 C   0  0  0  0  0  0  0  0  0  0  0  0
   -0.7143    2.5377   27.7234 O   0  0  0  0  0  0  0  0  0  0  0  0
   -0.4962   -3.2360   33.0786 N   0  0  0  0  0  0  0  0  0  0  0  0
    0.0925   -4.5551   34.3061 C   0  0  0  0  0  0  0  0  0  0  0  0
    0.1682   -3.5201   35.6524 C   0  0  0  0  0  0  0  0  0  0  0  0
    1.3959   -2.6571   35.6698 C   0  0  0  0  0  0  0  0  0  0  0  0
    2.5810   -3.1455   36.2287 C   0  0  0  0  0  0  0  0  0  0  0  0
    3.7438   -2.3793   36.2067 C   0  0  0  0  0  0  0  0  0  0  0  0
    3.7264   -1.1085   35.6416 C   0  0  0  0  0  0  0  0  0  0  0  0
    2.5469   -0.6070   35.0956 C   0  0  0  0  0  0  0  0  0  0  0  0
    1.3860   -1.3795   35.1061 C   0  0  0  0  0  0  0  0  0  0  0  0
   -0.1857   -4.6216   33.3945 C   0  0  0  0  0  0  0  0  0  0  0  0
   -0.5349   -6.1018   32.4883 C   0  0  0  0  0  0  0  0  0  0  0  0
   -0.2059   -6.2557   31.1409 C   0  0  0  0  0  0  0  0  0  0  0  0
   -0.6487   -7.4000   30.5048 C   0  0  0  0  0  0  0  0  0  0  0  0
   -1.3886   -8.3708   31.0970 N   0  0  0  0  0  0  0  0  0  0  0  0
   -1.6378   -8.2290   32.4145 C   0  0  0  0  0  0  0  0  0  0  0  0
   -1.2310   -7.1346   33.1525 C   0  0  0  0  0  0  0  0  0  0  0  0
    0.9804   -2.8383   31.4750 H   0  0  0  0  0  0  0  0  0  0  0  0
    1.2510   -3.0385   29.1470 H   0  0  0  0  0  0  0  0  0  0  0  0
   -0.4766   -3.3885   28.9925 H   0  0  0  0  0  0  0  0  0  0  0  0
    1.8119   -0.5254   29.9956 H   0  0  0  0  0  0  0  0  0  0  0  0
    1.4479    1.8208   29.2383 H   0  0  0  0  0  0  0  0  0  0  0  0
   -1.8710   -1.7106   28.0425 H   0  0  0  0  0  0  0  0  0  0  0  0
   -1.9188    2.5440   26.0377 H   0  0  0  0  0  0  0  0  0  0  0  0
   -2.7685    2.7958   27.5819 H   0  0  0  0  0  0  0  0  0  0  0  0
    1.2651   -4.8546   34.3944 H   0  0  0  0  0  0  0  0  0  0  0  0
   -0.6800   -5.2374   34.9662 H   0  0  0  0  0  0  0  0  0  0  0  0
    0.1672   -4.1472   36.5551 H   0  0  0  0  0  0  0  0  0  0  0  0
   -0.7454   -2.9129   35.6868 H   0  0  0  0  0  0  0  0  0  0  0  0
    2.6135   -4.1356   36.6757 H   0  0  0  0  0  0  0  0  0  0  0  0
    4.6585   -2.7795   36.6357 H   0  0  0  0  0  0  0  0  0  0  0  0
    4.6309   -0.5068   35.6293 H   0  0  0  0  0  0  0  0  0  0  0  0
    2.5312    0.3865   34.6552 H   0  0  0  0  0  0  0  0  0  0  0  0
    0.4752   -0.9834   34.6607 H   0  0  0  0  0  0  0  0  0  0  0  0
   -1.3480   -4.7372   33.2069 H   0  0  0  0  0  0  0  0  0  0  0  0
    0.6819   -4.6119   32.5813 H   0  0  0  0  0  0  0  0  0  0  0  0
    0.3667   -5.5280   30.5842 H   0  0  0  0  0  0  0  0  0  0  0  0
   -0.4138   -7.5743   29.4573 H   0  0  0  0  0  0  0  0  0  0  0  0
   -2.2033   -9.0362   32.8717 H   0  0  0  0  0  0  0  0  0  0  0  0
   -1.5045   -7.0704   34.1980 H   0  0  0  0  0  0  0  0  0  0  0  0
  1  2  2  0
  2  3  1  0
  3  4  1  0
  4  5  1  0
  5  6  2  0
  6  7  1  0
  7  8  2  0
  8  9  1  0
  9 10  2  0
  9 11  1  0
 11 12  1  0
 12 13  1  0
  2 14  1  0
 14 15  1  0
 15 16  1  0
 16 17  1  0
 17 18  2  0
 18 19  1  0
 19 20  2  0
 20 21  1  0
 21 22  2  0
 14 23  1  0
 23 24  1  0
 24 25  2  0
 25 26  1  0
 26 27  2  0
 27 28  1  0
 28 29  2  0
 10  5  1  0
 22 17  1  0
 29 24  1  0
 13  8  1  0
  3 30  1  0
  4 31  1  0
  4 32  1  0
  6 33  1  0
  7 34  1  0
 10 35  1  0
 12 36  1  0
 12 37  1  0
 15 38  1  0
 15 39  1  0
 16 40  1  0
 16 41  1  0
 18 42  1  0
 19 43  1  0
 20 44  1  0
 21 45  1  0
 22 46  1  0
 23 47  1  0
 23 48  1  0
 25 49  1  0
 26 50  1  0
 28 51  1  0
 29 52  1  0
M  END
>  <Energy>  (792) 
574.24710174856705

>  <compound_id>  (792) 
35661

>  <target_id>  (792) 
1

>  <reference_id>  (792) 
56

>  <inspiration_ids>  (792) 
[13, 56]

>  <energy_score>  (792) 
557.5164339089105

>  <distance_score>  (792) 
1.9730780100143577

>  <path>  (792) 
/opt/xchem-fragalysis-2/maxwin/BulkDock/SCRATCH/511013/C35661-P56/C35661-P56.minimised.mol

>  <scratch_subdir>  (792) 
/opt/xchem-fragalysis-2/maxwin/BulkDock/SCRATCH/511013/C35661-P56

>  <fragmenstein_runtime>  (792) 
9.79362416267395

>  <fragmenstein_outcome>  (792) 
too moved

>  <fragmenstein_mode>  (792) 
expansion

>  <fragmenstein_error>  (792) 


$$$$
C35662-P13
     RDKit          3D

 48 51  0  0  0  0  0  0  0  0999 V2000
    1.8615   -3.8990   39.2082 O   0  0  0  0  0  0  0  0  0  0  0  0
    1.7995   -4.2768   38.1064 C   0  0  0  0  0  0  0  0  0  0  0  0
    2.4657   -5.5838   37.6050 C   0  0  0  0  0  0  0  0  0  0  0  0
    1.8301   -6.0194   36.3729 N   0  0  0  0  0  0  0  0  0  0  0  0
    2.4155   -6.2279   34.9661 C   0  0  0  0  0  0  0  0  0  0  0  0
    3.5141   -6.1582   34.5882 O   0  0  0  0  0  0  0  0  0  0  0  0
    1.3396   -6.4796   33.9519 C   0  0  0  0  0  0  0  0  0  0  0  0
    1.5457   -6.0109   32.6280 C   0  0  0  0  0  0  0  0  0  0  0  0
    0.6324   -6.2763   31.6029 C   0  0  0  0  0  0  0  0  0  0  0  0
   -0.4728   -7.0052   31.9401 C   0  0  0  0  0  0  0  0  0  0  0  0
   -0.7029   -7.4053   33.2372 C   0  0  0  0  0  0  0  0  0  0  0  0
    0.1778   -7.1848   34.2635 C   0  0  0  0  0  0  0  0  0  0  0  0
   -1.8712   -8.0667   33.3626 O   0  0  0  0  0  0  0  0  0  0  0  0
   -2.1019   -8.3525   31.9868 C   0  0  0  0  0  0  0  0  0  0  0  0
   -1.4332   -7.4468   31.0929 O   0  0  0  0  0  0  0  0  0  0  0  0
    1.1222   -3.6442   36.8653 N   0  0  0  0  0  0  0  0  0  0  0  0
    0.3094   -2.4758   36.7469 C   0  0  0  0  0  0  0  0  0  0  0  0
    0.1862   -2.1098   35.2974 C   0  0  0  0  0  0  0  0  0  0  0  0
   -0.6734   -2.7815   34.4249 C   0  0  0  0  0  0  0  0  0  0  0  0
   -0.7747   -2.4105   33.0524 C   0  0  0  0  0  0  0  0  0  0  0  0
   -0.0144   -1.3673   32.4743 C   0  0  0  0  0  0  0  0  0  0  0  0
   -0.1842   -0.9167   31.0222 C   0  0  0  0  0  0  0  0  0  0  0  0
    0.1266    0.3894   30.5881 C   0  0  0  0  0  0  0  0  0  0  0  0
   -0.1418    0.7908   29.2762 C   0  0  0  0  0  0  0  0  0  0  0  0
   -0.6935   -0.0064   28.3476 N   0  0  0  0  0  0  0  0  0  0  0  0
   -0.9703   -1.2655   28.7380 C   0  0  0  0  0  0  0  0  0  0  0  0
   -0.7275   -1.7523   30.0267 C   0  0  0  0  0  0  0  0  0  0  0  0
    0.8803   -0.7464   33.3720 C   0  0  0  0  0  0  0  0  0  0  0  0
    0.9795   -1.1073   34.7483 C   0  0  0  0  0  0  0  0  0  0  0  0
    2.3187   -6.3692   38.3504 H   0  0  0  0  0  0  0  0  0  0  0  0
    3.5283   -5.4062   37.4239 H   0  0  0  0  0  0  0  0  0  0  0  0
    0.8427   -6.2389   36.3637 H   0  0  0  0  0  0  0  0  0  0  0  0
    2.4503   -5.4487   32.3948 H   0  0  0  0  0  0  0  0  0  0  0  0
    0.8087   -5.9446   30.5863 H   0  0  0  0  0  0  0  0  0  0  0  0
   -0.0308   -7.6169   35.2342 H   0  0  0  0  0  0  0  0  0  0  0  0
   -3.1687   -8.3133   31.7899 H   0  0  0  0  0  0  0  0  0  0  0  0
   -1.7399   -9.3611   31.7627 H   0  0  0  0  0  0  0  0  0  0  0  0
    1.3324   -4.2002   36.0447 H   0  0  0  0  0  0  0  0  0  0  0  0
    0.7551   -1.6740   37.3446 H   0  0  0  0  0  0  0  0  0  0  0  0
   -0.6727   -2.6954   37.1789 H   0  0  0  0  0  0  0  0  0  0  0  0
   -1.3088   -3.5842   34.7948 H   0  0  0  0  0  0  0  0  0  0  0  0
   -1.5075   -2.9476   32.4536 H   0  0  0  0  0  0  0  0  0  0  0  0
    0.5411    1.1243   31.2701 H   0  0  0  0  0  0  0  0  0  0  0  0
    0.0768    1.8028   28.9462 H   0  0  0  0  0  0  0  0  0  0  0  0
   -1.4118   -1.9006   27.9720 H   0  0  0  0  0  0  0  0  0  0  0  0
   -0.9875   -2.7853   30.2325 H   0  0  0  0  0  0  0  0  0  0  0  0
    1.5386    0.0470   33.0218 H   0  0  0  0  0  0  0  0  0  0  0  0
    1.6971   -0.5736   35.3704 H   0  0  0  0  0  0  0  0  0  0  0  0
  1  2  2  0
  2  3  1  0
  3  4  1  0
  4  5  1  0
  5  6  2  0
  5  7  1  0
  7  8  2  0
  8  9  1  0
  9 10  2  0
 10 11  1  0
 11 12  2  0
 11 13  1  0
 13 14  1  0
 14 15  1  0
  2 16  1  0
 16 17  1  0
 17 18  1  0
 18 19  2  0
 19 20  1  0
 20 21  2  0
 21 22  1  0
 22 23  2  0
 23 24  1  0
 24 25  2  0
 25 26  1  0
 26 27  2  0
 21 28  1  0
 28 29  2  0
 12  7  1  0
 29 18  1  0
 15 10  1  0
 27 22  1  0
  3 30  1  0
  3 31  1  0
  4 32  1  0
  8 33  1  0
  9 34  1  0
 12 35  1  0
 14 36  1  0
 14 37  1  0
 16 38  1  0
 17 39  1  0
 17 40  1  0
 19 41  1  0
 20 42  1  0
 23 43  1  0
 24 44  1  0
 26 45  1  0
 27 46  1  0
 28 47  1  0
 29 48  1  0
M  END
>  <Energy>  (793) 
82.829574515822273

>  <compound_id>  (793) 
35662

>  <target_id>  (793) 
1

>  <reference_id>  (793) 
13

>  <inspiration_ids>  (793) 
[13, 56]

>  <energy_score>  (793) 
-5.328356473452061

>  <distance_score>  (793) 
2.5373448801996696

>  <path>  (793) 
/opt/xchem-fragalysis-2/maxwin/BulkDock/SCRATCH/511013/C35662-P13/C35662-P13.minimised.mol

>  <scratch_subdir>  (793) 
/opt/xchem-fragalysis-2/maxwin/BulkDock/SCRATCH/511013/C35662-P13

>  <fragmenstein_runtime>  (793) 
14.920095920562744

>  <fragmenstein_outcome>  (793) 
too moved

>  <fragmenstein_mode>  (793) 
expansion

>  <fragmenstein_error>  (793) 


$$$$
C35662-P56
     RDKit          3D

 48 51  0  0  0  0  0  0  0  0999 V2000
    3.9341   -2.3821   34.7239 O   0  0  0  0  0  0  0  0  0  0  0  0
    3.3876   -3.3170   35.1669 C   0  0  0  0  0  0  0  0  0  0  0  0
    3.8187   -4.7614   34.8529 C   0  0  0  0  0  0  0  0  0  0  0  0
    2.6972   -5.4551   34.2477 N   0  0  0  0  0  0  0  0  0  0  0  0
    1.4061   -6.0030   34.8747 C   0  0  0  0  0  0  0  0  0  0  0  0
    1.0703   -6.0538   35.9898 O   0  0  0  0  0  0  0  0  0  0  0  0
    0.3984   -6.4813   33.8797 C   0  0  0  0  0  0  0  0  0  0  0  0
    0.3626   -6.0737   32.5266 C   0  0  0  0  0  0  0  0  0  0  0  0
   -0.5534   -6.6381   31.6397 C   0  0  0  0  0  0  0  0  0  0  0  0
   -1.4255   -7.5673   32.1490 C   0  0  0  0  0  0  0  0  0  0  0  0
   -1.4323   -7.9304   33.4716 C   0  0  0  0  0  0  0  0  0  0  0  0
   -0.5516   -7.3945   34.3651 C   0  0  0  0  0  0  0  0  0  0  0  0
   -2.3799   -8.8506   33.7674 O   0  0  0  0  0  0  0  0  0  0  0  0
   -2.8542   -9.1411   32.4490 C   0  0  0  0  0  0  0  0  0  0  0  0
   -2.3874   -8.2092   31.4545 O   0  0  0  0  0  0  0  0  0  0  0  0
    2.1042   -3.4139   36.0415 N   0  0  0  0  0  0  0  0  0  0  0  0
    1.1898   -2.3991   36.4635 C   0  0  0  0  0  0  0  0  0  0  0  0
    0.5493   -1.8752   35.2038 C   0  0  0  0  0  0  0  0  0  0  0  0
   -0.3414   -2.6303   34.4340 C   0  0  0  0  0  0  0  0  0  0  0  0
   -0.6592   -2.2477   33.0977 C   0  0  0  0  0  0  0  0  0  0  0  0
   -0.1060   -1.1056   32.4679 C   0  0  0  0  0  0  0  0  0  0  0  0
   -0.3769   -0.7281   31.0151 C   0  0  0  0  0  0  0  0  0  0  0  0
   -0.2851    0.5963   30.5362 C   0  0  0  0  0  0  0  0  0  0  0  0
   -0.6141    0.9038   29.2128 C   0  0  0  0  0  0  0  0  0  0  0  0
   -1.0273   -0.0053   28.3128 N   0  0  0  0  0  0  0  0  0  0  0  0
   -1.0798   -1.2790   28.7507 C   0  0  0  0  0  0  0  0  0  0  0  0
   -0.7647   -1.6763   30.0527 C   0  0  0  0  0  0  0  0  0  0  0  0
    0.7332   -0.3369   33.2975 C   0  0  0  0  0  0  0  0  0  0  0  0
    1.0436   -0.7057   34.6335 C   0  0  0  0  0  0  0  0  0  0  0  0
    4.6404   -4.7513   34.1319 H   0  0  0  0  0  0  0  0  0  0  0  0
    4.1209   -5.2900   35.7459 H   0  0  0  0  0  0  0  0  0  0  0  0
    2.6255   -5.4936   33.2431 H   0  0  0  0  0  0  0  0  0  0  0  0
    1.0412   -5.3207   32.1402 H   0  0  0  0  0  0  0  0  0  0  0  0
   -0.5620   -6.3656   30.5910 H   0  0  0  0  0  0  0  0  0  0  0  0
   -0.5803   -7.6976   35.4069 H   0  0  0  0  0  0  0  0  0  0  0  0
   -3.9479   -9.1452   32.4567 H   0  0  0  0  0  0  0  0  0  0  0  0
   -2.4865  -10.1222   32.1479 H   0  0  0  0  0  0  0  0  0  0  0  0
    1.9547   -4.3816   36.3206 H   0  0  0  0  0  0  0  0  0  0  0  0
    1.7421   -1.6196   36.9965 H   0  0  0  0  0  0  0  0  0  0  0  0
    0.4440   -2.8399   37.1313 H   0  0  0  0  0  0  0  0  0  0  0  0
   -0.7519   -3.5591   34.8271 H   0  0  0  0  0  0  0  0  0  0  0  0
   -1.3479   -2.8924   32.5563 H   0  0  0  0  0  0  0  0  0  0  0  0
    0.0076    1.4095   31.1922 H   0  0  0  0  0  0  0  0  0  0  0  0
   -0.5601    1.9260   28.8482 H   0  0  0  0  0  0  0  0  0  0  0  0
   -1.3957   -2.0110   28.0123 H   0  0  0  0  0  0  0  0  0  0  0  0
   -0.8335   -2.7308   30.2972 H   0  0  0  0  0  0  0  0  0  0  0  0
    1.2316    0.5475   32.9059 H   0  0  0  0  0  0  0  0  0  0  0  0
    1.7793   -0.1067   35.1694 H   0  0  0  0  0  0  0  0  0  0  0  0
  1  2  2  0
  2  3  1  0
  3  4  1  0
  4  5  1  0
  5  6  2  0
  5  7  1  0
  7  8  2  0
  8  9  1  0
  9 10  2  0
 10 11  1  0
 11 12  2  0
 11 13  1  0
 13 14  1  0
 14 15  1  0
  2 16  1  0
 16 17  1  0
 17 18  1  0
 18 19  2  0
 19 20  1  0
 20 21  2  0
 21 22  1  0
 22 23  2  0
 23 24  1  0
 24 25  2  0
 25 26  1  0
 26 27  2  0
 21 28  1  0
 28 29  2  0
 12  7  1  0
 29 18  1  0
 15 10  1  0
 27 22  1  0
  3 30  1  0
  3 31  1  0
  4 32  1  0
  8 33  1  0
  9 34  1  0
 12 35  1  0
 14 36  1  0
 14 37  1  0
 16 38  1  0
 17 39  1  0
 17 40  1  0
 19 41  1  0
 20 42  1  0
 23 43  1  0
 24 44  1  0
 26 45  1  0
 27 46  1  0
 28 47  1  0
 29 48  1  0
M  END
>  <Energy>  (794) 
86.511545597751635

>  <compound_id>  (794) 
35662

>  <target_id>  (794) 
1

>  <reference_id>  (794) 
56

>  <inspiration_ids>  (794) 
[13, 56]

>  <energy_score>  (794) 
-1.6463853915223865

>  <distance_score>  (794) 
2.2228944118671894

>  <path>  (794) 
/opt/xchem-fragalysis-2/maxwin/BulkDock/SCRATCH/511013/C35662-P56/C35662-P56.minimised.mol

>  <scratch_subdir>  (794) 
/opt/xchem-fragalysis-2/maxwin/BulkDock/SCRATCH/511013/C35662-P56

>  <fragmenstein_runtime>  (794) 
20.158385038375854

>  <fragmenstein_outcome>  (794) 
too moved

>  <fragmenstein_mode>  (794) 
expansion

>  <fragmenstein_error>  (794) 


$$$$
C35668-P13
     RDKit          3D

 47 50  0  0  0  0  0  0  0  0999 V2000
   -0.3206   -5.2508   35.2459 O   0  0  0  0  0  0  0  0  0  0  0  0
    0.5294   -4.5387   34.9127 C   0  0  0  0  0  0  0  0  0  0  0  0
    1.5410   -4.1319   35.9491 C   0  0  0  0  0  0  0  0  0  0  0  0
    1.3621   -4.6197   37.2682 C   0  0  0  0  0  0  0  0  0  0  0  0
    2.2124   -4.2364   38.3092 C   0  0  0  0  0  0  0  0  0  0  0  0
    3.2363   -3.3725   38.0000 C   0  0  0  0  0  0  0  0  0  0  0  0
    3.4256   -2.9012   36.7212 C   0  0  0  0  0  0  0  0  0  0  0  0
    2.6005   -3.2590   35.6737 C   0  0  0  0  0  0  0  0  0  0  0  0
    4.4936   -2.0619   36.6327 O   0  0  0  0  0  0  0  0  0  0  0  0
    4.9498   -2.0554   38.0019 C   0  0  0  0  0  0  0  0  0  0  0  0
    4.1599   -2.8903   38.8731 O   0  0  0  0  0  0  0  0  0  0  0  0
    0.8203   -3.7799   33.5454 N   0  0  0  0  0  0  0  0  0  0  0  0
   -0.1488   -3.5154   31.8554 C   0  0  0  0  0  0  0  0  0  0  0  0
    0.8673   -2.8965   30.5765 C   0  0  0  0  0  0  0  0  0  0  0  0
    0.2152   -1.7796   29.8027 C   0  0  0  0  0  0  0  0  0  0  0  0
    0.6205   -0.4501   29.9919 C   0  0  0  0  0  0  0  0  0  0  0  0
    0.0233    0.5871   29.2699 C   0  0  0  0  0  0  0  0  0  0  0  0
   -0.9878    0.3076   28.3544 C   0  0  0  0  0  0  0  0  0  0  0  0
   -1.3954   -1.0093   28.1586 C   0  0  0  0  0  0  0  0  0  0  0  0
   -0.7990   -2.0480   28.8781 C   0  0  0  0  0  0  0  0  0  0  0  0
    0.1142   -3.9866   32.4351 C   0  0  0  0  0  0  0  0  0  0  0  0
   -0.2047   -5.7992   32.0815 C   0  0  0  0  0  0  0  0  0  0  0  0
    0.3828   -6.3954   30.9551 C   0  0  0  0  0  0  0  0  0  0  0  0
   -0.0176   -7.6844   30.6257 C   0  0  0  0  0  0  0  0  0  0  0  0
   -0.9600   -8.3882   31.2879 N   0  0  0  0  0  0  0  0  0  0  0  0
   -1.4565   -7.8153   32.3993 C   0  0  0  0  0  0  0  0  0  0  0  0
   -1.1312   -6.5389   32.8264 C   0  0  0  0  0  0  0  0  0  0  0  0
    0.5345   -5.2927   37.4904 H   0  0  0  0  0  0  0  0  0  0  0  0
    2.0683   -4.6025   39.3192 H   0  0  0  0  0  0  0  0  0  0  0  0
    2.7772   -2.8546   34.6849 H   0  0  0  0  0  0  0  0  0  0  0  0
    5.9880   -2.4059   38.0268 H   0  0  0  0  0  0  0  0  0  0  0  0
    4.9170   -1.0261   38.3774 H   0  0  0  0  0  0  0  0  0  0  0  0
   -0.5726   -2.3708   32.1310 H   0  0  0  0  0  0  0  0  0  0  0  0
   -1.3093   -3.8167   31.4352 H   0  0  0  0  0  0  0  0  0  0  0  0
    1.1185   -3.7185   29.8979 H   0  0  0  0  0  0  0  0  0  0  0  0
    1.8021   -2.5477   31.0358 H   0  0  0  0  0  0  0  0  0  0  0  0
    1.4115   -0.2089   30.6988 H   0  0  0  0  0  0  0  0  0  0  0  0
    0.3491    1.6136   29.4170 H   0  0  0  0  0  0  0  0  0  0  0  0
   -1.4547    1.1080   27.7856 H   0  0  0  0  0  0  0  0  0  0  0  0
   -2.1658   -1.2388   27.4235 H   0  0  0  0  0  0  0  0  0  0  0  0
   -1.1266   -3.0669   28.6831 H   0  0  0  0  0  0  0  0  0  0  0  0
    1.2183   -4.5413   32.2223 H   0  0  0  0  0  0  0  0  0  0  0  0
   -0.8373   -4.2345   33.2413 H   0  0  0  0  0  0  0  0  0  0  0  0
    1.1272   -5.8972   30.3486 H   0  0  0  0  0  0  0  0  0  0  0  0
    0.4393   -8.2260   29.8021 H   0  0  0  0  0  0  0  0  0  0  0  0
   -2.1671   -8.4199   32.9524 H   0  0  0  0  0  0  0  0  0  0  0  0
   -1.6309   -6.1476   33.7010 H   0  0  0  0  0  0  0  0  0  0  0  0
  1  2  2  0
  2  3  1  0
  3  4  2  0
  4  5  1  0
  5  6  2  0
  6  7  1  0
  7  8  2  0
  7  9  1  0
  9 10  1  0
 10 11  1  0
  2 12  1  0
 12 13  1  0
 13 14  1  0
 14 15  1  0
 15 16  2  0
 16 17  1  0
 17 18  2  0
 18 19  1  0
 19 20  2  0
 12 21  1  0
 21 22  1  0
 22 23  2  0
 23 24  1  0
 24 25  2  0
 25 26  1  0
 26 27  2  0
  8  3  1  0
 20 15  1  0
 27 22  1  0
 11  6  1  0
  4 28  1  0
  5 29  1  0
  8 30  1  0
 10 31  1  0
 10 32  1  0
 13 33  1  0
 13 34  1  0
 14 35  1  0
 14 36  1  0
 16 37  1  0
 17 38  1  0
 18 39  1  0
 19 40  1  0
 20 41  1  0
 21 42  1  0
 21 43  1  0
 23 44  1  0
 24 45  1  0
 26 46  1  0
 27 47  1  0
M  END
>  <Energy>  (795) 
834.66840502825801

>  <compound_id>  (795) 
35668

>  <target_id>  (795) 
1

>  <reference_id>  (795) 
13

>  <inspiration_ids>  (795) 
[13, 56]

>  <energy_score>  (795) 
743.3121672533603

>  <distance_score>  (795) 
2.061977536217905

>  <path>  (795) 
/opt/xchem-fragalysis-2/maxwin/BulkDock/SCRATCH/511013/C35668-P13/C35668-P13.minimised.mol

>  <scratch_subdir>  (795) 
/opt/xchem-fragalysis-2/maxwin/BulkDock/SCRATCH/511013/C35668-P13

>  <fragmenstein_runtime>  (795) 
7.082355976104736

>  <fragmenstein_outcome>  (795) 
too moved

>  <fragmenstein_mode>  (795) 
expansion

>  <fragmenstein_error>  (795) 


$$$$
C35668-P56
     RDKit          3D

 47 50  0  0  0  0  0  0  0  0999 V2000
    1.4026   -5.7666   34.7548 O   0  0  0  0  0  0  0  0  0  0  0  0
    0.8584   -4.7552   34.8628 C   0  0  0  0  0  0  0  0  0  0  0  0
    0.6103   -4.1919   36.2094 C   0  0  0  0  0  0  0  0  0  0  0  0
   -0.1741   -4.9271   37.1184 C   0  0  0  0  0  0  0  0  0  0  0  0
   -0.4104   -4.4295   38.4030 C   0  0  0  0  0  0  0  0  0  0  0  0
    0.1650   -3.2203   38.7333 C   0  0  0  0  0  0  0  0  0  0  0  0
    0.9352   -2.5081   37.8400 C   0  0  0  0  0  0  0  0  0  0  0  0
    1.1763   -2.9626   36.5628 C   0  0  0  0  0  0  0  0  0  0  0  0
    1.3978   -1.3430   38.3690 O   0  0  0  0  0  0  0  0  0  0  0  0
    0.8588   -1.4198   39.7044 C   0  0  0  0  0  0  0  0  0  0  0  0
    0.0516   -2.5922   39.9347 O   0  0  0  0  0  0  0  0  0  0  0  0
    0.2611   -3.7309   33.7967 N   0  0  0  0  0  0  0  0  0  0  0  0
    0.2839   -3.5577   31.8368 C   0  0  0  0  0  0  0  0  0  0  0  0
    0.3506   -1.7987   31.7737 C   0  0  0  0  0  0  0  0  0  0  0  0
    0.1586   -1.1803   30.4134 C   0  0  0  0  0  0  0  0  0  0  0  0
    1.1755   -0.4007   29.8456 C   0  0  0  0  0  0  0  0  0  0  0  0
    0.9649    0.2777   28.6432 C   0  0  0  0  0  0  0  0  0  0  0  0
   -0.2625    0.1810   27.9936 C   0  0  0  0  0  0  0  0  0  0  0  0
   -1.2733   -0.6089   28.5325 C   0  0  0  0  0  0  0  0  0  0  0  0
   -1.0675   -1.2791   29.7397 C   0  0  0  0  0  0  0  0  0  0  0  0
    0.1977   -4.0040   32.4996 C   0  0  0  0  0  0  0  0  0  0  0  0
   -0.3746   -5.7367   32.1248 C   0  0  0  0  0  0  0  0  0  0  0  0
   -0.1142   -6.2377   30.8421 C   0  0  0  0  0  0  0  0  0  0  0  0
   -0.6439   -7.4730   30.5247 C   0  0  0  0  0  0  0  0  0  0  0  0
   -1.4135   -8.2138   31.3576 N   0  0  0  0  0  0  0  0  0  0  0  0
   -1.5676   -7.7358   32.6161 C   0  0  0  0  0  0  0  0  0  0  0  0
   -1.0845   -6.5107   33.0493 C   0  0  0  0  0  0  0  0  0  0  0  0
   -0.5948   -5.8827   36.8184 H   0  0  0  0  0  0  0  0  0  0  0  0
   -1.0183   -4.9727   39.1173 H   0  0  0  0  0  0  0  0  0  0  0  0
    1.7922   -2.4022   35.8709 H   0  0  0  0  0  0  0  0  0  0  0  0
    1.6903   -1.4202   40.4189 H   0  0  0  0  0  0  0  0  0  0  0  0
    0.2431   -0.5310   39.8840 H   0  0  0  0  0  0  0  0  0  0  0  0
   -0.7254   -3.6051   31.0775 H   0  0  0  0  0  0  0  0  0  0  0  0
    1.3387   -3.7074   31.1881 H   0  0  0  0  0  0  0  0  0  0  0  0
    1.3167   -1.5134   32.2111 H   0  0  0  0  0  0  0  0  0  0  0  0
   -0.4304   -1.4188   32.4471 H   0  0  0  0  0  0  0  0  0  0  0  0
    2.1332   -0.2896   30.3495 H   0  0  0  0  0  0  0  0  0  0  0  0
    1.7554    0.8908   28.2191 H   0  0  0  0  0  0  0  0  0  0  0  0
   -0.4327    0.7186   27.0665 H   0  0  0  0  0  0  0  0  0  0  0  0
   -2.2256   -0.6982   28.0156 H   0  0  0  0  0  0  0  0  0  0  0  0
   -1.8892   -1.8550   30.1570 H   0  0  0  0  0  0  0  0  0  0  0  0
    1.1907   -4.7495   32.7100 H   0  0  0  0  0  0  0  0  0  0  0  0
   -1.0214   -4.0687   32.8554 H   0  0  0  0  0  0  0  0  0  0  0  0
    0.4790   -5.7046   30.1109 H   0  0  0  0  0  0  0  0  0  0  0  0
   -0.4511   -7.9181   29.5515 H   0  0  0  0  0  0  0  0  0  0  0  0
   -2.1253   -8.3818   33.2888 H   0  0  0  0  0  0  0  0  0  0  0  0
   -1.2726   -6.1711   34.0584 H   0  0  0  0  0  0  0  0  0  0  0  0
  1  2  2  0
  2  3  1  0
  3  4  2  0
  4  5  1  0
  5  6  2  0
  6  7  1  0
  7  8  2  0
  7  9  1  0
  9 10  1  0
 10 11  1  0
  2 12  1  0
 12 13  1  0
 13 14  1  0
 14 15  1  0
 15 16  2  0
 16 17  1  0
 17 18  2  0
 18 19  1  0
 19 20  2  0
 12 21  1  0
 21 22  1  0
 22 23  2  0
 23 24  1  0
 24 25  2  0
 25 26  1  0
 26 27  2  0
  8  3  1  0
 20 15  1  0
 27 22  1  0
 11  6  1  0
  4 28  1  0
  5 29  1  0
  8 30  1  0
 10 31  1  0
 10 32  1  0
 13 33  1  0
 13 34  1  0
 14 35  1  0
 14 36  1  0
 16 37  1  0
 17 38  1  0
 18 39  1  0
 19 40  1  0
 20 41  1  0
 21 42  1  0
 21 43  1  0
 23 44  1  0
 24 45  1  0
 26 46  1  0
 27 47  1  0
M  END
>  <Energy>  (796) 
827.04642712608199

>  <compound_id>  (796) 
35668

>  <target_id>  (796) 
1

>  <reference_id>  (796) 
56

>  <inspiration_ids>  (796) 
[13, 56]

>  <energy_score>  (796) 
735.6901893511788

>  <distance_score>  (796) 
2.111344334071276

>  <path>  (796) 
/opt/xchem-fragalysis-2/maxwin/BulkDock/SCRATCH/511013/C35668-P56/C35668-P56.minimised.mol

>  <scratch_subdir>  (796) 
/opt/xchem-fragalysis-2/maxwin/BulkDock/SCRATCH/511013/C35668-P56

>  <fragmenstein_runtime>  (796) 
8.362602472305298

>  <fragmenstein_outcome>  (796) 
too moved

>  <fragmenstein_mode>  (796) 
expansion

>  <fragmenstein_error>  (796) 


$$$$
C35679-P13
     RDKit          3D

 43 46  0  0  0  0  0  0  0  0999 V2000
    2.9864   -3.3728   36.4905 O   0  0  0  0  0  0  0  0  0  0  0  0
    2.8062   -3.3657   35.3364 C   0  0  0  0  0  0  0  0  0  0  0  0
    2.8444   -2.0809   34.5091 C   0  0  0  0  0  0  0  0  0  0  0  0
    1.5077   -1.7806   33.9125 C   0  0  0  0  0  0  0  0  0  0  0  0
    0.2785   -1.9009   34.5315 C   0  0  0  0  0  0  0  0  0  0  0  0
   -0.9644   -1.5404   33.4086 S   0  0  0  0  0  0  0  0  0  0  0  0
    0.2093   -1.1926   32.1515 C   0  0  0  0  0  0  0  0  0  0  0  0
   -0.2242   -0.7831   30.7644 C   0  0  0  0  0  0  0  0  0  0  0  0
   -0.9310   -1.6950   29.9414 C   0  0  0  0  0  0  0  0  0  0  0  0
   -1.4702   -1.3162   28.6955 C   0  0  0  0  0  0  0  0  0  0  0  0
   -1.3118   -0.0161   28.2799 C   0  0  0  0  0  0  0  0  0  0  0  0
   -0.5702    0.8698   29.0189 C   0  0  0  0  0  0  0  0  0  0  0  0
    0.0029    0.5142   30.2445 C   0  0  0  0  0  0  0  0  0  0  0  0
   -0.5476    2.1060   28.4385 O   0  0  0  0  0  0  0  0  0  0  0  0
   -1.4801    1.9204   27.3442 C   0  0  0  0  0  0  0  0  0  0  0  0
   -1.8700    0.5463   27.1749 O   0  0  0  0  0  0  0  0  0  0  0  0
    1.4550   -1.3652   32.5645 N   0  0  0  0  0  0  0  0  0  0  0  0
    2.4230   -4.5211   34.3704 N   0  0  0  0  0  0  0  0  0  0  0  0
    2.2772   -5.9338   34.6134 C   0  0  0  0  0  0  0  0  0  0  0  0
    0.8051   -6.3503   34.7379 C   0  0  0  0  0  0  0  0  0  0  0  0
    0.0971   -6.7478   33.4630 C   0  0  0  0  0  0  0  0  0  0  0  0
    0.4606   -6.3202   32.1876 C   0  0  0  0  0  0  0  0  0  0  0  0
   -0.2501   -6.7910   31.0884 C   0  0  0  0  0  0  0  0  0  0  0  0
   -1.2905   -7.6447   31.1600 N   0  0  0  0  0  0  0  0  0  0  0  0
   -1.6433   -8.0152   32.4038 C   0  0  0  0  0  0  0  0  0  0  0  0
   -1.0120   -7.5858   33.5609 C   0  0  0  0  0  0  0  0  0  0  0  0
    3.6088   -2.1892   33.7316 H   0  0  0  0  0  0  0  0  0  0  0  0
    3.1507   -1.2533   35.1588 H   0  0  0  0  0  0  0  0  0  0  0  0
    0.0522   -2.2006   35.5459 H   0  0  0  0  0  0  0  0  0  0  0  0
   -1.0988   -2.7157   30.2812 H   0  0  0  0  0  0  0  0  0  0  0  0
   -2.0333   -2.0161   28.0877 H   0  0  0  0  0  0  0  0  0  0  0  0
    0.5571    1.2510   30.8176 H   0  0  0  0  0  0  0  0  0  0  0  0
   -1.0031    2.2675   26.4212 H   0  0  0  0  0  0  0  0  0  0  0  0
   -2.3730    2.5280   27.5325 H   0  0  0  0  0  0  0  0  0  0  0  0
    2.4272   -4.1794   33.4136 H   0  0  0  0  0  0  0  0  0  0  0  0
    2.7807   -6.1328   35.5658 H   0  0  0  0  0  0  0  0  0  0  0  0
    2.8065   -6.4799   33.8278 H   0  0  0  0  0  0  0  0  0  0  0  0
    0.7859   -7.2258   35.4014 H   0  0  0  0  0  0  0  0  0  0  0  0
    0.2233   -5.5599   35.2287 H   0  0  0  0  0  0  0  0  0  0  0  0
    1.2828   -5.6359   32.0184 H   0  0  0  0  0  0  0  0  0  0  0  0
    0.0170   -6.4662   30.0891 H   0  0  0  0  0  0  0  0  0  0  0  0
   -2.4930   -8.6797   32.4598 H   0  0  0  0  0  0  0  0  0  0  0  0
   -1.3719   -7.9275   34.5264 H   0  0  0  0  0  0  0  0  0  0  0  0
  1  2  2  0
  2  3  1  0
  3  4  1  0
  4  5  2  0
  5  6  1  0
  6  7  1  0
  7  8  1  0
  8  9  2  0
  9 10  1  0
 10 11  2  0
 11 12  1  0
 12 13  2  0
 12 14  1  0
 14 15  1  0
 15 16  1  0
  7 17  2  0
  2 18  1  0
 18 19  1  0
 19 20  1  0
 20 21  1  0
 21 22  2  0
 22 23  1  0
 23 24  2  0
 24 25  1  0
 25 26  2  0
 17  4  1  0
 26 21  1  0
 13  8  1  0
 16 11  1  0
  3 27  1  0
  3 28  1  0
  5 29  1  0
  9 30  1  0
 10 31  1  0
 13 32  1  0
 15 33  1  0
 15 34  1  0
 18 35  1  0
 19 36  1  0
 19 37  1  0
 20 38  1  0
 20 39  1  0
 22 40  1  0
 23 41  1  0
 25 42  1  0
 26 43  1  0
M  END
>  <Energy>  (797) 
81.34063416599345

>  <compound_id>  (797) 
35679

>  <target_id>  (797) 
1

>  <reference_id>  (797) 
13

>  <inspiration_ids>  (797) 
[13, 56]

>  <energy_score>  (797) 
-70.69586473890837

>  <distance_score>  (797) 
2.3624071244678344

>  <path>  (797) 
/opt/xchem-fragalysis-2/maxwin/BulkDock/SCRATCH/511013/C35679-P13/C35679-P13.minimised.mol

>  <scratch_subdir>  (797) 
/opt/xchem-fragalysis-2/maxwin/BulkDock/SCRATCH/511013/C35679-P13

>  <fragmenstein_runtime>  (797) 
4.0160980224609375

>  <fragmenstein_outcome>  (797) 
too moved

>  <fragmenstein_mode>  (797) 
expansion

>  <fragmenstein_error>  (797) 


$$$$
C35679-P56
     RDKit          3D

 43 46  0  0  0  0  0  0  0  0999 V2000
   -0.3662   -2.9791   37.5051 O   0  0  0  0  0  0  0  0  0  0  0  0
   -0.8519   -3.2048   36.4671 C   0  0  0  0  0  0  0  0  0  0  0  0
   -1.4478   -2.1022   35.5909 C   0  0  0  0  0  0  0  0  0  0  0  0
   -0.5160   -1.7417   34.4785 C   0  0  0  0  0  0  0  0  0  0  0  0
    0.8597   -1.7053   34.5435 C   0  0  0  0  0  0  0  0  0  0  0  0
    1.4859   -1.2095   33.0312 S   0  0  0  0  0  0  0  0  0  0  0  0
   -0.1003   -1.0598   32.3527 C   0  0  0  0  0  0  0  0  0  0  0  0
   -0.3457   -0.6739   30.9129 C   0  0  0  0  0  0  0  0  0  0  0  0
   -0.8748   -1.6430   30.0232 C   0  0  0  0  0  0  0  0  0  0  0  0
   -1.3479   -1.3059   28.7389 C   0  0  0  0  0  0  0  0  0  0  0  0
   -1.3045    0.0133   28.3516 C   0  0  0  0  0  0  0  0  0  0  0  0
   -0.7462    0.9654   29.1681 C   0  0  0  0  0  0  0  0  0  0  0  0
   -0.2451    0.6549   30.4365 C   0  0  0  0  0  0  0  0  0  0  0  0
   -0.8195    2.2087   28.6094 O   0  0  0  0  0  0  0  0  0  0  0  0
   -1.5984    1.9405   27.4201 C   0  0  0  0  0  0  0  0  0  0  0  0
   -1.8210    0.5328   27.2042 O   0  0  0  0  0  0  0  0  0  0  0  0
   -1.0514   -1.3811   33.2205 N   0  0  0  0  0  0  0  0  0  0  0  0
   -0.9442   -4.5306   35.6680 N   0  0  0  0  0  0  0  0  0  0  0  0
   -0.5433   -5.8630   36.0231 C   0  0  0  0  0  0  0  0  0  0  0  0
    0.3077   -6.5261   34.9392 C   0  0  0  0  0  0  0  0  0  0  0  0
   -0.4595   -7.0582   33.7489 C   0  0  0  0  0  0  0  0  0  0  0  0
   -0.1235   -6.6441   32.4565 C   0  0  0  0  0  0  0  0  0  0  0  0
   -0.7747   -7.2154   31.3731 C   0  0  0  0  0  0  0  0  0  0  0  0
   -1.7539   -8.1414   31.4828 N   0  0  0  0  0  0  0  0  0  0  0  0
   -2.0519   -8.5390   32.7406 C   0  0  0  0  0  0  0  0  0  0  0  0
   -1.4422   -8.0423   33.8858 C   0  0  0  0  0  0  0  0  0  0  0  0
   -1.6169   -1.2208   36.2209 H   0  0  0  0  0  0  0  0  0  0  0  0
   -2.4265   -2.4036   35.2115 H   0  0  0  0  0  0  0  0  0  0  0  0
    1.5099   -1.9324   35.3784 H   0  0  0  0  0  0  0  0  0  0  0  0
   -0.9742   -2.6749   30.3573 H   0  0  0  0  0  0  0  0  0  0  0  0
   -1.7842   -2.0583   28.0917 H   0  0  0  0  0  0  0  0  0  0  0  0
    0.1352    1.4458   31.0751 H   0  0  0  0  0  0  0  0  0  0  0  0
   -1.0634    2.3469   26.5548 H   0  0  0  0  0  0  0  0  0  0  0  0
   -2.5670    2.4463   27.5083 H   0  0  0  0  0  0  0  0  0  0  0  0
   -1.5145   -4.3858   34.8289 H   0  0  0  0  0  0  0  0  0  0  0  0
    0.0341   -5.7813   36.9485 H   0  0  0  0  0  0  0  0  0  0  0  0
   -1.4455   -6.4358   36.2429 H   0  0  0  0  0  0  0  0  0  0  0  0
    1.0807   -5.8222   34.6046 H   0  0  0  0  0  0  0  0  0  0  0  0
    0.8422   -7.3712   35.3846 H   0  0  0  0  0  0  0  0  0  0  0  0
    0.6727   -5.9252   32.2859 H   0  0  0  0  0  0  0  0  0  0  0  0
   -0.4964   -6.9448   30.3578 H   0  0  0  0  0  0  0  0  0  0  0  0
   -2.8244   -9.2983   32.8114 H   0  0  0  0  0  0  0  0  0  0  0  0
   -1.7207   -8.4439   34.8557 H   0  0  0  0  0  0  0  0  0  0  0  0
  1  2  2  0
  2  3  1  0
  3  4  1  0
  4  5  2  0
  5  6  1  0
  6  7  1  0
  7  8  1  0
  8  9  2  0
  9 10  1  0
 10 11  2  0
 11 12  1  0
 12 13  2  0
 12 14  1  0
 14 15  1  0
 15 16  1  0
  7 17  2  0
  2 18  1  0
 18 19  1  0
 19 20  1  0
 20 21  1  0
 21 22  2  0
 22 23  1  0
 23 24  2  0
 24 25  1  0
 25 26  2  0
 17  4  1  0
 26 21  1  0
 13  8  1  0
 16 11  1  0
  3 27  1  0
  3 28  1  0
  5 29  1  0
  9 30  1  0
 10 31  1  0
 13 32  1  0
 15 33  1  0
 15 34  1  0
 18 35  1  0
 19 36  1  0
 19 37  1  0
 20 38  1  0
 20 39  1  0
 22 40  1  0
 23 41  1  0
 25 42  1  0
 26 43  1  0
M  END
>  <Energy>  (798) 
80.372387734585189

>  <compound_id>  (798) 
35679

>  <target_id>  (798) 
1

>  <reference_id>  (798) 
56

>  <inspiration_ids>  (798) 
[13, 56]

>  <energy_score>  (798) 
-71.66411117031555

>  <distance_score>  (798) 
2.645749092831764

>  <path>  (798) 
/opt/xchem-fragalysis-2/maxwin/BulkDock/SCRATCH/511013/C35679-P56/C35679-P56.minimised.mol

>  <scratch_subdir>  (798) 
/opt/xchem-fragalysis-2/maxwin/BulkDock/SCRATCH/511013/C35679-P56

>  <fragmenstein_runtime>  (798) 
4.54933762550354

>  <fragmenstein_outcome>  (798) 
too moved

>  <fragmenstein_mode>  (798) 
expansion

>  <fragmenstein_error>  (798) 


$$$$
C35685-P13
     RDKit          3D

 36 39  0  0  0  0  0  0  0  0999 V2000
    2.2657   -6.5736   33.8697 O   0  0  0  0  0  0  0  0  0  0  0  0
    1.1512   -6.4475   34.2124 C   0  0  0  0  0  0  0  0  0  0  0  0
    0.5507   -5.7480   35.4865 N   0  0  0  0  0  0  0  0  0  0  0  0
    1.1718   -5.0192   36.4894 C   0  0  0  0  0  0  0  0  0  0  0  0
    2.5125   -4.6173   36.3902 C   0  0  0  0  0  0  0  0  0  0  0  0
    3.0648   -3.7661   37.3541 C   0  0  0  0  0  0  0  0  0  0  0  0
    2.2567   -3.3566   38.3931 C   0  0  0  0  0  0  0  0  0  0  0  0
    0.9473   -3.7592   38.4907 C   0  0  0  0  0  0  0  0  0  0  0  0
    0.3711   -4.5842   37.5520 C   0  0  0  0  0  0  0  0  0  0  0  0
    0.3237   -3.2480   39.5845 O   0  0  0  0  0  0  0  0  0  0  0  0
    1.3968   -2.4829   40.1737 C   0  0  0  0  0  0  0  0  0  0  0  0
    2.6241   -2.5397   39.4155 O   0  0  0  0  0  0  0  0  0  0  0  0
   -0.0799   -6.8799   33.3832 C   0  0  0  0  0  0  0  0  0  0  0  0
   -0.8390   -5.6348   33.0041 C   0  0  0  0  0  0  0  0  0  0  0  0
   -0.4013   -5.4815   31.5942 C   0  0  0  0  0  0  0  0  0  0  0  0
   -0.5271   -4.1640   30.8889 C   0  0  0  0  0  0  0  0  0  0  0  0
   -1.2219   -3.1041   31.4724 C   0  0  0  0  0  0  0  0  0  0  0  0
   -1.2854   -1.9013   30.7857 C   0  0  0  0  0  0  0  0  0  0  0  0
   -0.7067   -1.6785   29.5923 N   0  0  0  0  0  0  0  0  0  0  0  0
   -0.0630   -2.7115   29.0279 C   0  0  0  0  0  0  0  0  0  0  0  0
    0.0570   -3.9523   29.6364 C   0  0  0  0  0  0  0  0  0  0  0  0
    0.0648   -6.5794   31.0897 N   0  0  0  0  0  0  0  0  0  0  0  0
    0.1192   -7.5397   32.1447 O   0  0  0  0  0  0  0  0  0  0  0  0
   -0.4518   -5.8944   35.5136 H   0  0  0  0  0  0  0  0  0  0  0  0
    3.1331   -4.9355   35.5566 H   0  0  0  0  0  0  0  0  0  0  0  0
    4.0967   -3.4395   37.2876 H   0  0  0  0  0  0  0  0  0  0  0  0
   -0.6710   -4.8657   37.6499 H   0  0  0  0  0  0  0  0  0  0  0  0
    1.5891   -2.8670   41.1822 H   0  0  0  0  0  0  0  0  0  0  0  0
    1.0801   -1.4363   40.2497 H   0  0  0  0  0  0  0  0  0  0  0  0
   -0.6829   -7.5383   34.0191 H   0  0  0  0  0  0  0  0  0  0  0  0
   -0.6408   -4.7446   33.6012 H   0  0  0  0  0  0  0  0  0  0  0  0
   -1.8929   -5.8673   33.0267 H   0  0  0  0  0  0  0  0  0  0  0  0
   -1.7123   -3.1729   32.4361 H   0  0  0  0  0  0  0  0  0  0  0  0
   -1.8177   -1.0482   31.1989 H   0  0  0  0  0  0  0  0  0  0  0  0
    0.3725   -2.5089   28.0553 H   0  0  0  0  0  0  0  0  0  0  0  0
    0.6223   -4.7379   29.1519 H   0  0  0  0  0  0  0  0  0  0  0  0
  1  2  2  0
  2  3  1  0
  3  4  1  0
  4  5  2  0
  5  6  1  0
  6  7  2  0
  7  8  1  0
  8  9  2  0
  8 10  1  0
 10 11  1  0
 11 12  1  0
  2 13  1  0
 13 14  1  0
 14 15  1  0
 15 16  1  0
 16 17  2  0
 17 18  1  0
 18 19  2  0
 19 20  1  0
 20 21  2  0
 15 22  2  0
 22 23  1  0
  9  4  1  0
 23 13  1  0
 12  7  1  0
 21 16  1  0
  3 24  1  0
  5 25  1  0
  6 26  1  0
  9 27  1  0
 11 28  1  0
 11 29  1  0
 13 30  1  0
 14 31  1  0
 14 32  1  0
 17 33  1  0
 18 34  1  0
 20 35  1  0
 21 36  1  0
M  END
>  <Energy>  (799) 
68.200045019303147

>  <compound_id>  (799) 
35685

>  <target_id>  (799) 
1

>  <reference_id>  (799) 
13

>  <inspiration_ids>  (799) 
[13, 56]

>  <energy_score>  (799) 
-28.595913268490193

>  <distance_score>  (799) 
1.7601605333042192

>  <path>  (799) 
/opt/xchem-fragalysis-2/maxwin/BulkDock/SCRATCH/511013/C35685-P13/C35685-P13.minimised.mol

>  <scratch_subdir>  (799) 
/opt/xchem-fragalysis-2/maxwin/BulkDock/SCRATCH/511013/C35685-P13

>  <fragmenstein_runtime>  (799) 
22.114704132080078

>  <fragmenstein_outcome>  (799) 
too moved

>  <fragmenstein_mode>  (799) 
expansion

>  <fragmenstein_error>  (799) 


$$$$
C35685-P56
     RDKit          3D

 36 39  0  0  0  0  0  0  0  0999 V2000
    0.9711   -7.2506   35.1912 O   0  0  0  0  0  0  0  0  0  0  0  0
    0.2151   -6.4240   34.8488 C   0  0  0  0  0  0  0  0  0  0  0  0
   -0.1901   -5.0666   35.5351 N   0  0  0  0  0  0  0  0  0  0  0  0
    0.3037   -4.4554   36.6665 C   0  0  0  0  0  0  0  0  0  0  0  0
    1.6747   -4.1399   36.6755 C   0  0  0  0  0  0  0  0  0  0  0  0
    2.2027   -3.3041   37.6619 C   0  0  0  0  0  0  0  0  0  0  0  0
    1.3519   -2.8708   38.6480 C   0  0  0  0  0  0  0  0  0  0  0  0
    0.0150   -3.1942   38.6347 C   0  0  0  0  0  0  0  0  0  0  0  0
   -0.5543   -3.9442   37.6286 C   0  0  0  0  0  0  0  0  0  0  0  0
   -0.6509   -2.6749   39.6998 O   0  0  0  0  0  0  0  0  0  0  0  0
    0.4220   -2.0048   40.3927 C   0  0  0  0  0  0  0  0  0  0  0  0
    1.6903   -2.0987   39.7143 O   0  0  0  0  0  0  0  0  0  0  0  0
   -0.5501   -6.3994   33.5056 C   0  0  0  0  0  0  0  0  0  0  0  0
    0.2488   -5.3783   32.7201 C   0  0  0  0  0  0  0  0  0  0  0  0
   -0.5073   -5.4853   31.4602 C   0  0  0  0  0  0  0  0  0  0  0  0
   -0.5848   -4.2597   30.6260 C   0  0  0  0  0  0  0  0  0  0  0  0
   -1.0548   -3.0900   31.2315 C   0  0  0  0  0  0  0  0  0  0  0  0
   -1.0088   -1.9130   30.5075 C   0  0  0  0  0  0  0  0  0  0  0  0
   -0.5152   -1.8211   29.2610 N   0  0  0  0  0  0  0  0  0  0  0  0
   -0.0906   -2.9628   28.6876 C   0  0  0  0  0  0  0  0  0  0  0  0
   -0.1298   -4.2011   29.3129 C   0  0  0  0  0  0  0  0  0  0  0  0
   -1.0440   -6.6589   31.2908 N   0  0  0  0  0  0  0  0  0  0  0  0
   -0.7383   -7.3919   32.5165 O   0  0  0  0  0  0  0  0  0  0  0  0
   -0.9389   -4.6272   35.0059 H   0  0  0  0  0  0  0  0  0  0  0  0
    2.3392   -4.5156   35.8997 H   0  0  0  0  0  0  0  0  0  0  0  0
    3.2553   -3.0479   37.6711 H   0  0  0  0  0  0  0  0  0  0  0  0
   -1.6168   -4.1428   37.6231 H   0  0  0  0  0  0  0  0  0  0  0  0
    0.5239   -2.4451   41.3915 H   0  0  0  0  0  0  0  0  0  0  0  0
    0.1606   -0.9459   40.5010 H   0  0  0  0  0  0  0  0  0  0  0  0
   -1.5604   -6.0603   33.7362 H   0  0  0  0  0  0  0  0  0  0  0  0
    1.2786   -5.7056   32.5329 H   0  0  0  0  0  0  0  0  0  0  0  0
    0.2688   -4.3740   33.1451 H   0  0  0  0  0  0  0  0  0  0  0  0
   -1.4358   -3.0755   32.2467 H   0  0  0  0  0  0  0  0  0  0  0  0
   -1.3581   -0.9762   30.9331 H   0  0  0  0  0  0  0  0  0  0  0  0
    0.3163   -2.8491   27.6890 H   0  0  0  0  0  0  0  0  0  0  0  0
    0.2276   -5.0887   28.8067 H   0  0  0  0  0  0  0  0  0  0  0  0
  1  2  2  0
  2  3  1  0
  3  4  1  0
  4  5  2  0
  5  6  1  0
  6  7  2  0
  7  8  1  0
  8  9  2  0
  8 10  1  0
 10 11  1  0
 11 12  1  0
  2 13  1  0
 13 14  1  0
 14 15  1  0
 15 16  1  0
 16 17  2  0
 17 18  1  0
 18 19  2  0
 19 20  1  0
 20 21  2  0
 15 22  2  0
 22 23  1  0
  9  4  1  0
 23 13  1  0
 12  7  1  0
 21 16  1  0
  3 24  1  0
  5 25  1  0
  6 26  1  0
  9 27  1  0
 11 28  1  0
 11 29  1  0
 13 30  1  0
 14 31  1  0
 14 32  1  0
 17 33  1  0
 18 34  1  0
 20 35  1  0
 21 36  1  0
M  END
>  <Energy>  (800) 
97.791380470844203

>  <compound_id>  (800) 
35685

>  <target_id>  (800) 
1

>  <reference_id>  (800) 
56

>  <inspiration_ids>  (800) 
[13, 56]

>  <energy_score>  (800) 
0.9954221830515166

>  <distance_score>  (800) 
1.6385718927993123

>  <path>  (800) 
/opt/xchem-fragalysis-2/maxwin/BulkDock/SCRATCH/511013/C35685-P56/C35685-P56.minimised.mol

>  <scratch_subdir>  (800) 
/opt/xchem-fragalysis-2/maxwin/BulkDock/SCRATCH/511013/C35685-P56

>  <fragmenstein_runtime>  (800) 
21.563798189163208

>  <fragmenstein_outcome>  (800) 
too moved

>  <fragmenstein_mode>  (800) 
expansion

>  <fragmenstein_error>  (800) 


$$$$
C35688-P13
     RDKit          3D

 34 36  0  0  0  0  0  0  0  0999 V2000
    2.5513   -2.7933   33.9562 C   0  0  0  0  0  0  0  0  0  0  0  0
    3.4120   -3.9236   34.1568 O   0  0  0  0  0  0  0  0  0  0  0  0
    3.5150   -4.5538   35.3562 C   0  0  0  0  0  0  0  0  0  0  0  0
    4.4871   -5.2345   35.6613 O   0  0  0  0  0  0  0  0  0  0  0  0
    2.4524   -4.3073   36.3523 C   0  0  0  0  0  0  0  0  0  0  0  0
    2.8848   -3.5985   37.4894 C   0  0  0  0  0  0  0  0  0  0  0  0
    1.9467   -3.2490   38.4318 C   0  0  0  0  0  0  0  0  0  0  0  0
    0.6218   -3.5645   38.2759 C   0  0  0  0  0  0  0  0  0  0  0  0
    0.1618   -4.2504   37.1722 C   0  0  0  0  0  0  0  0  0  0  0  0
    1.0900   -4.6631   36.1999 C   0  0  0  0  0  0  0  0  0  0  0  0
    0.5411   -5.4107   35.1528 N   0  0  0  0  0  0  0  0  0  0  0  0
    1.2181   -6.3322   34.1167 C   0  0  0  0  0  0  0  0  0  0  0  0
    2.3281   -6.6733   34.0204 O   0  0  0  0  0  0  0  0  0  0  0  0
    0.2347   -6.8155   33.1345 C   0  0  0  0  0  0  0  0  0  0  0  0
    0.4388   -6.5388   31.7916 C   0  0  0  0  0  0  0  0  0  0  0  0
   -0.4732   -7.0555   30.8960 C   0  0  0  0  0  0  0  0  0  0  0  0
   -1.5281   -7.8213   31.2392 N   0  0  0  0  0  0  0  0  0  0  0  0
   -1.6743   -8.0696   32.5548 C   0  0  0  0  0  0  0  0  0  0  0  0
   -0.8439   -7.5826   33.5435 C   0  0  0  0  0  0  0  0  0  0  0  0
   -0.1395   -3.1406   39.3185 O   0  0  0  0  0  0  0  0  0  0  0  0
    0.8637   -2.5323   40.1602 C   0  0  0  0  0  0  0  0  0  0  0  0
    2.1873   -2.5739   39.5859 O   0  0  0  0  0  0  0  0  0  0  0  0
    1.5457   -3.1316   33.6955 H   0  0  0  0  0  0  0  0  0  0  0  0
    2.9482   -2.2228   33.1116 H   0  0  0  0  0  0  0  0  0  0  0  0
    2.5353   -2.1340   34.8284 H   0  0  0  0  0  0  0  0  0  0  0  0
    3.9294   -3.3324   37.6240 H   0  0  0  0  0  0  0  0  0  0  0  0
   -0.8940   -4.4906   37.0993 H   0  0  0  0  0  0  0  0  0  0  0  0
   -0.4607   -5.3928   34.9874 H   0  0  0  0  0  0  0  0  0  0  0  0
    1.2856   -5.9522   31.4521 H   0  0  0  0  0  0  0  0  0  0  0  0
   -0.3812   -6.8486   29.8419 H   0  0  0  0  0  0  0  0  0  0  0  0
   -2.5160   -8.6962   32.8086 H   0  0  0  0  0  0  0  0  0  0  0  0
   -1.0041   -7.8488   34.5819 H   0  0  0  0  0  0  0  0  0  0  0  0
    0.5889   -1.4854   40.3323 H   0  0  0  0  0  0  0  0  0  0  0  0
    0.8806   -3.0564   41.1228 H   0  0  0  0  0  0  0  0  0  0  0  0
  1  2  1  0
  2  3  1  0
  3  4  2  0
  3  5  1  0
  5  6  2  0
  6  7  1  0
  7  8  2  0
  8  9  1  0
  9 10  2  0
 10 11  1  0
 11 12  1  0
 12 13  2  0
 12 14  1  0
 14 15  2  0
 15 16  1  0
 16 17  2  0
 17 18  1  0
 18 19  2  0
  8 20  1  0
 20 21  1  0
 21 22  1  0
 10  5  1  0
 19 14  1  0
 22  7  1  0
  1 23  1  0
  1 24  1  0
  1 25  1  0
  6 26  1  0
  9 27  1  0
 11 28  1  0
 15 29  1  0
 16 30  1  0
 18 31  1  0
 19 32  1  0
 21 33  1  0
 21 34  1  0
M  END
>  <Energy>  (801) 
67.610301311138883

>  <compound_id>  (801) 
35688

>  <target_id>  (801) 
1

>  <reference_id>  (801) 
13

>  <inspiration_ids>  (801) 
[13, 56]

>  <energy_score>  (801) 
-9.390256413936186

>  <distance_score>  (801) 
2.2530157700372135

>  <path>  (801) 
/opt/xchem-fragalysis-2/maxwin/BulkDock/SCRATCH/511013/C35688-P13/C35688-P13.minimised.mol

>  <scratch_subdir>  (801) 
/opt/xchem-fragalysis-2/maxwin/BulkDock/SCRATCH/511013/C35688-P13

>  <fragmenstein_runtime>  (801) 
9.740368127822876

>  <fragmenstein_outcome>  (801) 
too moved

>  <fragmenstein_mode>  (801) 
expansion

>  <fragmenstein_error>  (801) 


$$$$
C35688-P56
     RDKit          3D

 34 36  0  0  0  0  0  0  0  0999 V2000
    3.3080   -4.7044   32.5784 C   0  0  0  0  0  0  0  0  0  0  0  0
    2.4882   -4.6412   33.7468 O   0  0  0  0  0  0  0  0  0  0  0  0
    2.9458   -3.7854   34.6981 C   0  0  0  0  0  0  0  0  0  0  0  0
    3.9262   -3.0663   34.5673 O   0  0  0  0  0  0  0  0  0  0  0  0
    2.0854   -3.7956   35.9217 C   0  0  0  0  0  0  0  0  0  0  0  0
    2.4829   -2.9076   36.9409 C   0  0  0  0  0  0  0  0  0  0  0  0
    1.7406   -2.8622   38.0993 C   0  0  0  0  0  0  0  0  0  0  0  0
    0.6270   -3.6435   38.2715 C   0  0  0  0  0  0  0  0  0  0  0  0
    0.1925   -4.5151   37.2971 C   0  0  0  0  0  0  0  0  0  0  0  0
    0.9322   -4.6115   36.1081 C   0  0  0  0  0  0  0  0  0  0  0  0
    0.5078   -5.5050   35.1196 N   0  0  0  0  0  0  0  0  0  0  0  0
   -0.6978   -6.4745   35.0916 C   0  0  0  0  0  0  0  0  0  0  0  0
   -1.4801   -6.7343   35.9199 O   0  0  0  0  0  0  0  0  0  0  0  0
   -0.8969   -7.1258   33.7563 C   0  0  0  0  0  0  0  0  0  0  0  0
   -0.4573   -6.5762   32.5505 C   0  0  0  0  0  0  0  0  0  0  0  0
   -0.7992   -7.2228   31.3750 C   0  0  0  0  0  0  0  0  0  0  0  0
   -1.5789   -8.3243   31.3224 N   0  0  0  0  0  0  0  0  0  0  0  0
   -1.9848   -8.8364   32.5035 C   0  0  0  0  0  0  0  0  0  0  0  0
   -1.6644   -8.2933   33.7298 C   0  0  0  0  0  0  0  0  0  0  0  0
    0.0388   -3.4509   39.4822 O   0  0  0  0  0  0  0  0  0  0  0  0
    0.9217   -2.4682   40.0582 C   0  0  0  0  0  0  0  0  0  0  0  0
    1.9933   -2.0723   39.1772 O   0  0  0  0  0  0  0  0  0  0  0  0
    4.2968   -5.1011   32.8280 H   0  0  0  0  0  0  0  0  0  0  0  0
    3.3900   -3.7189   32.1093 H   0  0  0  0  0  0  0  0  0  0  0  0
    2.8307   -5.3829   31.8661 H   0  0  0  0  0  0  0  0  0  0  0  0
    3.3644   -2.2829   36.8364 H   0  0  0  0  0  0  0  0  0  0  0  0
   -0.6969   -5.1067   37.4794 H   0  0  0  0  0  0  0  0  0  0  0  0
    1.0273   -5.5847   34.2508 H   0  0  0  0  0  0  0  0  0  0  0  0
    0.1039   -5.6534   32.4878 H   0  0  0  0  0  0  0  0  0  0  0  0
   -0.4560   -6.8505   30.4124 H   0  0  0  0  0  0  0  0  0  0  0  0
   -2.6028   -9.7236   32.4322 H   0  0  0  0  0  0  0  0  0  0  0  0
   -2.0352   -8.7551   34.6418 H   0  0  0  0  0  0  0  0  0  0  0  0
    0.3355   -1.5791   40.3173 H   0  0  0  0  0  0  0  0  0  0  0  0
    1.3568   -2.8816   40.9756 H   0  0  0  0  0  0  0  0  0  0  0  0
  1  2  1  0
  2  3  1  0
  3  4  2  0
  3  5  1  0
  5  6  2  0
  6  7  1  0
  7  8  2  0
  8  9  1  0
  9 10  2  0
 10 11  1  0
 11 12  1  0
 12 13  2  0
 12 14  1  0
 14 15  2  0
 15 16  1  0
 16 17  2  0
 17 18  1  0
 18 19  2  0
  8 20  1  0
 20 21  1  0
 21 22  1  0
 10  5  1  0
 19 14  1  0
 22  7  1  0
  1 23  1  0
  1 24  1  0
  1 25  1  0
  6 26  1  0
  9 27  1  0
 11 28  1  0
 15 29  1  0
 16 30  1  0
 18 31  1  0
 19 32  1  0
 21 33  1  0
 21 34  1  0
M  END
>  <Energy>  (802) 
44.969750568994655

>  <compound_id>  (802) 
35688

>  <target_id>  (802) 
1

>  <reference_id>  (802) 
56

>  <inspiration_ids>  (802) 
[13, 56]

>  <energy_score>  (802) 
-32.03080715607975

>  <distance_score>  (802) 
2.438058431454366

>  <path>  (802) 
/opt/xchem-fragalysis-2/maxwin/BulkDock/SCRATCH/511013/C35688-P56/C35688-P56.minimised.mol

>  <scratch_subdir>  (802) 
/opt/xchem-fragalysis-2/maxwin/BulkDock/SCRATCH/511013/C35688-P56

>  <fragmenstein_runtime>  (802) 
10.015675783157349

>  <fragmenstein_outcome>  (802) 
too moved

>  <fragmenstein_mode>  (802) 
expansion

>  <fragmenstein_error>  (802) 


$$$$
C35695-P13
     RDKit          3D

 25 25  0  0  0  0  0  0  0  0999 V2000
    3.0688   -3.6900   34.3730 C   0  0  0  0  0  0  0  0  0  0  0  0
    2.1179   -3.8798   35.4714 N   0  0  0  0  0  0  0  0  0  0  0  0
    0.4746   -3.8568   35.0704 S   0  0  0  0  0  0  0  0  0  0  0  0
   -0.1207   -3.0290   36.0969 O   0  0  0  0  0  0  0  0  0  0  0  0
    0.3438   -3.5875   33.6533 O   0  0  0  0  0  0  0  0  0  0  0  0
   -0.0012   -5.5242   35.4513 C   0  0  0  0  0  0  0  0  0  0  0  0
    0.7249   -6.5783   34.6448 C   0  0  0  0  0  0  0  0  0  0  0  0
    0.0128   -6.9265   33.3714 C   0  0  0  0  0  0  0  0  0  0  0  0
    0.4745   -6.5128   32.1271 C   0  0  0  0  0  0  0  0  0  0  0  0
   -0.2170   -6.9182   30.9954 C   0  0  0  0  0  0  0  0  0  0  0  0
   -1.3117   -7.7066   31.0114 N   0  0  0  0  0  0  0  0  0  0  0  0
   -1.7485   -8.0601   32.2325 C   0  0  0  0  0  0  0  0  0  0  0  0
   -1.1485   -7.6859   33.4193 C   0  0  0  0  0  0  0  0  0  0  0  0
    4.0833   -3.8169   34.7626 H   0  0  0  0  0  0  0  0  0  0  0  0
    2.9193   -4.4260   33.5799 H   0  0  0  0  0  0  0  0  0  0  0  0
    2.9892   -2.6771   33.9689 H   0  0  0  0  0  0  0  0  0  0  0  0
    2.2671   -3.2544   36.2684 H   0  0  0  0  0  0  0  0  0  0  0  0
   -1.0898   -5.5775   35.3462 H   0  0  0  0  0  0  0  0  0  0  0  0
    0.2263   -5.6559   36.5161 H   0  0  0  0  0  0  0  0  0  0  0  0
    0.7829   -7.4984   35.2426 H   0  0  0  0  0  0  0  0  0  0  0  0
    1.7648   -6.3100   34.4364 H   0  0  0  0  0  0  0  0  0  0  0  0
    1.3484   -5.8788   32.0235 H   0  0  0  0  0  0  0  0  0  0  0  0
    0.1120   -6.5902   30.0177 H   0  0  0  0  0  0  0  0  0  0  0  0
   -2.6502   -8.6518   32.2403 H   0  0  0  0  0  0  0  0  0  0  0  0
   -1.5764   -8.0010   34.3642 H   0  0  0  0  0  0  0  0  0  0  0  0
  1  2  1  0
  2  3  1  0
  3  4  2  0
  3  5  2  0
  3  6  1  0
  6  7  1  0
  7  8  1  0
  8  9  2  0
  9 10  1  0
 10 11  2  0
 11 12  1  0
 12 13  2  0
 13  8  1  0
  1 14  1  0
  1 15  1  0
  1 16  1  0
  2 17  1  0
  6 18  1  0
  6 19  1  0
  7 20  1  0
  7 21  1  0
  9 22  1  0
 10 23  1  0
 12 24  1  0
 13 25  1  0
M  END
>  <Energy>  (803) 
-55.866400152476594

>  <compound_id>  (803) 
35695

>  <target_id>  (803) 
1

>  <reference_id>  (803) 
13

>  <inspiration_ids>  (803) 
[13, 56]

>  <energy_score>  (803) 
-26.849100017766148

>  <distance_score>  (803) 
1.056050735980342

>  <path>  (803) 
/opt/xchem-fragalysis-2/maxwin/BulkDock/SCRATCH/511013/C35695-P13/C35695-P13.minimised.mol

>  <scratch_subdir>  (803) 
/opt/xchem-fragalysis-2/maxwin/BulkDock/SCRATCH/511013/C35695-P13

>  <fragmenstein_runtime>  (803) 
1.8690409660339355

>  <fragmenstein_outcome>  (803) 
too moved

>  <fragmenstein_mode>  (803) 
expansion

>  <fragmenstein_error>  (803) 


$$$$
C35695-P56
     RDKit          3D

 25 25  0  0  0  0  0  0  0  0999 V2000
    3.0670   -4.2696   34.4332 C   0  0  0  0  0  0  0  0  0  0  0  0
    2.0773   -4.3359   35.5060 N   0  0  0  0  0  0  0  0  0  0  0  0
    0.4756   -4.0020   35.1204 S   0  0  0  0  0  0  0  0  0  0  0  0
    0.0486   -3.0590   36.1327 O   0  0  0  0  0  0  0  0  0  0  0  0
    0.3736   -3.7321   33.6996 O   0  0  0  0  0  0  0  0  0  0  0  0
   -0.2988   -5.5432   35.5373 C   0  0  0  0  0  0  0  0  0  0  0  0
    0.2840   -6.7614   34.8629 C   0  0  0  0  0  0  0  0  0  0  0  0
   -0.4725   -7.2231   33.6475 C   0  0  0  0  0  0  0  0  0  0  0  0
   -0.1285   -6.7579   32.3778 C   0  0  0  0  0  0  0  0  0  0  0  0
   -0.7997   -7.2637   31.2786 C   0  0  0  0  0  0  0  0  0  0  0  0
   -1.8004   -8.1700   31.3599 N   0  0  0  0  0  0  0  0  0  0  0  0
   -2.1232   -8.5967   32.6010 C   0  0  0  0  0  0  0  0  0  0  0  0
   -1.5005   -8.1621   33.7591 C   0  0  0  0  0  0  0  0  0  0  0  0
    4.0216   -4.6485   34.8101 H   0  0  0  0  0  0  0  0  0  0  0  0
    2.7755   -4.8875   33.5802 H   0  0  0  0  0  0  0  0  0  0  0  0
    3.2155   -3.2341   34.1156 H   0  0  0  0  0  0  0  0  0  0  0  0
    2.3696   -3.9165   36.3936 H   0  0  0  0  0  0  0  0  0  0  0  0
   -1.3694   -5.4429   35.3729 H   0  0  0  0  0  0  0  0  0  0  0  0
   -0.1589   -5.6387   36.6221 H   0  0  0  0  0  0  0  0  0  0  0  0
    0.2499   -7.5800   35.5902 H   0  0  0  0  0  0  0  0  0  0  0  0
    1.3425   -6.6421   34.6228 H   0  0  0  0  0  0  0  0  0  0  0  0
    0.6784   -6.0453   32.2347 H   0  0  0  0  0  0  0  0  0  0  0  0
   -0.5262   -6.9525   30.2737 H   0  0  0  0  0  0  0  0  0  0  0  0
   -2.9296   -9.3218   32.6436 H   0  0  0  0  0  0  0  0  0  0  0  0
   -1.8038   -8.5697   34.7190 H   0  0  0  0  0  0  0  0  0  0  0  0
  1  2  1  0
  2  3  1  0
  3  4  2  0
  3  5  2  0
  3  6  1  0
  6  7  1  0
  7  8  1  0
  8  9  2  0
  9 10  1  0
 10 11  2  0
 11 12  1  0
 12 13  2  0
 13  8  1  0
  1 14  1  0
  1 15  1  0
  1 16  1  0
  2 17  1  0
  6 18  1  0
  6 19  1  0
  7 20  1  0
  7 21  1  0
  9 22  1  0
 10 23  1  0
 12 24  1  0
 13 25  1  0
M  END
>  <Energy>  (804) 
-55.355227144040413

>  <compound_id>  (804) 
35695

>  <target_id>  (804) 
1

>  <reference_id>  (804) 
56

>  <inspiration_ids>  (804) 
[13, 56]

>  <energy_score>  (804) 
-26.337927009330436

>  <distance_score>  (804) 
1.0111630445291586

>  <path>  (804) 
/opt/xchem-fragalysis-2/maxwin/BulkDock/SCRATCH/511013/C35695-P56/C35695-P56.minimised.mol

>  <scratch_subdir>  (804) 
/opt/xchem-fragalysis-2/maxwin/BulkDock/SCRATCH/511013/C35695-P56

>  <fragmenstein_runtime>  (804) 
1.579709768295288

>  <fragmenstein_outcome>  (804) 
too moved

>  <fragmenstein_mode>  (804) 
expansion

>  <fragmenstein_error>  (804) 


$$$$
C35696-P13
     RDKit          3D

 25 25  0  0  0  0  0  0  0  0999 V2000
   -1.5378   -0.8918   31.8269 C   0  0  0  0  0  0  0  0  0  0  0  0
   -1.0926   -1.7320   33.0147 C   0  0  0  0  0  0  0  0  0  0  0  0
   -0.6339   -3.3971   32.5227 S   0  0  0  0  0  0  0  0  0  0  0  0
    0.6786   -3.3581   31.9117 O   0  0  0  0  0  0  0  0  0  0  0  0
   -1.7624   -3.9557   31.7982 O   0  0  0  0  0  0  0  0  0  0  0  0
   -0.5097   -4.2697   33.9970 N   0  0  0  0  0  0  0  0  0  0  0  0
   -0.3523   -5.7437   33.8062 C   0  0  0  0  0  0  0  0  0  0  0  0
    0.2879   -3.7684   35.0941 C   0  0  0  0  0  0  0  0  0  0  0  0
   -0.2803   -3.8296   36.3691 C   0  0  0  0  0  0  0  0  0  0  0  0
    0.5005   -3.4991   37.4637 C   0  0  0  0  0  0  0  0  0  0  0  0
    1.7966   -3.1393   37.3684 N   0  0  0  0  0  0  0  0  0  0  0  0
    2.3341   -3.1246   36.1282 C   0  0  0  0  0  0  0  0  0  0  0  0
    1.6334   -3.4423   34.9729 C   0  0  0  0  0  0  0  0  0  0  0  0
   -2.4213   -1.3232   31.3460 H   0  0  0  0  0  0  0  0  0  0  0  0
   -0.7449   -0.8253   31.0753 H   0  0  0  0  0  0  0  0  0  0  0  0
   -1.7879    0.1204   32.1554 H   0  0  0  0  0  0  0  0  0  0  0  0
   -1.9158   -1.8218   33.7301 H   0  0  0  0  0  0  0  0  0  0  0  0
   -0.2284   -1.2771   33.5060 H   0  0  0  0  0  0  0  0  0  0  0  0
   -1.1096   -6.1242   33.1147 H   0  0  0  0  0  0  0  0  0  0  0  0
   -0.4987   -6.2710   34.7550 H   0  0  0  0  0  0  0  0  0  0  0  0
    0.6432   -5.9804   33.4178 H   0  0  0  0  0  0  0  0  0  0  0  0
   -1.3139   -4.1307   36.5024 H   0  0  0  0  0  0  0  0  0  0  0  0
    0.0944   -3.5225   38.4710 H   0  0  0  0  0  0  0  0  0  0  0  0
    3.3853   -2.8522   36.0842 H   0  0  0  0  0  0  0  0  0  0  0  0
    2.1416   -3.4464   34.0155 H   0  0  0  0  0  0  0  0  0  0  0  0
  1  2  1  0
  2  3  1  0
  3  4  2  0
  3  5  2  0
  3  6  1  0
  6  7  1  0
  6  8  1  0
  8  9  2  0
  9 10  1  0
 10 11  2  0
 11 12  1  0
 12 13  2  0
 13  8  1  0
  1 14  1  0
  1 15  1  0
  1 16  1  0
  2 17  1  0
  2 18  1  0
  7 19  1  0
  7 20  1  0
  7 21  1  0
  9 22  1  0
 10 23  1  0
 12 24  1  0
 13 25  1  0
M  END
>  <Energy>  (805) 
-28.643988006153645

>  <compound_id>  (805) 
35696

>  <target_id>  (805) 
1

>  <reference_id>  (805) 
13

>  <inspiration_ids>  (805) 
[13, 56]

>  <energy_score>  (805) 
-19.298189933585945

>  <distance_score>  (805) 
1.2209697248703855

>  <path>  (805) 
/opt/xchem-fragalysis-2/maxwin/BulkDock/SCRATCH/511013/C35696-P13/C35696-P13.minimised.mol

>  <scratch_subdir>  (805) 
/opt/xchem-fragalysis-2/maxwin/BulkDock/SCRATCH/511013/C35696-P13

>  <fragmenstein_runtime>  (805) 
0.9027440547943115

>  <fragmenstein_outcome>  (805) 
too moved

>  <fragmenstein_mode>  (805) 
expansion

>  <fragmenstein_error>  (805) 


$$$$
C35696-P56
     RDKit          3D

 25 25  0  0  0  0  0  0  0  0999 V2000
   -1.5092   -0.8275   31.8882 C   0  0  0  0  0  0  0  0  0  0  0  0
   -1.0313   -1.7009   33.0409 C   0  0  0  0  0  0  0  0  0  0  0  0
   -0.5255   -3.3298   32.4791 S   0  0  0  0  0  0  0  0  0  0  0  0
    0.7798   -3.2139   31.8632 O   0  0  0  0  0  0  0  0  0  0  0  0
   -1.6442   -3.8767   31.7273 O   0  0  0  0  0  0  0  0  0  0  0  0
   -0.3619   -4.2633   33.9067 N   0  0  0  0  0  0  0  0  0  0  0  0
   -0.0886   -5.7082   33.6549 C   0  0  0  0  0  0  0  0  0  0  0  0
    0.3524   -3.7508   35.0509 C   0  0  0  0  0  0  0  0  0  0  0  0
   -0.3283   -3.7365   36.2697 C   0  0  0  0  0  0  0  0  0  0  0  0
    0.3563   -3.3507   37.4087 C   0  0  0  0  0  0  0  0  0  0  0  0
    1.6572   -3.0038   37.4084 N   0  0  0  0  0  0  0  0  0  0  0  0
    2.3117   -3.0963   36.2273 C   0  0  0  0  0  0  0  0  0  0  0  0
    1.7096   -3.4580   35.0300 C   0  0  0  0  0  0  0  0  0  0  0  0
   -2.3804   -1.2684   31.3937 H   0  0  0  0  0  0  0  0  0  0  0  0
   -0.7221   -0.7071   31.1371 H   0  0  0  0  0  0  0  0  0  0  0  0
   -1.7913    0.1641   32.2548 H   0  0  0  0  0  0  0  0  0  0  0  0
   -1.8479   -1.8433   33.7551 H   0  0  0  0  0  0  0  0  0  0  0  0
   -0.1784   -1.2394   33.5458 H   0  0  0  0  0  0  0  0  0  0  0  0
   -0.8302   -6.1189   32.9630 H   0  0  0  0  0  0  0  0  0  0  0  0
   -0.1668   -6.2823   34.5845 H   0  0  0  0  0  0  0  0  0  0  0  0
    0.9126   -5.8449   33.2360 H   0  0  0  0  0  0  0  0  0  0  0  0
   -1.3732   -4.0190   36.3238 H   0  0  0  0  0  0  0  0  0  0  0  0
   -0.1361   -3.3126   38.3756 H   0  0  0  0  0  0  0  0  0  0  0  0
    3.3753   -2.8776   36.2727 H   0  0  0  0  0  0  0  0  0  0  0  0
    2.2966   -3.5331   34.1217 H   0  0  0  0  0  0  0  0  0  0  0  0
  1  2  1  0
  2  3  1  0
  3  4  2  0
  3  5  2  0
  3  6  1  0
  6  7  1  0
  6  8  1  0
  8  9  2  0
  9 10  1  0
 10 11  2  0
 11 12  1  0
 12 13  2  0
 13  8  1  0
  1 14  1  0
  1 15  1  0
  1 16  1  0
  2 17  1  0
  2 18  1  0
  7 19  1  0
  7 20  1  0
  7 21  1  0
  9 22  1  0
 10 23  1  0
 12 24  1  0
 13 25  1  0
M  END
>  <Energy>  (806) 
-28.116526909159564

>  <compound_id>  (806) 
35696

>  <target_id>  (806) 
1

>  <reference_id>  (806) 
56

>  <inspiration_ids>  (806) 
[13, 56]

>  <energy_score>  (806) 
-18.77072883659247

>  <distance_score>  (806) 
1.2503446725701888

>  <path>  (806) 
/opt/xchem-fragalysis-2/maxwin/BulkDock/SCRATCH/511013/C35696-P56/C35696-P56.minimised.mol

>  <scratch_subdir>  (806) 
/opt/xchem-fragalysis-2/maxwin/BulkDock/SCRATCH/511013/C35696-P56

>  <fragmenstein_runtime>  (806) 
1.0930650234222412

>  <fragmenstein_outcome>  (806) 
too moved

>  <fragmenstein_mode>  (806) 
expansion

>  <fragmenstein_error>  (806) 


$$$$
C35699-P13
     RDKit          3D

 35 36  0  0  0  0  0  0  0  0999 V2000
    0.1982   -3.4708   34.4686 O   0  0  0  0  0  0  0  0  0  0  0  0
   -0.5424   -3.9204   35.6300 S   0  0  0  0  0  0  0  0  0  0  0  0
   -1.7229   -3.2496   36.1220 O   0  0  0  0  0  0  0  0  0  0  0  0
   -0.8245   -5.6650   35.5108 C   0  0  0  0  0  0  0  0  0  0  0  0
    0.2876   -6.4129   34.7936 C   0  0  0  0  0  0  0  0  0  0  0  0
   -0.1750   -6.8518   33.4337 C   0  0  0  0  0  0  0  0  0  0  0  0
    0.3857   -6.3798   32.2534 C   0  0  0  0  0  0  0  0  0  0  0  0
   -0.1431   -6.8263   31.0490 C   0  0  0  0  0  0  0  0  0  0  0  0
   -1.1745   -7.6940   30.9421 N   0  0  0  0  0  0  0  0  0  0  0  0
   -1.6980   -8.1162   32.1039 C   0  0  0  0  0  0  0  0  0  0  0  0
   -1.2463   -7.7307   33.3457 C   0  0  0  0  0  0  0  0  0  0  0  0
    0.4527   -4.0007   37.0122 N   0  0  0  0  0  0  0  0  0  0  0  0
    1.3659   -2.8771   37.2277 C   0  0  0  0  0  0  0  0  0  0  0  0
    2.7891   -3.4101   37.1873 C   0  0  0  0  0  0  0  0  0  0  0  0
    3.3298   -3.9114   35.8183 C   0  0  0  0  0  0  0  0  0  0  0  0
    4.0304   -2.5572   35.6377 C   0  0  0  0  0  0  0  0  0  0  0  0
    3.2927   -1.3416   34.5373 Cl  0  0  0  0  0  0  0  0  0  0  0  0
    3.8875   -2.3326   37.1570 C   0  0  0  0  0  0  0  0  0  0  0  0
   -0.9381   -6.0388   36.5352 H   0  0  0  0  0  0  0  0  0  0  0  0
   -1.7935   -5.7957   35.0397 H   0  0  0  0  0  0  0  0  0  0  0  0
    1.2179   -5.8454   34.7227 H   0  0  0  0  0  0  0  0  0  0  0  0
    0.5356   -7.3204   35.3601 H   0  0  0  0  0  0  0  0  0  0  0  0
    1.1995   -5.6615   32.2566 H   0  0  0  0  0  0  0  0  0  0  0  0
    0.2639   -6.4644   30.1108 H   0  0  0  0  0  0  0  0  0  0  0  0
   -2.5510   -8.7696   32.0237 H   0  0  0  0  0  0  0  0  0  0  0  0
   -1.7470   -8.0946   34.2349 H   0  0  0  0  0  0  0  0  0  0  0  0
   -0.1681   -4.1080   37.8211 H   0  0  0  0  0  0  0  0  0  0  0  0
    1.2040   -2.0809   36.4955 H   0  0  0  0  0  0  0  0  0  0  0  0
    1.1578   -2.4411   38.2117 H   0  0  0  0  0  0  0  0  0  0  0  0
    2.9441   -4.1408   37.9929 H   0  0  0  0  0  0  0  0  0  0  0  0
    4.0310   -4.7496   35.9148 H   0  0  0  0  0  0  0  0  0  0  0  0
    2.6064   -4.1671   35.0458 H   0  0  0  0  0  0  0  0  0  0  0  0
    5.0712   -2.6483   35.3090 H   0  0  0  0  0  0  0  0  0  0  0  0
    4.7865   -2.6138   37.7193 H   0  0  0  0  0  0  0  0  0  0  0  0
    3.5928   -1.3270   37.4717 H   0  0  0  0  0  0  0  0  0  0  0  0
  1  2  2  0
  2  3  2  0
  2  4  1  0
  4  5  1  0
  5  6  1  0
  6  7  2  0
  7  8  1  0
  8  9  2  0
  9 10  1  0
 10 11  2  0
  2 12  1  0
 12 13  1  0
 13 14  1  0
 14 15  1  0
 15 16  1  0
 16 17  1  0
 16 18  1  0
 11  6  1  0
 18 14  1  0
  4 19  1  0
  4 20  1  0
  5 21  1  0
  5 22  1  0
  7 23  1  0
  8 24  1  0
 10 25  1  0
 11 26  1  0
 12 27  1  0
 13 28  1  0
 13 29  1  0
 14 30  1  0
 15 31  1  0
 15 32  1  0
 16 33  1  0
 18 34  1  0
 18 35  1  0
M  END
>  <Energy>  (807) 
-35.510277793561229

>  <compound_id>  (807) 
35699

>  <target_id>  (807) 
1

>  <reference_id>  (807) 
13

>  <inspiration_ids>  (807) 
[13, 56]

>  <energy_score>  (807) 
-11.92721195254066

>  <distance_score>  (807) 
1.4306834292025934

>  <path>  (807) 
/opt/xchem-fragalysis-2/maxwin/BulkDock/SCRATCH/511013/C35699-P13/C35699-P13.minimised.mol

>  <scratch_subdir>  (807) 
/opt/xchem-fragalysis-2/maxwin/BulkDock/SCRATCH/511013/C35699-P13

>  <fragmenstein_runtime>  (807) 
12.979894161224365

>  <fragmenstein_outcome>  (807) 
too moved

>  <fragmenstein_mode>  (807) 
expansion

>  <fragmenstein_error>  (807) 


$$$$
C35699-P56
     RDKit          3D

 35 36  0  0  0  0  0  0  0  0999 V2000
    0.2411   -3.4549   34.2130 O   0  0  0  0  0  0  0  0  0  0  0  0
   -0.5367   -3.6640   35.4172 S   0  0  0  0  0  0  0  0  0  0  0  0
   -1.7671   -2.9388   35.6544 O   0  0  0  0  0  0  0  0  0  0  0  0
   -0.7493   -5.4272   35.7430 C   0  0  0  0  0  0  0  0  0  0  0  0
    0.1593   -6.3402   34.9293 C   0  0  0  0  0  0  0  0  0  0  0  0
   -0.5093   -6.9609   33.7261 C   0  0  0  0  0  0  0  0  0  0  0  0
   -0.1769   -6.5447   32.4357 C   0  0  0  0  0  0  0  0  0  0  0  0
   -0.7746   -7.1744   31.3532 C   0  0  0  0  0  0  0  0  0  0  0  0
   -1.6989   -8.1574   31.4636 N   0  0  0  0  0  0  0  0  0  0  0  0
   -2.0017   -8.5450   32.7223 C   0  0  0  0  0  0  0  0  0  0  0  0
   -1.4423   -7.9928   33.8669 C   0  0  0  0  0  0  0  0  0  0  0  0
    0.3265   -3.1802   36.7622 N   0  0  0  0  0  0  0  0  0  0  0  0
    1.5539   -3.7768   37.2338 C   0  0  0  0  0  0  0  0  0  0  0  0
    2.7985   -3.1138   36.6859 C   0  0  0  0  0  0  0  0  0  0  0  0
    3.3471   -3.6896   35.3444 C   0  0  0  0  0  0  0  0  0  0  0  0
    3.8526   -2.2701   35.0401 C   0  0  0  0  0  0  0  0  0  0  0  0
    3.9260   -1.7139   33.3441 Cl  0  0  0  0  0  0  0  0  0  0  0  0
    2.7348   -1.7420   35.9662 C   0  0  0  0  0  0  0  0  0  0  0  0
   -0.5561   -5.5663   36.8129 H   0  0  0  0  0  0  0  0  0  0  0  0
   -1.7989   -5.6830   35.6244 H   0  0  0  0  0  0  0  0  0  0  0  0
    1.0905   -5.8448   34.6384 H   0  0  0  0  0  0  0  0  0  0  0  0
    0.4725   -7.1725   35.5730 H   0  0  0  0  0  0  0  0  0  0  0  0
    0.5610   -5.7649   32.2671 H   0  0  0  0  0  0  0  0  0  0  0  0
   -0.5032   -6.8978   30.3373 H   0  0  0  0  0  0  0  0  0  0  0  0
   -2.7360   -9.3408   32.7939 H   0  0  0  0  0  0  0  0  0  0  0  0
   -1.7276   -8.3772   34.8415 H   0  0  0  0  0  0  0  0  0  0  0  0
   -0.2510   -2.6681   37.4297 H   0  0  0  0  0  0  0  0  0  0  0  0
    1.5503   -3.7015   38.3276 H   0  0  0  0  0  0  0  0  0  0  0  0
    1.5651   -4.8385   37.0019 H   0  0  0  0  0  0  0  0  0  0  0  0
    3.5784   -3.0956   37.4613 H   0  0  0  0  0  0  0  0  0  0  0  0
    4.1264   -4.4510   35.4331 H   0  0  0  0  0  0  0  0  0  0  0  0
    2.5926   -4.0555   34.6453 H   0  0  0  0  0  0  0  0  0  0  0  0
    4.8510   -2.0916   35.4615 H   0  0  0  0  0  0  0  0  0  0  0  0
    3.0026   -0.8761   36.5784 H   0  0  0  0  0  0  0  0  0  0  0  0
    1.8014   -1.5180   35.4399 H   0  0  0  0  0  0  0  0  0  0  0  0
  1  2  2  0
  2  3  2  0
  2  4  1  0
  4  5  1  0
  5  6  1  0
  6  7  2  0
  7  8  1  0
  8  9  2  0
  9 10  1  0
 10 11  2  0
  2 12  1  0
 12 13  1  0
 13 14  1  0
 14 15  1  0
 15 16  1  0
 16 17  1  0
 16 18  1  0
 11  6  1  0
 18 14  1  0
  4 19  1  0
  4 20  1  0
  5 21  1  0
  5 22  1  0
  7 23  1  0
  8 24  1  0
 10 25  1  0
 11 26  1  0
 12 27  1  0
 13 28  1  0
 13 29  1  0
 14 30  1  0
 15 31  1  0
 15 32  1  0
 16 33  1  0
 18 34  1  0
 18 35  1  0
M  END
>  <Energy>  (808) 
-33.462848470611512

>  <compound_id>  (808) 
35699

>  <target_id>  (808) 
1

>  <reference_id>  (808) 
56

>  <inspiration_ids>  (808) 
[13, 56]

>  <energy_score>  (808) 
-9.879782629590315

>  <distance_score>  (808) 
1.5249272591497214

>  <path>  (808) 
/opt/xchem-fragalysis-2/maxwin/BulkDock/SCRATCH/511013/C35699-P56/C35699-P56.minimised.mol

>  <scratch_subdir>  (808) 
/opt/xchem-fragalysis-2/maxwin/BulkDock/SCRATCH/511013/C35699-P56

>  <fragmenstein_runtime>  (808) 
13.027209997177124

>  <fragmenstein_outcome>  (808) 
too moved

>  <fragmenstein_mode>  (808) 
expansion

>  <fragmenstein_error>  (808) 


$$$$
C35699-P13
     RDKit          3D

 35 36  0  0  0  0  0  0  0  0999 V2000
    0.1982   -3.4708   34.4686 O   0  0  0  0  0  0  0  0  0  0  0  0
   -0.5424   -3.9204   35.6300 S   0  0  0  0  0  0  0  0  0  0  0  0
   -1.7229   -3.2496   36.1220 O   0  0  0  0  0  0  0  0  0  0  0  0
   -0.8245   -5.6650   35.5108 C   0  0  0  0  0  0  0  0  0  0  0  0
    0.2876   -6.4129   34.7936 C   0  0  0  0  0  0  0  0  0  0  0  0
   -0.1750   -6.8518   33.4337 C   0  0  0  0  0  0  0  0  0  0  0  0
    0.3857   -6.3798   32.2534 C   0  0  0  0  0  0  0  0  0  0  0  0
   -0.1431   -6.8263   31.0490 C   0  0  0  0  0  0  0  0  0  0  0  0
   -1.1745   -7.6940   30.9421 N   0  0  0  0  0  0  0  0  0  0  0  0
   -1.6980   -8.1162   32.1039 C   0  0  0  0  0  0  0  0  0  0  0  0
   -1.2463   -7.7307   33.3457 C   0  0  0  0  0  0  0  0  0  0  0  0
    0.4527   -4.0007   37.0122 N   0  0  0  0  0  0  0  0  0  0  0  0
    1.3659   -2.8771   37.2277 C   0  0  0  0  0  0  0  0  0  0  0  0
    2.7891   -3.4101   37.1873 C   0  0  0  0  0  0  0  0  0  0  0  0
    3.3298   -3.9114   35.8183 C   0  0  0  0  0  0  0  0  0  0  0  0
    4.0304   -2.5572   35.6377 C   0  0  0  0  0  0  0  0  0  0  0  0
    3.2927   -1.3416   34.5373 Cl  0  0  0  0  0  0  0  0  0  0  0  0
    3.8875   -2.3326   37.1570 C   0  0  0  0  0  0  0  0  0  0  0  0
   -0.9381   -6.0388   36.5352 H   0  0  0  0  0  0  0  0  0  0  0  0
   -1.7935   -5.7957   35.0397 H   0  0  0  0  0  0  0  0  0  0  0  0
    1.2179   -5.8454   34.7227 H   0  0  0  0  0  0  0  0  0  0  0  0
    0.5356   -7.3204   35.3601 H   0  0  0  0  0  0  0  0  0  0  0  0
    1.1995   -5.6615   32.2566 H   0  0  0  0  0  0  0  0  0  0  0  0
    0.2639   -6.4644   30.1108 H   0  0  0  0  0  0  0  0  0  0  0  0
   -2.5510   -8.7696   32.0237 H   0  0  0  0  0  0  0  0  0  0  0  0
   -1.7470   -8.0946   34.2349 H   0  0  0  0  0  0  0  0  0  0  0  0
   -0.1681   -4.1080   37.8211 H   0  0  0  0  0  0  0  0  0  0  0  0
    1.2040   -2.0809   36.4955 H   0  0  0  0  0  0  0  0  0  0  0  0
    1.1578   -2.4411   38.2117 H   0  0  0  0  0  0  0  0  0  0  0  0
    2.9441   -4.1408   37.9929 H   0  0  0  0  0  0  0  0  0  0  0  0
    4.0310   -4.7496   35.9148 H   0  0  0  0  0  0  0  0  0  0  0  0
    2.6064   -4.1671   35.0458 H   0  0  0  0  0  0  0  0  0  0  0  0
    5.0712   -2.6483   35.3090 H   0  0  0  0  0  0  0  0  0  0  0  0
    4.7865   -2.6138   37.7193 H   0  0  0  0  0  0  0  0  0  0  0  0
    3.5928   -1.3270   37.4717 H   0  0  0  0  0  0  0  0  0  0  0  0
  1  2  2  0
  2  3  2  0
  2  4  1  0
  4  5  1  0
  5  6  1  0
  6  7  2  0
  7  8  1  0
  8  9  2  0
  9 10  1  0
 10 11  2  0
  2 12  1  0
 12 13  1  0
 13 14  1  0
 14 15  1  0
 15 16  1  0
 16 17  1  0
 16 18  1  0
 11  6  1  0
 18 14  1  0
  4 19  1  0
  4 20  1  0
  5 21  1  0
  5 22  1  0
  7 23  1  0
  8 24  1  0
 10 25  1  0
 11 26  1  0
 12 27  1  0
 13 28  1  0
 13 29  1  0
 14 30  1  0
 15 31  1  0
 15 32  1  0
 16 33  1  0
 18 34  1  0
 18 35  1  0
M  END
>  <Energy>  (809) 
-35.510277793561229

>  <compound_id>  (809) 
35699

>  <target_id>  (809) 
1

>  <reference_id>  (809) 
13

>  <inspiration_ids>  (809) 
[13, 56]

>  <energy_score>  (809) 
-11.92721195254066

>  <distance_score>  (809) 
1.4306834292025934

>  <path>  (809) 
/opt/xchem-fragalysis-2/maxwin/BulkDock/SCRATCH/511013/C35699-P13/C35699-P13.minimised.mol

>  <scratch_subdir>  (809) 
/opt/xchem-fragalysis-2/maxwin/BulkDock/SCRATCH/511013/C35699-P13

>  <fragmenstein_runtime>  (809) 
13.365265846252441

>  <fragmenstein_outcome>  (809) 
too moved

>  <fragmenstein_mode>  (809) 
expansion

>  <fragmenstein_error>  (809) 


$$$$
C35699-P56
     RDKit          3D

 35 36  0  0  0  0  0  0  0  0999 V2000
    0.2411   -3.4549   34.2130 O   0  0  0  0  0  0  0  0  0  0  0  0
   -0.5367   -3.6640   35.4172 S   0  0  0  0  0  0  0  0  0  0  0  0
   -1.7671   -2.9388   35.6544 O   0  0  0  0  0  0  0  0  0  0  0  0
   -0.7493   -5.4272   35.7430 C   0  0  0  0  0  0  0  0  0  0  0  0
    0.1593   -6.3402   34.9293 C   0  0  0  0  0  0  0  0  0  0  0  0
   -0.5093   -6.9609   33.7261 C   0  0  0  0  0  0  0  0  0  0  0  0
   -0.1769   -6.5447   32.4357 C   0  0  0  0  0  0  0  0  0  0  0  0
   -0.7746   -7.1744   31.3532 C   0  0  0  0  0  0  0  0  0  0  0  0
   -1.6989   -8.1574   31.4636 N   0  0  0  0  0  0  0  0  0  0  0  0
   -2.0017   -8.5450   32.7223 C   0  0  0  0  0  0  0  0  0  0  0  0
   -1.4423   -7.9928   33.8669 C   0  0  0  0  0  0  0  0  0  0  0  0
    0.3265   -3.1802   36.7622 N   0  0  0  0  0  0  0  0  0  0  0  0
    1.5539   -3.7768   37.2338 C   0  0  0  0  0  0  0  0  0  0  0  0
    2.7985   -3.1138   36.6859 C   0  0  0  0  0  0  0  0  0  0  0  0
    3.3471   -3.6896   35.3444 C   0  0  0  0  0  0  0  0  0  0  0  0
    3.8526   -2.2701   35.0401 C   0  0  0  0  0  0  0  0  0  0  0  0
    3.9260   -1.7139   33.3441 Cl  0  0  0  0  0  0  0  0  0  0  0  0
    2.7348   -1.7420   35.9662 C   0  0  0  0  0  0  0  0  0  0  0  0
   -0.5561   -5.5663   36.8129 H   0  0  0  0  0  0  0  0  0  0  0  0
   -1.7989   -5.6830   35.6244 H   0  0  0  0  0  0  0  0  0  0  0  0
    1.0905   -5.8448   34.6384 H   0  0  0  0  0  0  0  0  0  0  0  0
    0.4725   -7.1725   35.5730 H   0  0  0  0  0  0  0  0  0  0  0  0
    0.5610   -5.7649   32.2671 H   0  0  0  0  0  0  0  0  0  0  0  0
   -0.5032   -6.8978   30.3373 H   0  0  0  0  0  0  0  0  0  0  0  0
   -2.7360   -9.3408   32.7939 H   0  0  0  0  0  0  0  0  0  0  0  0
   -1.7276   -8.3772   34.8415 H   0  0  0  0  0  0  0  0  0  0  0  0
   -0.2510   -2.6681   37.4297 H   0  0  0  0  0  0  0  0  0  0  0  0
    1.5503   -3.7015   38.3276 H   0  0  0  0  0  0  0  0  0  0  0  0
    1.5651   -4.8385   37.0019 H   0  0  0  0  0  0  0  0  0  0  0  0
    3.5784   -3.0956   37.4613 H   0  0  0  0  0  0  0  0  0  0  0  0
    4.1264   -4.4510   35.4331 H   0  0  0  0  0  0  0  0  0  0  0  0
    2.5926   -4.0555   34.6453 H   0  0  0  0  0  0  0  0  0  0  0  0
    4.8510   -2.0916   35.4615 H   0  0  0  0  0  0  0  0  0  0  0  0
    3.0026   -0.8761   36.5784 H   0  0  0  0  0  0  0  0  0  0  0  0
    1.8014   -1.5180   35.4399 H   0  0  0  0  0  0  0  0  0  0  0  0
  1  2  2  0
  2  3  2  0
  2  4  1  0
  4  5  1  0
  5  6  1  0
  6  7  2  0
  7  8  1  0
  8  9  2  0
  9 10  1  0
 10 11  2  0
  2 12  1  0
 12 13  1  0
 13 14  1  0
 14 15  1  0
 15 16  1  0
 16 17  1  0
 16 18  1  0
 11  6  1  0
 18 14  1  0
  4 19  1  0
  4 20  1  0
  5 21  1  0
  5 22  1  0
  7 23  1  0
  8 24  1  0
 10 25  1  0
 11 26  1  0
 12 27  1  0
 13 28  1  0
 13 29  1  0
 14 30  1  0
 15 31  1  0
 15 32  1  0
 16 33  1  0
 18 34  1  0
 18 35  1  0
M  END
>  <Energy>  (810) 
-33.462848470611512

>  <compound_id>  (810) 
35699

>  <target_id>  (810) 
1

>  <reference_id>  (810) 
56

>  <inspiration_ids>  (810) 
[13, 56]

>  <energy_score>  (810) 
-9.879782629590315

>  <distance_score>  (810) 
1.5249272591497214

>  <path>  (810) 
/opt/xchem-fragalysis-2/maxwin/BulkDock/SCRATCH/511013/C35699-P56/C35699-P56.minimised.mol

>  <scratch_subdir>  (810) 
/opt/xchem-fragalysis-2/maxwin/BulkDock/SCRATCH/511013/C35699-P56

>  <fragmenstein_runtime>  (810) 
13.312571048736572

>  <fragmenstein_outcome>  (810) 
too moved

>  <fragmenstein_mode>  (810) 
expansion

>  <fragmenstein_error>  (810) 


$$$$
C35707-P13
     RDKit          3D

 34 35  0  0  0  0  0  0  0  0999 V2000
    3.0514   -3.9830   34.8853 C   0  0  0  0  0  0  0  0  0  0  0  0
    1.8965   -3.6262   35.7236 N   0  0  0  0  0  0  0  0  0  0  0  0
    2.2712   -3.3799   37.1811 C   0  0  0  0  0  0  0  0  0  0  0  0
    1.3483   -2.5405   38.1025 C   0  0  0  0  0  0  0  0  0  0  0  0
    0.7383   -3.8070   38.5769 N   0  0  0  0  0  0  0  0  0  0  0  0
    1.9899   -4.4984   38.2266 C   0  0  0  0  0  0  0  0  0  0  0  0
    0.3388   -3.7535   35.0611 S   0  0  0  0  0  0  0  0  0  0  0  0
   -0.5402   -2.9203   35.8497 O   0  0  0  0  0  0  0  0  0  0  0  0
    0.4380   -3.5833   33.6213 O   0  0  0  0  0  0  0  0  0  0  0  0
   -0.1212   -5.4309   35.4319 C   0  0  0  0  0  0  0  0  0  0  0  0
    0.6556   -6.4892   34.6794 C   0  0  0  0  0  0  0  0  0  0  0  0
   -0.0118   -6.8893   33.3955 C   0  0  0  0  0  0  0  0  0  0  0  0
    0.4640   -6.4846   32.1532 C   0  0  0  0  0  0  0  0  0  0  0  0
   -0.2000   -6.9178   31.0145 C   0  0  0  0  0  0  0  0  0  0  0  0
   -1.2822   -7.7237   31.0222 N   0  0  0  0  0  0  0  0  0  0  0  0
   -1.7320   -8.0706   32.2405 C   0  0  0  0  0  0  0  0  0  0  0  0
   -1.1563   -7.6748   33.4327 C   0  0  0  0  0  0  0  0  0  0  0  0
    3.7490   -3.1404   34.8462 H   0  0  0  0  0  0  0  0  0  0  0  0
    3.5670   -4.8511   35.3073 H   0  0  0  0  0  0  0  0  0  0  0  0
    2.7780   -4.2223   33.8555 H   0  0  0  0  0  0  0  0  0  0  0  0
    3.3077   -3.0182   37.2250 H   0  0  0  0  0  0  0  0  0  0  0  0
    0.6671   -1.8297   37.6322 H   0  0  0  0  0  0  0  0  0  0  0  0
    1.8926   -2.0016   38.8896 H   0  0  0  0  0  0  0  0  0  0  0  0
    0.4766   -3.8126   39.5614 H   0  0  0  0  0  0  0  0  0  0  0  0
    1.8699   -5.5111   37.8338 H   0  0  0  0  0  0  0  0  0  0  0  0
    2.7200   -4.5320   39.0451 H   0  0  0  0  0  0  0  0  0  0  0  0
   -1.1987   -5.5000   35.2480 H   0  0  0  0  0  0  0  0  0  0  0  0
    0.0102   -5.5608   36.5082 H   0  0  0  0  0  0  0  0  0  0  0  0
    1.6930   -6.2061   34.4915 H   0  0  0  0  0  0  0  0  0  0  0  0
    0.7155   -7.3907   35.3047 H   0  0  0  0  0  0  0  0  0  0  0  0
    1.3233   -5.8292   32.0563 H   0  0  0  0  0  0  0  0  0  0  0  0
    0.1404   -6.5970   30.0379 H   0  0  0  0  0  0  0  0  0  0  0  0
   -2.6253   -8.6749   32.2419 H   0  0  0  0  0  0  0  0  0  0  0  0
   -1.5953   -7.9856   34.3741 H   0  0  0  0  0  0  0  0  0  0  0  0
  1  2  1  0
  2  3  1  0
  3  4  1  0
  4  5  1  0
  5  6  1  0
  2  7  1  0
  7  8  2  0
  7  9  2  0
  7 10  1  0
 10 11  1  0
 11 12  1  0
 12 13  2  0
 13 14  1  0
 14 15  2  0
 15 16  1  0
 16 17  2  0
  6  3  1  0
 17 12  1  0
  1 18  1  0
  1 19  1  0
  1 20  1  0
  3 21  1  0
  4 22  1  0
  4 23  1  0
  5 24  1  0
  6 25  1  0
  6 26  1  0
 10 27  1  0
 10 28  1  0
 11 29  1  0
 11 30  1  0
 13 31  1  0
 14 32  1  0
 16 33  1  0
 17 34  1  0
M  END
>  <Energy>  (811) 
-2.3683489103637019

>  <compound_id>  (811) 
35707

>  <target_id>  (811) 
1

>  <reference_id>  (811) 
13

>  <inspiration_ids>  (811) 
[13, 56]

>  <energy_score>  (811) 
-53.88466105327129

>  <distance_score>  (811) 
1.087024626279014

>  <path>  (811) 
/opt/xchem-fragalysis-2/maxwin/BulkDock/SCRATCH/511013/C35707-P13/C35707-P13.minimised.mol

>  <scratch_subdir>  (811) 
/opt/xchem-fragalysis-2/maxwin/BulkDock/SCRATCH/511013/C35707-P13

>  <fragmenstein_runtime>  (811) 
4.68491268157959

>  <fragmenstein_outcome>  (811) 
too moved

>  <fragmenstein_mode>  (811) 
expansion

>  <fragmenstein_error>  (811) 


$$$$
C35707-P56
     RDKit          3D

 34 35  0  0  0  0  0  0  0  0999 V2000
    2.9140   -3.7275   34.9745 C   0  0  0  0  0  0  0  0  0  0  0  0
    1.7475   -3.8819   35.8760 N   0  0  0  0  0  0  0  0  0  0  0  0
    2.0779   -3.3179   37.2680 C   0  0  0  0  0  0  0  0  0  0  0  0
    1.6388   -1.8842   37.6332 C   0  0  0  0  0  0  0  0  0  0  0  0
    0.5697   -2.4263   38.4799 N   0  0  0  0  0  0  0  0  0  0  0  0
    1.2129   -3.7457   38.4849 C   0  0  0  0  0  0  0  0  0  0  0  0
    0.2287   -3.6019   35.1579 S   0  0  0  0  0  0  0  0  0  0  0  0
   -0.7878   -3.7999   36.1667 O   0  0  0  0  0  0  0  0  0  0  0  0
    0.3253   -2.4008   34.3469 O   0  0  0  0  0  0  0  0  0  0  0  0
    0.0788   -4.9041   33.9992 C   0  0  0  0  0  0  0  0  0  0  0  0
    0.0581   -6.3085   34.5605 C   0  0  0  0  0  0  0  0  0  0  0  0
   -0.5367   -7.2072   33.5004 C   0  0  0  0  0  0  0  0  0  0  0  0
   -0.1039   -7.1146   32.1708 C   0  0  0  0  0  0  0  0  0  0  0  0
   -0.7801   -7.8099   31.1944 C   0  0  0  0  0  0  0  0  0  0  0  0
   -1.8348   -8.6071   31.4526 N   0  0  0  0  0  0  0  0  0  0  0  0
   -2.1988   -8.7317   32.7487 C   0  0  0  0  0  0  0  0  0  0  0  0
   -1.5847   -8.0722   33.7990 C   0  0  0  0  0  0  0  0  0  0  0  0
    2.7654   -4.2348   34.0204 H   0  0  0  0  0  0  0  0  0  0  0  0
    3.1221   -2.6686   34.7943 H   0  0  0  0  0  0  0  0  0  0  0  0
    3.7987   -4.1856   35.4278 H   0  0  0  0  0  0  0  0  0  0  0  0
    3.1479   -3.4365   37.4640 H   0  0  0  0  0  0  0  0  0  0  0  0
    1.2905   -1.2556   36.8093 H   0  0  0  0  0  0  0  0  0  0  0  0
    2.3969   -1.3233   38.1931 H   0  0  0  0  0  0  0  0  0  0  0  0
    0.4510   -1.9884   39.3892 H   0  0  0  0  0  0  0  0  0  0  0  0
    0.5324   -4.5869   38.3292 H   0  0  0  0  0  0  0  0  0  0  0  0
    1.7933   -3.9346   39.3950 H   0  0  0  0  0  0  0  0  0  0  0  0
   -0.8556   -4.6842   33.4678 H   0  0  0  0  0  0  0  0  0  0  0  0
    0.8719   -4.7744   33.2571 H   0  0  0  0  0  0  0  0  0  0  0  0
    1.0655   -6.6485   34.8225 H   0  0  0  0  0  0  0  0  0  0  0  0
   -0.5473   -6.3559   35.4729 H   0  0  0  0  0  0  0  0  0  0  0  0
    0.7478   -6.5082   31.8804 H   0  0  0  0  0  0  0  0  0  0  0  0
   -0.4658   -7.7553   30.1555 H   0  0  0  0  0  0  0  0  0  0  0  0
   -3.0549   -9.3726   32.9242 H   0  0  0  0  0  0  0  0  0  0  0  0
   -1.9527   -8.2018   34.8115 H   0  0  0  0  0  0  0  0  0  0  0  0
  1  2  1  0
  2  3  1  0
  3  4  1  0
  4  5  1  0
  5  6  1  0
  2  7  1  0
  7  8  2  0
  7  9  2  0
  7 10  1  0
 10 11  1  0
 11 12  1  0
 12 13  2  0
 13 14  1  0
 14 15  2  0
 15 16  1  0
 16 17  2  0
  6  3  1  0
 17 12  1  0
  1 18  1  0
  1 19  1  0
  1 20  1  0
  3 21  1  0
  4 22  1  0
  4 23  1  0
  5 24  1  0
  6 25  1  0
  6 26  1  0
 10 27  1  0
 10 28  1  0
 11 29  1  0
 11 30  1  0
 13 31  1  0
 14 32  1  0
 16 33  1  0
 17 34  1  0
M  END
>  <Energy>  (812) 
-1.3214378970349379

>  <compound_id>  (812) 
35707

>  <target_id>  (812) 
1

>  <reference_id>  (812) 
56

>  <inspiration_ids>  (812) 
[13, 56]

>  <energy_score>  (812) 
-52.83775003994285

>  <distance_score>  (812) 
1.2660227092224063

>  <path>  (812) 
/opt/xchem-fragalysis-2/maxwin/BulkDock/SCRATCH/511013/C35707-P56/C35707-P56.minimised.mol

>  <scratch_subdir>  (812) 
/opt/xchem-fragalysis-2/maxwin/BulkDock/SCRATCH/511013/C35707-P56

>  <fragmenstein_runtime>  (812) 
4.019613265991211

>  <fragmenstein_outcome>  (812) 
too moved

>  <fragmenstein_mode>  (812) 
expansion

>  <fragmenstein_error>  (812) 


$$$$
C35712-P13
     RDKit          3D

 37 38  0  0  0  0  0  0  0  0999 V2000
    3.2025   -4.1080   34.6753 C   0  0  0  0  0  0  0  0  0  0  0  0
    2.1122   -3.8191   35.6156 N   0  0  0  0  0  0  0  0  0  0  0  0
    2.5455   -3.6509   37.0364 C   0  0  0  0  0  0  0  0  0  0  0  0
    1.8880   -2.4913   37.7690 C   0  0  0  0  0  0  0  0  0  0  0  0
    0.8964   -3.1237   38.7434 C   0  0  0  0  0  0  0  0  0  0  0  0
    0.9524   -4.5718   38.5382 N   0  0  0  0  0  0  0  0  0  0  0  0
    2.2552   -4.8510   37.9370 C   0  0  0  0  0  0  0  0  0  0  0  0
    0.5177   -3.8847   35.0799 S   0  0  0  0  0  0  0  0  0  0  0  0
   -0.2860   -3.0466   35.9421 O   0  0  0  0  0  0  0  0  0  0  0  0
    0.5220   -3.6731   33.6410 O   0  0  0  0  0  0  0  0  0  0  0  0
   -0.0097   -5.5495   35.4039 C   0  0  0  0  0  0  0  0  0  0  0  0
    0.7302   -6.6102   34.6234 C   0  0  0  0  0  0  0  0  0  0  0  0
    0.0259   -6.9634   33.3471 C   0  0  0  0  0  0  0  0  0  0  0  0
    0.4903   -6.5504   32.1046 C   0  0  0  0  0  0  0  0  0  0  0  0
   -0.2080   -6.9448   30.9737 C   0  0  0  0  0  0  0  0  0  0  0  0
   -1.3111   -7.7219   30.9884 N   0  0  0  0  0  0  0  0  0  0  0  0
   -1.7523   -8.0707   32.2089 C   0  0  0  0  0  0  0  0  0  0  0  0
   -1.1455   -7.7075   33.3948 C   0  0  0  0  0  0  0  0  0  0  0  0
    2.8514   -4.3467   33.6691 H   0  0  0  0  0  0  0  0  0  0  0  0
    3.8584   -3.2356   34.5955 H   0  0  0  0  0  0  0  0  0  0  0  0
    3.7880   -4.9624   35.0293 H   0  0  0  0  0  0  0  0  0  0  0  0
    3.6292   -3.4721   37.0265 H   0  0  0  0  0  0  0  0  0  0  0  0
    2.6490   -1.9539   38.3500 H   0  0  0  0  0  0  0  0  0  0  0  0
    1.4287   -1.7523   37.1069 H   0  0  0  0  0  0  0  0  0  0  0  0
    1.1834   -2.8797   39.7730 H   0  0  0  0  0  0  0  0  0  0  0  0
   -0.1209   -2.7519   38.5906 H   0  0  0  0  0  0  0  0  0  0  0  0
    0.8239   -5.0649   39.4203 H   0  0  0  0  0  0  0  0  0  0  0  0
    3.0095   -4.9084   38.7316 H   0  0  0  0  0  0  0  0  0  0  0  0
    2.2607   -5.8033   37.3994 H   0  0  0  0  0  0  0  0  0  0  0  0
    0.1020   -5.7284   36.4717 H   0  0  0  0  0  0  0  0  0  0  0  0
   -1.0884   -5.5659   35.2107 H   0  0  0  0  0  0  0  0  0  0  0  0
    1.7718   -6.3485   34.4237 H   0  0  0  0  0  0  0  0  0  0  0  0
    0.7776   -7.5255   35.2291 H   0  0  0  0  0  0  0  0  0  0  0  0
    1.3663   -5.9190   32.0022 H   0  0  0  0  0  0  0  0  0  0  0  0
    0.1211   -6.6129   29.9979 H   0  0  0  0  0  0  0  0  0  0  0  0
   -2.6648   -8.6457   32.2175 H   0  0  0  0  0  0  0  0  0  0  0  0
   -1.5804   -8.0110   34.3403 H   0  0  0  0  0  0  0  0  0  0  0  0
  1  2  1  0
  2  3  1  0
  3  4  1  0
  4  5  1  0
  5  6  1  0
  6  7  1  0
  2  8  1  0
  8  9  2  0
  8 10  2  0
  8 11  1  0
 11 12  1  0
 12 13  1  0
 13 14  2  0
 14 15  1  0
 15 16  2  0
 16 17  1  0
 17 18  2  0
  7  3  1  0
 18 13  1  0
  1 19  1  0
  1 20  1  0
  1 21  1  0
  3 22  1  0
  4 23  1  0
  4 24  1  0
  5 25  1  0
  5 26  1  0
  6 27  1  0
  7 28  1  0
  7 29  1  0
 11 30  1  0
 11 31  1  0
 12 32  1  0
 12 33  1  0
 14 34  1  0
 15 35  1  0
 17 36  1  0
 18 37  1  0
M  END
>  <Energy>  (813) 
-9.8169362269476146

>  <compound_id>  (813) 
35712

>  <target_id>  (813) 
1

>  <reference_id>  (813) 
13

>  <inspiration_ids>  (813) 
[13, 56]

>  <energy_score>  (813) 
-36.754480341999994

>  <distance_score>  (813) 
0.967860748320486

>  <path>  (813) 
/opt/xchem-fragalysis-2/maxwin/BulkDock/SCRATCH/511013/C35712-P13/C35712-P13.minimised.mol

>  <scratch_subdir>  (813) 
/opt/xchem-fragalysis-2/maxwin/BulkDock/SCRATCH/511013/C35712-P13

>  <fragmenstein_runtime>  (813) 
14.735145092010498

>  <fragmenstein_outcome>  (813) 
acceptable

>  <fragmenstein_mode>  (813) 
expansion

>  <fragmenstein_error>  (813) 


$$$$
C35712-P56
     RDKit          3D

 37 38  0  0  0  0  0  0  0  0999 V2000
    2.9639   -4.2368   35.0151 C   0  0  0  0  0  0  0  0  0  0  0  0
    1.7799   -3.6867   35.6879 N   0  0  0  0  0  0  0  0  0  0  0  0
    2.0114   -3.1981   37.0856 C   0  0  0  0  0  0  0  0  0  0  0  0
    1.5435   -1.7612   37.2842 C   0  0  0  0  0  0  0  0  0  0  0  0
    0.4894   -1.8122   38.3887 C   0  0  0  0  0  0  0  0  0  0  0  0
    0.1056   -3.2080   38.5454 N   0  0  0  0  0  0  0  0  0  0  0  0
    1.3061   -3.9591   38.2099 C   0  0  0  0  0  0  0  0  0  0  0  0
    0.2650   -3.8487   34.9747 S   0  0  0  0  0  0  0  0  0  0  0  0
   -0.6389   -2.9521   35.6590 O   0  0  0  0  0  0  0  0  0  0  0  0
    0.4312   -3.7645   33.5323 O   0  0  0  0  0  0  0  0  0  0  0  0
   -0.2573   -5.4944   35.4095 C   0  0  0  0  0  0  0  0  0  0  0  0
    0.4484   -6.6032   34.6708 C   0  0  0  0  0  0  0  0  0  0  0  0
   -0.3567   -7.1541   33.5228 C   0  0  0  0  0  0  0  0  0  0  0  0
   -0.0776   -6.7536   32.2153 C   0  0  0  0  0  0  0  0  0  0  0  0
   -0.8017   -7.3121   31.1788 C   0  0  0  0  0  0  0  0  0  0  0  0
   -1.7957   -8.2120   31.3562 N   0  0  0  0  0  0  0  0  0  0  0  0
   -2.0573   -8.5744   32.6320 C   0  0  0  0  0  0  0  0  0  0  0  0
   -1.3771   -8.0839   33.7346 C   0  0  0  0  0  0  0  0  0  0  0  0
    3.2317   -5.2025   35.4499 H   0  0  0  0  0  0  0  0  0  0  0  0
    2.8060   -4.3705   33.9420 H   0  0  0  0  0  0  0  0  0  0  0  0
    3.8103   -3.5508   35.1213 H   0  0  0  0  0  0  0  0  0  0  0  0
    3.0911   -3.2257   37.2746 H   0  0  0  0  0  0  0  0  0  0  0  0
    2.3802   -1.1293   37.6063 H   0  0  0  0  0  0  0  0  0  0  0  0
    1.1474   -1.3095   36.3692 H   0  0  0  0  0  0  0  0  0  0  0  0
    0.9190   -1.4371   39.3255 H   0  0  0  0  0  0  0  0  0  0  0  0
   -0.3768   -1.1886   38.1479 H   0  0  0  0  0  0  0  0  0  0  0  0
   -0.2226   -3.4003   39.4881 H   0  0  0  0  0  0  0  0  0  0  0  0
    1.9494   -3.9759   39.0974 H   0  0  0  0  0  0  0  0  0  0  0  0
    1.0444   -4.9774   37.9565 H   0  0  0  0  0  0  0  0  0  0  0  0
   -0.1179   -5.6085   36.4824 H   0  0  0  0  0  0  0  0  0  0  0  0
   -1.3361   -5.5369   35.2591 H   0  0  0  0  0  0  0  0  0  0  0  0
    1.4372   -6.3012   34.3236 H   0  0  0  0  0  0  0  0  0  0  0  0
    0.6253   -7.4247   35.3734 H   0  0  0  0  0  0  0  0  0  0  0  0
    0.7144   -6.0427   31.9981 H   0  0  0  0  0  0  0  0  0  0  0  0
   -0.5807   -7.0489   30.1478 H   0  0  0  0  0  0  0  0  0  0  0  0
   -2.8618   -9.2929   32.7510 H   0  0  0  0  0  0  0  0  0  0  0  0
   -1.6366   -8.4342   34.7289 H   0  0  0  0  0  0  0  0  0  0  0  0
  1  2  1  0
  2  3  1  0
  3  4  1  0
  4  5  1  0
  5  6  1  0
  6  7  1  0
  2  8  1  0
  8  9  2  0
  8 10  2  0
  8 11  1  0
 11 12  1  0
 12 13  1  0
 13 14  2  0
 14 15  1  0
 15 16  2  0
 16 17  1  0
 17 18  2  0
  7  3  1  0
 18 13  1  0
  1 19  1  0
  1 20  1  0
  1 21  1  0
  3 22  1  0
  4 23  1  0
  4 24  1  0
  5 25  1  0
  5 26  1  0
  6 27  1  0
  7 28  1  0
  7 29  1  0
 11 30  1  0
 11 31  1  0
 12 32  1  0
 12 33  1  0
 14 34  1  0
 15 35  1  0
 17 36  1  0
 18 37  1  0
M  END
>  <Energy>  (814) 
-7.0381421449813919

>  <compound_id>  (814) 
35712

>  <target_id>  (814) 
1

>  <reference_id>  (814) 
56

>  <inspiration_ids>  (814) 
[13, 56]

>  <energy_score>  (814) 
-33.975686260033214

>  <distance_score>  (814) 
1.025605101551075

>  <path>  (814) 
/opt/xchem-fragalysis-2/maxwin/BulkDock/SCRATCH/511013/C35712-P56/C35712-P56.minimised.mol

>  <scratch_subdir>  (814) 
/opt/xchem-fragalysis-2/maxwin/BulkDock/SCRATCH/511013/C35712-P56

>  <fragmenstein_runtime>  (814) 
15.329718112945557

>  <fragmenstein_outcome>  (814) 
too moved

>  <fragmenstein_mode>  (814) 
expansion

>  <fragmenstein_error>  (814) 


$$$$
C35714-P13
     RDKit          3D

 35 36  0  0  0  0  0  0  0  0999 V2000
   -1.2258   -1.0396   33.1247 C   0  0  0  0  0  0  0  0  0  0  0  0
   -0.1113   -2.0957   33.0495 C   0  0  0  0  0  0  0  0  0  0  0  0
    0.2220   -2.7329   34.4296 C   0  0  0  0  0  0  0  0  0  0  0  0
    1.2170   -2.1495   35.2517 C   0  0  0  0  0  0  0  0  0  0  0  0
    1.3975   -2.5424   36.5930 C   0  0  0  0  0  0  0  0  0  0  0  0
    0.5861   -3.5273   37.1378 C   0  0  0  0  0  0  0  0  0  0  0  0
    0.6761   -3.8369   38.4409 F   0  0  0  0  0  0  0  0  0  0  0  0
   -0.3523   -4.1655   36.3417 C   0  0  0  0  0  0  0  0  0  0  0  0
   -0.5256   -3.7742   35.0020 C   0  0  0  0  0  0  0  0  0  0  0  0
   -0.5389   -3.3304   31.7557 S   0  0  0  0  0  0  0  0  0  0  0  0
    0.6173   -4.1473   31.4676 O   0  0  0  0  0  0  0  0  0  0  0  0
   -1.8280   -3.9333   32.0358 O   0  0  0  0  0  0  0  0  0  0  0  0
   -0.8611   -2.4224   30.3912 N   0  0  0  0  0  0  0  0  0  0  0  0
    0.1781   -2.1871   29.3875 C   0  0  0  0  0  0  0  0  0  0  0  0
   -0.1025   -0.8990   28.6545 C   0  0  0  0  0  0  0  0  0  0  0  0
   -1.2569   -0.7520   27.8774 C   0  0  0  0  0  0  0  0  0  0  0  0
   -1.4843    0.4577   27.2408 C   0  0  0  0  0  0  0  0  0  0  0  0
   -0.6494    1.5162   27.3225 N   0  0  0  0  0  0  0  0  0  0  0  0
    0.4537    1.3594   28.0800 C   0  0  0  0  0  0  0  0  0  0  0  0
    0.7690    0.1891   28.7536 C   0  0  0  0  0  0  0  0  0  0  0  0
   -2.1808   -1.4917   33.4137 H   0  0  0  0  0  0  0  0  0  0  0  0
   -1.3690   -0.5336   32.1652 H   0  0  0  0  0  0  0  0  0  0  0  0
   -0.9819   -0.2747   33.8699 H   0  0  0  0  0  0  0  0  0  0  0  0
    0.8070   -1.6263   32.6726 H   0  0  0  0  0  0  0  0  0  0  0  0
    1.8282   -1.3333   34.8683 H   0  0  0  0  0  0  0  0  0  0  0  0
    2.1369   -2.0501   37.2170 H   0  0  0  0  0  0  0  0  0  0  0  0
   -0.9831   -4.9371   36.7720 H   0  0  0  0  0  0  0  0  0  0  0  0
   -1.3081   -4.2690   34.4365 H   0  0  0  0  0  0  0  0  0  0  0  0
   -1.7823   -2.6211   29.9958 H   0  0  0  0  0  0  0  0  0  0  0  0
    1.1625   -2.1278   29.8645 H   0  0  0  0  0  0  0  0  0  0  0  0
    0.1976   -3.0166   28.6722 H   0  0  0  0  0  0  0  0  0  0  0  0
   -1.9612   -1.5671   27.7377 H   0  0  0  0  0  0  0  0  0  0  0  0
   -2.3626    0.6029   26.6178 H   0  0  0  0  0  0  0  0  0  0  0  0
    1.0995    2.2310   28.1362 H   0  0  0  0  0  0  0  0  0  0  0  0
    1.6759    0.1389   29.3458 H   0  0  0  0  0  0  0  0  0  0  0  0
  1  2  1  0
  2  3  1  0
  3  4  2  0
  4  5  1  0
  5  6  2  0
  6  7  1  0
  6  8  1  0
  8  9  2  0
  2 10  1  0
 10 11  2  0
 10 12  2  0
 10 13  1  0
 13 14  1  0
 14 15  1  0
 15 16  2  0
 16 17  1  0
 17 18  2  0
 18 19  1  0
 19 20  2  0
  9  3  1  0
 20 15  1  0
  1 21  1  0
  1 22  1  0
  1 23  1  0
  2 24  1  0
  4 25  1  0
  5 26  1  0
  8 27  1  0
  9 28  1  0
 13 29  1  0
 14 30  1  0
 14 31  1  0
 16 32  1  0
 17 33  1  0
 19 34  1  0
 20 35  1  0
M  END
>  <Energy>  (815) 
-8.9872091911685938

>  <compound_id>  (815) 
35714

>  <target_id>  (815) 
1

>  <reference_id>  (815) 
13

>  <inspiration_ids>  (815) 
[13, 56]

>  <energy_score>  (815) 
-28.292952872203557

>  <distance_score>  (815) 
1.332037941391702

>  <path>  (815) 
/opt/xchem-fragalysis-2/maxwin/BulkDock/SCRATCH/511013/C35714-P13/C35714-P13.minimised.mol

>  <scratch_subdir>  (815) 
/opt/xchem-fragalysis-2/maxwin/BulkDock/SCRATCH/511013/C35714-P13

>  <fragmenstein_runtime>  (815) 
2.628267526626587

>  <fragmenstein_outcome>  (815) 
too moved

>  <fragmenstein_mode>  (815) 
expansion

>  <fragmenstein_error>  (815) 


$$$$
C35714-P56
     RDKit          3D

 35 36  0  0  0  0  0  0  0  0999 V2000
   -1.1438   -0.9959   33.1861 C   0  0  0  0  0  0  0  0  0  0  0  0
   -0.0411   -2.0641   33.0705 C   0  0  0  0  0  0  0  0  0  0  0  0
    0.2902   -2.7343   34.4351 C   0  0  0  0  0  0  0  0  0  0  0  0
    1.0908   -2.0260   35.3671 C   0  0  0  0  0  0  0  0  0  0  0  0
    1.2378   -2.4501   36.7016 C   0  0  0  0  0  0  0  0  0  0  0  0
    0.5850   -3.5933   37.1337 C   0  0  0  0  0  0  0  0  0  0  0  0
    0.6036   -3.9314   38.4332 F   0  0  0  0  0  0  0  0  0  0  0  0
   -0.1333   -4.3587   36.2265 C   0  0  0  0  0  0  0  0  0  0  0  0
   -0.2633   -3.9412   34.8873 C   0  0  0  0  0  0  0  0  0  0  0  0
   -0.4995   -3.2321   31.7262 S   0  0  0  0  0  0  0  0  0  0  0  0
    0.6312   -4.0581   31.3791 O   0  0  0  0  0  0  0  0  0  0  0  0
   -1.8140   -3.7979   31.9585 O   0  0  0  0  0  0  0  0  0  0  0  0
   -0.8110   -2.2468   30.4104 N   0  0  0  0  0  0  0  0  0  0  0  0
    0.1700   -2.1020   29.3330 C   0  0  0  0  0  0  0  0  0  0  0  0
   -0.0985   -0.8136   28.5903 C   0  0  0  0  0  0  0  0  0  0  0  0
   -1.3446   -0.5682   27.9993 C   0  0  0  0  0  0  0  0  0  0  0  0
   -1.5581    0.6463   27.3672 C   0  0  0  0  0  0  0  0  0  0  0  0
   -0.6228    1.6127   27.2679 N   0  0  0  0  0  0  0  0  0  0  0  0
    0.5722    1.3591   27.8404 C   0  0  0  0  0  0  0  0  0  0  0  0
    0.8797    0.1793   28.5009 C   0  0  0  0  0  0  0  0  0  0  0  0
   -2.1001   -1.4468   33.4730 H   0  0  0  0  0  0  0  0  0  0  0  0
   -1.2915   -0.4601   32.2438 H   0  0  0  0  0  0  0  0  0  0  0  0
   -0.8866   -0.2532   33.9489 H   0  0  0  0  0  0  0  0  0  0  0  0
    0.8838   -1.5959   32.7083 H   0  0  0  0  0  0  0  0  0  0  0  0
    1.5643   -1.0903   35.0724 H   0  0  0  0  0  0  0  0  0  0  0  0
    1.8196   -1.8662   37.4073 H   0  0  0  0  0  0  0  0  0  0  0  0
   -0.6281   -5.2630   36.5644 H   0  0  0  0  0  0  0  0  0  0  0  0
   -0.8605   -4.5650   34.2283 H   0  0  0  0  0  0  0  0  0  0  0  0
   -1.7695   -2.3703   30.0862 H   0  0  0  0  0  0  0  0  0  0  0  0
    1.1847   -2.0836   29.7448 H   0  0  0  0  0  0  0  0  0  0  0  0
    0.0909   -2.9445   28.6376 H   0  0  0  0  0  0  0  0  0  0  0  0
   -2.1368   -1.3099   28.0162 H   0  0  0  0  0  0  0  0  0  0  0  0
   -2.5117    0.8771   26.9014 H   0  0  0  0  0  0  0  0  0  0  0  0
    1.3031    2.1580   27.7527 H   0  0  0  0  0  0  0  0  0  0  0  0
    1.8630    0.0482   28.9392 H   0  0  0  0  0  0  0  0  0  0  0  0
  1  2  1  0
  2  3  1  0
  3  4  2  0
  4  5  1  0
  5  6  2  0
  6  7  1  0
  6  8  1  0
  8  9  2  0
  2 10  1  0
 10 11  2  0
 10 12  2  0
 10 13  1  0
 13 14  1  0
 14 15  1  0
 15 16  2  0
 16 17  1  0
 17 18  2  0
 18 19  1  0
 19 20  2  0
  9  3  1  0
 20 15  1  0
  1 21  1  0
  1 22  1  0
  1 23  1  0
  2 24  1  0
  4 25  1  0
  5 26  1  0
  8 27  1  0
  9 28  1  0
 13 29  1  0
 14 30  1  0
 14 31  1  0
 16 32  1  0
 17 33  1  0
 19 34  1  0
 20 35  1  0
M  END
>  <Energy>  (816) 
-6.6116167476998644

>  <compound_id>  (816) 
35714

>  <target_id>  (816) 
1

>  <reference_id>  (816) 
56

>  <inspiration_ids>  (816) 
[13, 56]

>  <energy_score>  (816) 
-25.917360428735364

>  <distance_score>  (816) 
1.3065157075529465

>  <path>  (816) 
/opt/xchem-fragalysis-2/maxwin/BulkDock/SCRATCH/511013/C35714-P56/C35714-P56.minimised.mol

>  <scratch_subdir>  (816) 
/opt/xchem-fragalysis-2/maxwin/BulkDock/SCRATCH/511013/C35714-P56

>  <fragmenstein_runtime>  (816) 
2.7660789489746094

>  <fragmenstein_outcome>  (816) 
too moved

>  <fragmenstein_mode>  (816) 
expansion

>  <fragmenstein_error>  (816) 


$$$$
C35715-P13
     RDKit          3D

 42 44  0  0  0  0  0  0  0  0999 V2000
    0.0832   -0.8355   32.5635 C   0  0  0  0  0  0  0  0  0  0  0  0
   -0.5187   -2.1546   33.0326 C   0  0  0  0  0  0  0  0  0  0  0  0
    0.1652   -2.7442   34.2590 C   0  0  0  0  0  0  0  0  0  0  0  0
    1.5623   -2.8427   34.3621 C   0  0  0  0  0  0  0  0  0  0  0  0
    2.1619   -3.3442   35.5215 C   0  0  0  0  0  0  0  0  0  0  0  0
    1.3769   -3.7584   36.5947 C   0  0  0  0  0  0  0  0  0  0  0  0
   -0.0099   -3.6802   36.5066 C   0  0  0  0  0  0  0  0  0  0  0  0
   -0.6104   -3.1791   35.3482 C   0  0  0  0  0  0  0  0  0  0  0  0
   -0.6332   -3.4201   31.7167 S   0  0  0  0  0  0  0  0  0  0  0  0
    0.3877   -4.4367   31.8503 O   0  0  0  0  0  0  0  0  0  0  0  0
   -2.0293   -3.8010   31.6049 O   0  0  0  0  0  0  0  0  0  0  0  0
   -0.3125   -2.6002   30.2751 N   0  0  0  0  0  0  0  0  0  0  0  0
    1.0378   -2.7949   29.7016 C   0  0  0  0  0  0  0  0  0  0  0  0
    1.3469   -1.7734   28.6134 C   0  0  0  0  0  0  0  0  0  0  0  0
    1.4353   -2.3188   27.1998 C   0  0  0  0  0  0  0  0  0  0  0  0
    0.1909   -1.9880   26.0772 C   0  0  0  0  0  0  0  0  0  0  0  0
    0.2115   -2.7436   23.8309 C   0  0  0  0  0  0  0  0  0  0  0  0
    1.8338   -3.4098   23.5450 N   0  0  0  0  0  0  0  0  0  0  0  0
    2.9023   -3.6462   25.0074 C   0  0  0  0  0  0  0  0  0  0  0  0
    2.7068   -3.1624   26.6270 C   0  0  0  0  0  0  0  0  0  0  0  0
    0.8778   -0.3292   28.7815 C   0  0  0  0  0  0  0  0  0  0  0  0
    2.3225   -0.6553   28.9664 C   0  0  0  0  0  0  0  0  0  0  0  0
   -0.5473   -0.3752   31.7964 H   0  0  0  0  0  0  0  0  0  0  0  0
    0.1560   -0.1238   33.3936 H   0  0  0  0  0  0  0  0  0  0  0  0
    1.0867   -0.9618   32.1465 H   0  0  0  0  0  0  0  0  0  0  0  0
   -1.5643   -1.9357   33.2890 H   0  0  0  0  0  0  0  0  0  0  0  0
    2.2047   -2.5357   33.5399 H   0  0  0  0  0  0  0  0  0  0  0  0
    3.2451   -3.4132   35.5844 H   0  0  0  0  0  0  0  0  0  0  0  0
    1.8449   -4.1470   37.4951 H   0  0  0  0  0  0  0  0  0  0  0  0
   -0.6276   -4.0072   37.3394 H   0  0  0  0  0  0  0  0  0  0  0  0
   -1.6972   -3.1248   35.3085 H   0  0  0  0  0  0  0  0  0  0  0  0
   -1.0679   -2.7259   29.5944 H   0  0  0  0  0  0  0  0  0  0  0  0
    1.0977   -3.8091   29.2892 H   0  0  0  0  0  0  0  0  0  0  0  0
    1.7925   -2.7109   30.4919 H   0  0  0  0  0  0  0  0  0  0  0  0
   -0.6532   -1.3928   26.5923 H   0  0  0  0  0  0  0  0  0  0  0  0
   -0.1984   -3.8095   23.5888 H   0  0  0  0  0  0  0  0  0  0  0  0
    3.8556   -4.1505   24.8604 H   0  0  0  0  0  0  0  0  0  0  0  0
    3.5356   -3.3805   27.3017 H   0  0  0  0  0  0  0  0  0  0  0  0
    0.3030   -0.0556   29.6562 H   0  0  0  0  0  0  0  0  0  0  0  0
    0.6111    0.2518   27.9047 H   0  0  0  0  0  0  0  0  0  0  0  0
    3.0163   -0.3078   28.2068 H   0  0  0  0  0  0  0  0  0  0  0  0
    2.7255   -0.6004   29.9713 H   0  0  0  0  0  0  0  0  0  0  0  0
  1  2  1  0
  2  3  1  0
  3  4  2  0
  4  5  1  0
  5  6  2  0
  6  7  1  0
  7  8  2  0
  2  9  1  0
  9 10  2  0
  9 11  2  0
  9 12  1  0
 12 13  1  0
 13 14  1  0
 14 15  1  0
 15 16  2  0
 16 17  1  0
 17 18  2  0
 18 19  1  0
 19 20  2  0
 14 21  1  0
 21 22  1  0
  8  3  1  0
 22 14  1  0
 20 15  1  0
  1 23  1  0
  1 24  1  0
  1 25  1  0
  2 26  1  0
  4 27  1  0
  5 28  1  0
  6 29  1  0
  7 30  1  0
  8 31  1  0
 12 32  1  0
 13 33  1  0
 13 34  1  0
 16 35  1  0
 17 36  1  0
 19 37  1  0
 20 38  1  0
 21 39  1  0
 21 40  1  0
 22 41  1  0
 22 42  1  0
M  END
>  <Energy>  (817) 
764.64324010352516

>  <compound_id>  (817) 
35715

>  <target_id>  (817) 
1

>  <reference_id>  (817) 
13

>  <inspiration_ids>  (817) 
[13, 56]

>  <energy_score>  (817) 
710.7112900476493

>  <distance_score>  (817) 
2.0672945476223887

>  <path>  (817) 
/opt/xchem-fragalysis-2/maxwin/BulkDock/SCRATCH/511013/C35715-P13/C35715-P13.minimised.mol

>  <scratch_subdir>  (817) 
/opt/xchem-fragalysis-2/maxwin/BulkDock/SCRATCH/511013/C35715-P13

>  <fragmenstein_runtime>  (817) 
14.500477313995361

>  <fragmenstein_outcome>  (817) 
too moved

>  <fragmenstein_mode>  (817) 
expansion

>  <fragmenstein_error>  (817) 


$$$$
C35715-P56
     RDKit          3D

 42 44  0  0  0  0  0  0  0  0999 V2000
    1.2817   -0.9031   32.0898 C   0  0  0  0  0  0  0  0  0  0  0  0
    0.2965   -2.0078   32.4450 C   0  0  0  0  0  0  0  0  0  0  0  0
    0.6208   -2.7047   33.7621 C   0  0  0  0  0  0  0  0  0  0  0  0
    1.9162   -3.1513   34.0733 C   0  0  0  0  0  0  0  0  0  0  0  0
    2.2026   -3.7130   35.3219 C   0  0  0  0  0  0  0  0  0  0  0  0
    1.2009   -3.8416   36.2799 C   0  0  0  0  0  0  0  0  0  0  0  0
   -0.0937   -3.4285   35.9830 C   0  0  0  0  0  0  0  0  0  0  0  0
   -0.3816   -2.8675   34.7343 C   0  0  0  0  0  0  0  0  0  0  0  0
    0.0804   -3.2423   31.1175 S   0  0  0  0  0  0  0  0  0  0  0  0
    1.0157   -4.3357   31.2460 O   0  0  0  0  0  0  0  0  0  0  0  0
   -1.3457   -3.4913   30.9839 O   0  0  0  0  0  0  0  0  0  0  0  0
    0.4955   -2.4162   29.6889 N   0  0  0  0  0  0  0  0  0  0  0  0
    1.7949   -2.7985   29.0548 C   0  0  0  0  0  0  0  0  0  0  0  0
    2.2162   -1.8369   27.9292 C   0  0  0  0  0  0  0  0  0  0  0  0
    1.9888   -2.3264   26.5001 C   0  0  0  0  0  0  0  0  0  0  0  0
    0.4515   -2.5458   25.9985 C   0  0  0  0  0  0  0  0  0  0  0  0
   -0.1397   -2.9852   23.7433 C   0  0  0  0  0  0  0  0  0  0  0  0
    1.2427   -3.2012   22.7833 N   0  0  0  0  0  0  0  0  0  0  0  0
    2.6896   -2.8740   23.6944 C   0  0  0  0  0  0  0  0  0  0  0  0
    3.0386   -2.4625   25.3200 C   0  0  0  0  0  0  0  0  0  0  0  0
    2.0000   -0.3410   28.1544 C   0  0  0  0  0  0  0  0  0  0  0  0
    3.3836   -0.9012   28.2021 C   0  0  0  0  0  0  0  0  0  0  0  0
    1.4381   -0.2284   32.9389 H   0  0  0  0  0  0  0  0  0  0  0  0
    0.9016   -0.2962   31.2631 H   0  0  0  0  0  0  0  0  0  0  0  0
    2.2578   -1.2999   31.7929 H   0  0  0  0  0  0  0  0  0  0  0  0
   -0.6874   -1.5278   32.5354 H   0  0  0  0  0  0  0  0  0  0  0  0
    2.7226   -3.0743   33.3471 H   0  0  0  0  0  0  0  0  0  0  0  0
    3.2100   -4.0574   35.5495 H   0  0  0  0  0  0  0  0  0  0  0  0
    1.4352   -4.2723   37.2501 H   0  0  0  0  0  0  0  0  0  0  0  0
   -0.8835   -3.5422   36.7204 H   0  0  0  0  0  0  0  0  0  0  0  0
   -1.4044   -2.5548   34.5320 H   0  0  0  0  0  0  0  0  0  0  0  0
   -0.2918   -2.4374   29.0405 H   0  0  0  0  0  0  0  0  0  0  0  0
    1.6963   -3.8118   28.6512 H   0  0  0  0  0  0  0  0  0  0  0  0
    2.5802   -2.8119   29.8186 H   0  0  0  0  0  0  0  0  0  0  0  0
   -0.2403   -2.2475   26.8669 H   0  0  0  0  0  0  0  0  0  0  0  0
   -1.0262   -2.6017   23.1692 H   0  0  0  0  0  0  0  0  0  0  0  0
    3.5637   -2.8259   23.1216 H   0  0  0  0  0  0  0  0  0  0  0  0
    4.0702   -2.1747   25.4969 H   0  0  0  0  0  0  0  0  0  0  0  0
    1.5637   -0.0001   29.0835 H   0  0  0  0  0  0  0  0  0  0  0  0
    1.7469    0.2852   27.3066 H   0  0  0  0  0  0  0  0  0  0  0  0
    4.0584   -0.6515   27.3897 H   0  0  0  0  0  0  0  0  0  0  0  0
    3.8799   -0.9491   29.1646 H   0  0  0  0  0  0  0  0  0  0  0  0
  1  2  1  0
  2  3  1  0
  3  4  2  0
  4  5  1  0
  5  6  2  0
  6  7  1  0
  7  8  2  0
  2  9  1  0
  9 10  2  0
  9 11  2  0
  9 12  1  0
 12 13  1  0
 13 14  1  0
 14 15  1  0
 15 16  2  0
 16 17  1  0
 17 18  2  0
 18 19  1  0
 19 20  2  0
 14 21  1  0
 21 22  1  0
  8  3  1  0
 22 14  1  0
 20 15  1  0
  1 23  1  0
  1 24  1  0
  1 25  1  0
  2 26  1  0
  4 27  1  0
  5 28  1  0
  6 29  1  0
  7 30  1  0
  8 31  1  0
 12 32  1  0
 13 33  1  0
 13 34  1  0
 16 35  1  0
 17 36  1  0
 19 37  1  0
 20 38  1  0
 21 39  1  0
 21 40  1  0
 22 41  1  0
 22 42  1  0
M  END
>  <Energy>  (818) 
699.44938427453917

>  <compound_id>  (818) 
35715

>  <target_id>  (818) 
1

>  <reference_id>  (818) 
56

>  <inspiration_ids>  (818) 
[13, 56]

>  <energy_score>  (818) 
645.5174342186618

>  <distance_score>  (818) 
2.5509728140189885

>  <path>  (818) 
/opt/xchem-fragalysis-2/maxwin/BulkDock/SCRATCH/511013/C35715-P56/C35715-P56.minimised.mol

>  <scratch_subdir>  (818) 
/opt/xchem-fragalysis-2/maxwin/BulkDock/SCRATCH/511013/C35715-P56

>  <fragmenstein_runtime>  (818) 
16.09998917579651

>  <fragmenstein_outcome>  (818) 
too moved

>  <fragmenstein_mode>  (818) 
expansion

>  <fragmenstein_error>  (818) 


$$$$
C35722-P13
     RDKit          3D

 47 48  0  0  0  0  0  0  0  0999 V2000
   -1.7475   -0.1786   29.5506 C   0  0  0  0  0  0  0  0  0  0  0  0
   -1.3103   -1.6144   29.3443 C   0  0  0  0  0  0  0  0  0  0  0  0
   -1.0890   -2.4226   30.9254 S   0  0  0  0  0  0  0  0  0  0  0  0
   -2.3887   -2.6377   31.5306 O   0  0  0  0  0  0  0  0  0  0  0  0
   -0.0363   -1.7342   31.6434 O   0  0  0  0  0  0  0  0  0  0  0  0
   -0.4815   -3.9818   30.5437 N   0  0  0  0  0  0  0  0  0  0  0  0
    0.6224   -3.9923   29.5595 C   0  0  0  0  0  0  0  0  0  0  0  0
   -0.2343   -4.7810   31.7955 C   0  0  0  0  0  0  0  0  0  0  0  0
    1.1341   -4.5589   32.4166 C   0  0  0  0  0  0  0  0  0  0  0  0
    1.4369   -5.7372   33.3395 C   0  0  0  0  0  0  0  0  0  0  0  0
    0.2220   -6.1208   34.1548 N   0  0  0  0  0  0  0  0  0  0  0  0
    0.6263   -6.4904   35.5101 C   0  0  0  0  0  0  0  0  0  0  0  0
    0.9189   -7.5436   35.9602 O   0  0  0  0  0  0  0  0  0  0  0  0
    0.6275   -5.1526   36.1333 N   0  0  0  0  0  0  0  0  0  0  0  0
   -0.7680   -4.8542   36.7801 C   0  0  0  0  0  0  0  0  0  0  0  0
    1.0908   -4.7169   37.4531 C   0  0  0  0  0  0  0  0  0  0  0  0
    1.4480   -5.6264   38.4497 C   0  0  0  0  0  0  0  0  0  0  0  0
    2.0389   -5.1293   39.5978 C   0  0  0  0  0  0  0  0  0  0  0  0
    2.3388   -3.8252   39.7909 N   0  0  0  0  0  0  0  0  0  0  0  0
    2.0608   -2.9777   38.7796 C   0  0  0  0  0  0  0  0  0  0  0  0
    1.4632   -3.3710   37.5980 C   0  0  0  0  0  0  0  0  0  0  0  0
   -0.0550   -6.9766   32.9488 C   0  0  0  0  0  0  0  0  0  0  0  0
   -0.4145   -6.2791   31.6162 C   0  0  0  0  0  0  0  0  0  0  0  0
   -1.9489    0.3020   28.5887 H   0  0  0  0  0  0  0  0  0  0  0  0
   -0.9673    0.3965   30.0595 H   0  0  0  0  0  0  0  0  0  0  0  0
   -2.6493   -0.1265   30.1654 H   0  0  0  0  0  0  0  0  0  0  0  0
   -2.0587   -2.1753   28.7837 H   0  0  0  0  0  0  0  0  0  0  0  0
   -0.3589   -1.6211   28.8085 H   0  0  0  0  0  0  0  0  0  0  0  0
    0.2254   -3.8005   28.5597 H   0  0  0  0  0  0  0  0  0  0  0  0
    1.1121   -4.9694   29.5269 H   0  0  0  0  0  0  0  0  0  0  0  0
    1.3811   -3.2402   29.7949 H   0  0  0  0  0  0  0  0  0  0  0  0
   -0.9946   -4.4825   32.5314 H   0  0  0  0  0  0  0  0  0  0  0  0
    1.1295   -3.6272   32.9941 H   0  0  0  0  0  0  0  0  0  0  0  0
    1.9470   -4.4726   31.6900 H   0  0  0  0  0  0  0  0  0  0  0  0
    2.0389   -6.5399   32.8794 H   0  0  0  0  0  0  0  0  0  0  0  0
    2.1723   -5.3405   34.0581 H   0  0  0  0  0  0  0  0  0  0  0  0
   -1.0397   -5.5528   37.5871 H   0  0  0  0  0  0  0  0  0  0  0  0
   -0.9525   -3.7939   37.0075 H   0  0  0  0  0  0  0  0  0  0  0  0
   -1.4912   -5.0860   35.9856 H   0  0  0  0  0  0  0  0  0  0  0  0
    1.2714   -6.6909   38.3446 H   0  0  0  0  0  0  0  0  0  0  0  0
    2.3121   -5.7917   40.4146 H   0  0  0  0  0  0  0  0  0  0  0  0
    2.3510   -1.9446   38.9458 H   0  0  0  0  0  0  0  0  0  0  0  0
    1.2975   -2.6542   36.8010 H   0  0  0  0  0  0  0  0  0  0  0  0
    0.6135   -7.8393   32.8506 H   0  0  0  0  0  0  0  0  0  0  0  0
   -0.9819   -7.4865   33.2572 H   0  0  0  0  0  0  0  0  0  0  0  0
    0.2310   -6.6710   30.8212 H   0  0  0  0  0  0  0  0  0  0  0  0
   -1.4380   -6.5284   31.3260 H   0  0  0  0  0  0  0  0  0  0  0  0
  1  2  1  0
  2  3  1  0
  3  4  2  0
  3  5  2  0
  3  6  1  0
  6  7  1  0
  6  8  1  0
  8  9  1  0
  9 10  1  0
 10 11  1  0
 11 12  1  0
 12 13  2  0
 12 14  1  0
 14 15  1  0
 14 16  1  0
 16 17  2  0
 17 18  1  0
 18 19  2  0
 19 20  1  0
 20 21  2  0
 11 22  1  0
 22 23  1  0
 23  8  1  0
 21 16  1  0
  1 24  1  0
  1 25  1  0
  1 26  1  0
  2 27  1  0
  2 28  1  0
  7 29  1  0
  7 30  1  0
  7 31  1  0
  8 32  1  0
  9 33  1  0
  9 34  1  0
 10 35  1  0
 10 36  1  0
 15 37  1  0
 15 38  1  0
 15 39  1  0
 17 40  1  0
 18 41  1  0
 20 42  1  0
 21 43  1  0
 22 44  1  0
 22 45  1  0
 23 46  1  0
 23 47  1  0
M  END
>  <Energy>  (819) 
54.616677952776541

>  <compound_id>  (819) 
35722

>  <target_id>  (819) 
1

>  <reference_id>  (819) 
13

>  <inspiration_ids>  (819) 
[13, 56]

>  <energy_score>  (819) 
66.43331600262746

>  <distance_score>  (819) 
2.4254524616662185

>  <path>  (819) 
/opt/xchem-fragalysis-2/maxwin/BulkDock/SCRATCH/511013/C35722-P13/C35722-P13.minimised.mol

>  <scratch_subdir>  (819) 
/opt/xchem-fragalysis-2/maxwin/BulkDock/SCRATCH/511013/C35722-P13

>  <fragmenstein_runtime>  (819) 
6.460757255554199

>  <fragmenstein_outcome>  (819) 
too moved

>  <fragmenstein_mode>  (819) 
expansion

>  <fragmenstein_error>  (819) 


$$$$
C35722-P56
     RDKit          3D

 47 48  0  0  0  0  0  0  0  0999 V2000
   -1.5661    0.3384   30.8750 C   0  0  0  0  0  0  0  0  0  0  0  0
   -0.7613   -0.7893   30.2594 C   0  0  0  0  0  0  0  0  0  0  0  0
   -0.9885   -2.3122   31.1700 S   0  0  0  0  0  0  0  0  0  0  0  0
   -2.3274   -2.8118   30.9291 O   0  0  0  0  0  0  0  0  0  0  0  0
   -0.5325   -2.0693   32.5196 O   0  0  0  0  0  0  0  0  0  0  0  0
    0.1115   -3.3685   30.3994 N   0  0  0  0  0  0  0  0  0  0  0  0
   -0.1288   -3.6649   28.9691 C   0  0  0  0  0  0  0  0  0  0  0  0
    0.6180   -4.5662   31.1658 C   0  0  0  0  0  0  0  0  0  0  0  0
    1.6561   -4.1591   32.1981 C   0  0  0  0  0  0  0  0  0  0  0  0
    1.5612   -4.9751   33.4908 C   0  0  0  0  0  0  0  0  0  0  0  0
    0.2063   -4.9885   34.1599 N   0  0  0  0  0  0  0  0  0  0  0  0
    0.3620   -5.1480   35.6042 C   0  0  0  0  0  0  0  0  0  0  0  0
    0.3912   -6.1280   36.2660 O   0  0  0  0  0  0  0  0  0  0  0  0
    0.5223   -3.7308   35.9901 N   0  0  0  0  0  0  0  0  0  0  0  0
   -0.8664   -3.1021   36.3314 C   0  0  0  0  0  0  0  0  0  0  0  0
    0.8693   -3.1290   37.2785 C   0  0  0  0  0  0  0  0  0  0  0  0
    0.8513   -3.8635   38.4656 C   0  0  0  0  0  0  0  0  0  0  0  0
    1.3720   -3.2760   39.6039 C   0  0  0  0  0  0  0  0  0  0  0  0
    1.9292   -2.0449   39.6331 N   0  0  0  0  0  0  0  0  0  0  0  0
    2.0070   -1.3894   38.4552 C   0  0  0  0  0  0  0  0  0  0  0  0
    1.5150   -1.8864   37.2628 C   0  0  0  0  0  0  0  0  0  0  0  0
   -0.0737   -5.9970   33.0990 C   0  0  0  0  0  0  0  0  0  0  0  0
   -0.4946   -5.4066   31.7664 C   0  0  0  0  0  0  0  0  0  0  0  0
   -2.6340    0.1012   30.8904 H   0  0  0  0  0  0  0  0  0  0  0  0
   -1.4255    1.2545   30.2952 H   0  0  0  0  0  0  0  0  0  0  0  0
   -1.2522    0.5354   31.9049 H   0  0  0  0  0  0  0  0  0  0  0  0
   -1.0833   -0.9452   29.2280 H   0  0  0  0  0  0  0  0  0  0  0  0
    0.3056   -0.5487   30.2802 H   0  0  0  0  0  0  0  0  0  0  0  0
    0.8296   -3.6484   28.4404 H   0  0  0  0  0  0  0  0  0  0  0  0
   -0.7785   -2.9309   28.4915 H   0  0  0  0  0  0  0  0  0  0  0  0
   -0.5816   -4.6515   28.8406 H   0  0  0  0  0  0  0  0  0  0  0  0
    1.1478   -5.2115   30.4496 H   0  0  0  0  0  0  0  0  0  0  0  0
    2.6615   -4.2823   31.7740 H   0  0  0  0  0  0  0  0  0  0  0  0
    1.5957   -3.0954   32.4464 H   0  0  0  0  0  0  0  0  0  0  0  0
    2.1152   -5.9176   33.4906 H   0  0  0  0  0  0  0  0  0  0  0  0
    2.2024   -4.4069   34.1858 H   0  0  0  0  0  0  0  0  0  0  0  0
   -0.8823   -2.0086   36.4614 H   0  0  0  0  0  0  0  0  0  0  0  0
   -1.4581   -3.2550   35.4208 H   0  0  0  0  0  0  0  0  0  0  0  0
   -1.4123   -3.6627   37.1061 H   0  0  0  0  0  0  0  0  0  0  0  0
    0.4564   -4.8708   38.5039 H   0  0  0  0  0  0  0  0  0  0  0  0
    1.3702   -3.8067   40.5508 H   0  0  0  0  0  0  0  0  0  0  0  0
    2.5039   -0.4247   38.4943 H   0  0  0  0  0  0  0  0  0  0  0  0
    1.6411   -1.3359   36.3373 H   0  0  0  0  0  0  0  0  0  0  0  0
    0.5625   -6.8912   33.0419 H   0  0  0  0  0  0  0  0  0  0  0  0
   -0.9920   -6.4671   33.4894 H   0  0  0  0  0  0  0  0  0  0  0  0
   -0.7766   -6.2086   31.0737 H   0  0  0  0  0  0  0  0  0  0  0  0
   -1.4015   -4.8308   31.9396 H   0  0  0  0  0  0  0  0  0  0  0  0
  1  2  1  0
  2  3  1  0
  3  4  2  0
  3  5  2  0
  3  6  1  0
  6  7  1  0
  6  8  1  0
  8  9  1  0
  9 10  1  0
 10 11  1  0
 11 12  1  0
 12 13  2  0
 12 14  1  0
 14 15  1  0
 14 16  1  0
 16 17  2  0
 17 18  1  0
 18 19  2  0
 19 20  1  0
 20 21  2  0
 11 22  1  0
 22 23  1  0
 23  8  1  0
 21 16  1  0
  1 24  1  0
  1 25  1  0
  1 26  1  0
  2 27  1  0
  2 28  1  0
  7 29  1  0
  7 30  1  0
  7 31  1  0
  8 32  1  0
  9 33  1  0
  9 34  1  0
 10 35  1  0
 10 36  1  0
 15 37  1  0
 15 38  1  0
 15 39  1  0
 17 40  1  0
 18 41  1  0
 20 42  1  0
 21 43  1  0
 22 44  1  0
 22 45  1  0
 23 46  1  0
 23 47  1  0
M  END
>  <Energy>  (820) 
52.528720935634837

>  <compound_id>  (820) 
35722

>  <target_id>  (820) 
1

>  <reference_id>  (820) 
56

>  <inspiration_ids>  (820) 
[13, 56]

>  <energy_score>  (820) 
64.34535898548666

>  <distance_score>  (820) 
2.493931888333533

>  <path>  (820) 
/opt/xchem-fragalysis-2/maxwin/BulkDock/SCRATCH/511013/C35722-P56/C35722-P56.minimised.mol

>  <scratch_subdir>  (820) 
/opt/xchem-fragalysis-2/maxwin/BulkDock/SCRATCH/511013/C35722-P56

>  <fragmenstein_runtime>  (820) 
6.4074461460113525

>  <fragmenstein_outcome>  (820) 
too moved

>  <fragmenstein_mode>  (820) 
expansion

>  <fragmenstein_error>  (820) 


$$$$
C35727-P13
     RDKit          3D

 35 36  0  0  0  0  0  0  0  0999 V2000
   -1.4212   -2.5795   35.4046 O   0  0  0  0  0  0  0  0  0  0  0  0
   -0.3147   -3.5026   35.3057 S   0  0  0  0  0  0  0  0  0  0  0  0
    0.7495   -3.2942   34.3457 O   0  0  0  0  0  0  0  0  0  0  0  0
    0.2536   -3.8619   36.9813 C   0  0  0  0  0  0  0  0  0  0  0  0
    1.2568   -2.8529   37.4867 C   0  0  0  0  0  0  0  0  0  0  0  0
    2.6700   -3.4428   37.4686 C   0  0  0  0  0  0  0  0  0  0  0  0
    3.2797   -4.0495   36.1628 C   0  0  0  0  0  0  0  0  0  0  0  0
    3.7839   -2.6405   35.8286 C   0  0  0  0  0  0  0  0  0  0  0  0
    3.7746   -2.3638   37.3486 C   0  0  0  0  0  0  0  0  0  0  0  0
   -0.9452   -5.0050   34.9674 N   0  0  0  0  0  0  0  0  0  0  0  0
   -0.0339   -6.0968   34.6727 C   0  0  0  0  0  0  0  0  0  0  0  0
   -0.3714   -6.7173   33.3636 C   0  0  0  0  0  0  0  0  0  0  0  0
    0.1926   -6.2769   32.1697 C   0  0  0  0  0  0  0  0  0  0  0  0
   -0.2398   -6.8545   30.9886 C   0  0  0  0  0  0  0  0  0  0  0  0
   -1.1850   -7.8147   30.9192 N   0  0  0  0  0  0  0  0  0  0  0  0
   -1.7078   -8.2017   32.0955 C   0  0  0  0  0  0  0  0  0  0  0  0
   -1.3507   -7.6921   33.3211 C   0  0  0  0  0  0  0  0  0  0  0  0
    0.6611   -4.8761   37.0067 H   0  0  0  0  0  0  0  0  0  0  0  0
   -0.6493   -3.8424   37.6026 H   0  0  0  0  0  0  0  0  0  0  0  0
    1.2026   -1.9246   36.9066 H   0  0  0  0  0  0  0  0  0  0  0  0
    1.0148   -2.5859   38.5227 H   0  0  0  0  0  0  0  0  0  0  0  0
    2.8010   -4.1106   38.3304 H   0  0  0  0  0  0  0  0  0  0  0  0
    2.6099   -4.5078   35.4411 H   0  0  0  0  0  0  0  0  0  0  0  0
    4.0905   -4.7629   36.3603 H   0  0  0  0  0  0  0  0  0  0  0  0
    3.0762   -2.0282   35.2595 H   0  0  0  0  0  0  0  0  0  0  0  0
    4.7622   -2.5889   35.3441 H   0  0  0  0  0  0  0  0  0  0  0  0
    4.7113   -2.6369   37.8498 H   0  0  0  0  0  0  0  0  0  0  0  0
    3.5080   -1.3451   37.6428 H   0  0  0  0  0  0  0  0  0  0  0  0
   -1.8745   -4.9474   34.5341 H   0  0  0  0  0  0  0  0  0  0  0  0
    1.0163   -5.7960   34.6754 H   0  0  0  0  0  0  0  0  0  0  0  0
   -0.1216   -6.8422   35.4731 H   0  0  0  0  0  0  0  0  0  0  0  0
    0.9313   -5.4808   32.1515 H   0  0  0  0  0  0  0  0  0  0  0  0
    0.1720   -6.5252   30.0422 H   0  0  0  0  0  0  0  0  0  0  0  0
   -2.4829   -8.9422   32.0324 H   0  0  0  0  0  0  0  0  0  0  0  0
   -1.8470   -8.0329   34.2221 H   0  0  0  0  0  0  0  0  0  0  0  0
  1  2  2  0
  2  3  2  0
  2  4  1  0
  4  5  1  0
  5  6  1  0
  6  7  1  0
  7  8  1  0
  8  9  1  0
  2 10  1  0
 10 11  1  0
 11 12  1  0
 12 13  2  0
 13 14  1  0
 14 15  2  0
 15 16  1  0
 16 17  2  0
  9  6  1  0
 17 12  1  0
  4 18  1  0
  4 19  1  0
  5 20  1  0
  5 21  1  0
  6 22  1  0
  7 23  1  0
  7 24  1  0
  8 25  1  0
  8 26  1  0
  9 27  1  0
  9 28  1  0
 10 29  1  0
 11 30  1  0
 11 31  1  0
 13 32  1  0
 14 33  1  0
 16 34  1  0
 17 35  1  0
M  END
>  <Energy>  (821) 
-46.877063332548509

>  <compound_id>  (821) 
35727

>  <target_id>  (821) 
1

>  <reference_id>  (821) 
13

>  <inspiration_ids>  (821) 
[13, 56]

>  <energy_score>  (821) 
-19.831105612364865

>  <distance_score>  (821) 
1.5408273174194567

>  <path>  (821) 
/opt/xchem-fragalysis-2/maxwin/BulkDock/SCRATCH/511013/C35727-P13/C35727-P13.minimised.mol

>  <scratch_subdir>  (821) 
/opt/xchem-fragalysis-2/maxwin/BulkDock/SCRATCH/511013/C35727-P13

>  <fragmenstein_runtime>  (821) 
13.028755903244019

>  <fragmenstein_outcome>  (821) 
too moved

>  <fragmenstein_mode>  (821) 
expansion

>  <fragmenstein_error>  (821) 


$$$$
C35727-P56
     RDKit          3D

 35 36  0  0  0  0  0  0  0  0999 V2000
   -0.9819   -4.2020   33.0751 O   0  0  0  0  0  0  0  0  0  0  0  0
    0.1273   -3.9061   33.9499 S   0  0  0  0  0  0  0  0  0  0  0  0
    1.1423   -3.0070   33.4487 O   0  0  0  0  0  0  0  0  0  0  0  0
   -0.4428   -3.3821   35.5919 C   0  0  0  0  0  0  0  0  0  0  0  0
    0.5534   -3.5289   36.7436 C   0  0  0  0  0  0  0  0  0  0  0  0
    1.7729   -2.6446   36.5430 C   0  0  0  0  0  0  0  0  0  0  0  0
    3.0066   -3.2480   35.8012 C   0  0  0  0  0  0  0  0  0  0  0  0
    3.8785   -2.4725   36.7962 C   0  0  0  0  0  0  0  0  0  0  0  0
    2.6949   -2.5162   37.7773 C   0  0  0  0  0  0  0  0  0  0  0  0
    0.8991   -5.3410   34.3243 N   0  0  0  0  0  0  0  0  0  0  0  0
    0.1070   -6.5157   34.6575 C   0  0  0  0  0  0  0  0  0  0  0  0
   -0.5312   -7.2196   33.4944 C   0  0  0  0  0  0  0  0  0  0  0  0
   -0.1266   -6.9885   32.1754 C   0  0  0  0  0  0  0  0  0  0  0  0
   -0.7851   -7.6304   31.1506 C   0  0  0  0  0  0  0  0  0  0  0  0
   -1.8013   -8.4946   31.3498 N   0  0  0  0  0  0  0  0  0  0  0  0
   -2.1591   -8.7303   32.6295 C   0  0  0  0  0  0  0  0  0  0  0  0
   -1.5570   -8.1381   33.7232 C   0  0  0  0  0  0  0  0  0  0  0  0
   -1.3318   -3.9764   35.8179 H   0  0  0  0  0  0  0  0  0  0  0  0
   -0.7567   -2.3389   35.4766 H   0  0  0  0  0  0  0  0  0  0  0  0
    0.0381   -3.2223   37.6624 H   0  0  0  0  0  0  0  0  0  0  0  0
    0.8444   -4.5746   36.8865 H   0  0  0  0  0  0  0  0  0  0  0  0
    1.4984   -1.6504   36.1599 H   0  0  0  0  0  0  0  0  0  0  0  0
    3.1682   -2.9499   34.7645 H   0  0  0  0  0  0  0  0  0  0  0  0
    3.1020   -4.3354   35.8777 H   0  0  0  0  0  0  0  0  0  0  0  0
    4.1281   -1.4584   36.4604 H   0  0  0  0  0  0  0  0  0  0  0  0
    4.7988   -2.9617   37.1210 H   0  0  0  0  0  0  0  0  0  0  0  0
    2.5528   -1.6147   38.3800 H   0  0  0  0  0  0  0  0  0  0  0  0
    2.6885   -3.3832   38.4446 H   0  0  0  0  0  0  0  0  0  0  0  0
    1.7683   -5.5019   33.8114 H   0  0  0  0  0  0  0  0  0  0  0  0
    0.7730   -7.2222   35.1652 H   0  0  0  0  0  0  0  0  0  0  0  0
   -0.6630   -6.2399   35.3871 H   0  0  0  0  0  0  0  0  0  0  0  0
    0.6841   -6.3119   31.9281 H   0  0  0  0  0  0  0  0  0  0  0  0
   -0.4903   -7.4707   30.1169 H   0  0  0  0  0  0  0  0  0  0  0  0
   -2.9867   -9.4188   32.7541 H   0  0  0  0  0  0  0  0  0  0  0  0
   -1.9006   -8.3782   34.7243 H   0  0  0  0  0  0  0  0  0  0  0  0
  1  2  2  0
  2  3  2  0
  2  4  1  0
  4  5  1  0
  5  6  1  0
  6  7  1  0
  7  8  1  0
  8  9  1  0
  2 10  1  0
 10 11  1  0
 11 12  1  0
 12 13  2  0
 13 14  1  0
 14 15  2  0
 15 16  1  0
 16 17  2  0
  9  6  1  0
 17 12  1  0
  4 18  1  0
  4 19  1  0
  5 20  1  0
  5 21  1  0
  6 22  1  0
  7 23  1  0
  7 24  1  0
  8 25  1  0
  8 26  1  0
  9 27  1  0
  9 28  1  0
 10 29  1  0
 11 30  1  0
 11 31  1  0
 13 32  1  0
 14 33  1  0
 16 34  1  0
 17 35  1  0
M  END
>  <Energy>  (822) 
-46.049987228107568

>  <compound_id>  (822) 
35727

>  <target_id>  (822) 
1

>  <reference_id>  (822) 
56

>  <inspiration_ids>  (822) 
[13, 56]

>  <energy_score>  (822) 
-19.00402950792376

>  <distance_score>  (822) 
1.4566227278205124

>  <path>  (822) 
/opt/xchem-fragalysis-2/maxwin/BulkDock/SCRATCH/511013/C35727-P56/C35727-P56.minimised.mol

>  <scratch_subdir>  (822) 
/opt/xchem-fragalysis-2/maxwin/BulkDock/SCRATCH/511013/C35727-P56

>  <fragmenstein_runtime>  (822) 
12.961214065551758

>  <fragmenstein_outcome>  (822) 
too moved

>  <fragmenstein_mode>  (822) 
expansion

>  <fragmenstein_error>  (822) 


$$$$
C35722-P13
     RDKit          3D

 47 48  0  0  0  0  0  0  0  0999 V2000
   -1.7475   -0.1786   29.5506 C   0  0  0  0  0  0  0  0  0  0  0  0
   -1.3103   -1.6144   29.3443 C   0  0  0  0  0  0  0  0  0  0  0  0
   -1.0890   -2.4226   30.9254 S   0  0  0  0  0  0  0  0  0  0  0  0
   -2.3887   -2.6377   31.5306 O   0  0  0  0  0  0  0  0  0  0  0  0
   -0.0363   -1.7342   31.6434 O   0  0  0  0  0  0  0  0  0  0  0  0
   -0.4815   -3.9818   30.5437 N   0  0  0  0  0  0  0  0  0  0  0  0
    0.6224   -3.9923   29.5595 C   0  0  0  0  0  0  0  0  0  0  0  0
   -0.2343   -4.7810   31.7955 C   0  0  0  0  0  0  0  0  0  0  0  0
    1.1341   -4.5589   32.4166 C   0  0  0  0  0  0  0  0  0  0  0  0
    1.4369   -5.7372   33.3395 C   0  0  0  0  0  0  0  0  0  0  0  0
    0.2220   -6.1208   34.1548 N   0  0  0  0  0  0  0  0  0  0  0  0
    0.6263   -6.4904   35.5101 C   0  0  0  0  0  0  0  0  0  0  0  0
    0.9189   -7.5436   35.9602 O   0  0  0  0  0  0  0  0  0  0  0  0
    0.6275   -5.1526   36.1333 N   0  0  0  0  0  0  0  0  0  0  0  0
   -0.7680   -4.8542   36.7801 C   0  0  0  0  0  0  0  0  0  0  0  0
    1.0908   -4.7169   37.4531 C   0  0  0  0  0  0  0  0  0  0  0  0
    1.4480   -5.6264   38.4497 C   0  0  0  0  0  0  0  0  0  0  0  0
    2.0389   -5.1293   39.5978 C   0  0  0  0  0  0  0  0  0  0  0  0
    2.3388   -3.8252   39.7909 N   0  0  0  0  0  0  0  0  0  0  0  0
    2.0608   -2.9777   38.7796 C   0  0  0  0  0  0  0  0  0  0  0  0
    1.4632   -3.3710   37.5980 C   0  0  0  0  0  0  0  0  0  0  0  0
   -0.0550   -6.9766   32.9488 C   0  0  0  0  0  0  0  0  0  0  0  0
   -0.4145   -6.2791   31.6162 C   0  0  0  0  0  0  0  0  0  0  0  0
   -1.9489    0.3020   28.5887 H   0  0  0  0  0  0  0  0  0  0  0  0
   -0.9673    0.3965   30.0595 H   0  0  0  0  0  0  0  0  0  0  0  0
   -2.6493   -0.1265   30.1654 H   0  0  0  0  0  0  0  0  0  0  0  0
   -2.0587   -2.1753   28.7837 H   0  0  0  0  0  0  0  0  0  0  0  0
   -0.3589   -1.6211   28.8085 H   0  0  0  0  0  0  0  0  0  0  0  0
    0.2254   -3.8005   28.5597 H   0  0  0  0  0  0  0  0  0  0  0  0
    1.1121   -4.9694   29.5269 H   0  0  0  0  0  0  0  0  0  0  0  0
    1.3811   -3.2402   29.7949 H   0  0  0  0  0  0  0  0  0  0  0  0
   -0.9946   -4.4825   32.5314 H   0  0  0  0  0  0  0  0  0  0  0  0
    1.1295   -3.6272   32.9941 H   0  0  0  0  0  0  0  0  0  0  0  0
    1.9470   -4.4726   31.6900 H   0  0  0  0  0  0  0  0  0  0  0  0
    2.0389   -6.5399   32.8794 H   0  0  0  0  0  0  0  0  0  0  0  0
    2.1723   -5.3405   34.0581 H   0  0  0  0  0  0  0  0  0  0  0  0
   -1.0397   -5.5528   37.5871 H   0  0  0  0  0  0  0  0  0  0  0  0
   -0.9525   -3.7939   37.0075 H   0  0  0  0  0  0  0  0  0  0  0  0
   -1.4912   -5.0860   35.9856 H   0  0  0  0  0  0  0  0  0  0  0  0
    1.2714   -6.6909   38.3446 H   0  0  0  0  0  0  0  0  0  0  0  0
    2.3121   -5.7917   40.4146 H   0  0  0  0  0  0  0  0  0  0  0  0
    2.3510   -1.9446   38.9458 H   0  0  0  0  0  0  0  0  0  0  0  0
    1.2975   -2.6542   36.8010 H   0  0  0  0  0  0  0  0  0  0  0  0
    0.6135   -7.8393   32.8506 H   0  0  0  0  0  0  0  0  0  0  0  0
   -0.9819   -7.4865   33.2572 H   0  0  0  0  0  0  0  0  0  0  0  0
    0.2310   -6.6710   30.8212 H   0  0  0  0  0  0  0  0  0  0  0  0
   -1.4380   -6.5284   31.3260 H   0  0  0  0  0  0  0  0  0  0  0  0
  1  2  1  0
  2  3  1  0
  3  4  2  0
  3  5  2  0
  3  6  1  0
  6  7  1  0
  6  8  1  0
  8  9  1  0
  9 10  1  0
 10 11  1  0
 11 12  1  0
 12 13  2  0
 12 14  1  0
 14 15  1  0
 14 16  1  0
 16 17  2  0
 17 18  1  0
 18 19  2  0
 19 20  1  0
 20 21  2  0
 11 22  1  0
 22 23  1  0
 23  8  1  0
 21 16  1  0
  1 24  1  0
  1 25  1  0
  1 26  1  0
  2 27  1  0
  2 28  1  0
  7 29  1  0
  7 30  1  0
  7 31  1  0
  8 32  1  0
  9 33  1  0
  9 34  1  0
 10 35  1  0
 10 36  1  0
 15 37  1  0
 15 38  1  0
 15 39  1  0
 17 40  1  0
 18 41  1  0
 20 42  1  0
 21 43  1  0
 22 44  1  0
 22 45  1  0
 23 46  1  0
 23 47  1  0
M  END
>  <Energy>  (823) 
54.616677952776541

>  <compound_id>  (823) 
35722

>  <target_id>  (823) 
1

>  <reference_id>  (823) 
13

>  <inspiration_ids>  (823) 
[13, 56]

>  <energy_score>  (823) 
66.43331600262746

>  <distance_score>  (823) 
2.4254524616662185

>  <path>  (823) 
/opt/xchem-fragalysis-2/maxwin/BulkDock/SCRATCH/511013/C35722-P13/C35722-P13.minimised.mol

>  <scratch_subdir>  (823) 
/opt/xchem-fragalysis-2/maxwin/BulkDock/SCRATCH/511013/C35722-P13

>  <fragmenstein_runtime>  (823) 
6.637109994888306

>  <fragmenstein_outcome>  (823) 
too moved

>  <fragmenstein_mode>  (823) 
expansion

>  <fragmenstein_error>  (823) 


$$$$
C35722-P56
     RDKit          3D

 47 48  0  0  0  0  0  0  0  0999 V2000
   -1.5661    0.3384   30.8750 C   0  0  0  0  0  0  0  0  0  0  0  0
   -0.7613   -0.7893   30.2594 C   0  0  0  0  0  0  0  0  0  0  0  0
   -0.9885   -2.3122   31.1700 S   0  0  0  0  0  0  0  0  0  0  0  0
   -2.3274   -2.8118   30.9291 O   0  0  0  0  0  0  0  0  0  0  0  0
   -0.5325   -2.0693   32.5196 O   0  0  0  0  0  0  0  0  0  0  0  0
    0.1115   -3.3685   30.3994 N   0  0  0  0  0  0  0  0  0  0  0  0
   -0.1288   -3.6649   28.9691 C   0  0  0  0  0  0  0  0  0  0  0  0
    0.6180   -4.5662   31.1658 C   0  0  0  0  0  0  0  0  0  0  0  0
    1.6561   -4.1591   32.1981 C   0  0  0  0  0  0  0  0  0  0  0  0
    1.5612   -4.9751   33.4908 C   0  0  0  0  0  0  0  0  0  0  0  0
    0.2063   -4.9885   34.1599 N   0  0  0  0  0  0  0  0  0  0  0  0
    0.3620   -5.1480   35.6042 C   0  0  0  0  0  0  0  0  0  0  0  0
    0.3912   -6.1280   36.2660 O   0  0  0  0  0  0  0  0  0  0  0  0
    0.5223   -3.7308   35.9901 N   0  0  0  0  0  0  0  0  0  0  0  0
   -0.8664   -3.1021   36.3314 C   0  0  0  0  0  0  0  0  0  0  0  0
    0.8693   -3.1290   37.2785 C   0  0  0  0  0  0  0  0  0  0  0  0
    0.8513   -3.8635   38.4656 C   0  0  0  0  0  0  0  0  0  0  0  0
    1.3720   -3.2760   39.6039 C   0  0  0  0  0  0  0  0  0  0  0  0
    1.9292   -2.0449   39.6331 N   0  0  0  0  0  0  0  0  0  0  0  0
    2.0070   -1.3894   38.4552 C   0  0  0  0  0  0  0  0  0  0  0  0
    1.5150   -1.8864   37.2628 C   0  0  0  0  0  0  0  0  0  0  0  0
   -0.0737   -5.9970   33.0990 C   0  0  0  0  0  0  0  0  0  0  0  0
   -0.4946   -5.4066   31.7664 C   0  0  0  0  0  0  0  0  0  0  0  0
   -2.6340    0.1012   30.8904 H   0  0  0  0  0  0  0  0  0  0  0  0
   -1.4255    1.2545   30.2952 H   0  0  0  0  0  0  0  0  0  0  0  0
   -1.2522    0.5354   31.9049 H   0  0  0  0  0  0  0  0  0  0  0  0
   -1.0833   -0.9452   29.2280 H   0  0  0  0  0  0  0  0  0  0  0  0
    0.3056   -0.5487   30.2802 H   0  0  0  0  0  0  0  0  0  0  0  0
    0.8296   -3.6484   28.4404 H   0  0  0  0  0  0  0  0  0  0  0  0
   -0.7785   -2.9309   28.4915 H   0  0  0  0  0  0  0  0  0  0  0  0
   -0.5816   -4.6515   28.8406 H   0  0  0  0  0  0  0  0  0  0  0  0
    1.1478   -5.2115   30.4496 H   0  0  0  0  0  0  0  0  0  0  0  0
    2.6615   -4.2823   31.7740 H   0  0  0  0  0  0  0  0  0  0  0  0
    1.5957   -3.0954   32.4464 H   0  0  0  0  0  0  0  0  0  0  0  0
    2.1152   -5.9176   33.4906 H   0  0  0  0  0  0  0  0  0  0  0  0
    2.2024   -4.4069   34.1858 H   0  0  0  0  0  0  0  0  0  0  0  0
   -0.8823   -2.0086   36.4614 H   0  0  0  0  0  0  0  0  0  0  0  0
   -1.4581   -3.2550   35.4208 H   0  0  0  0  0  0  0  0  0  0  0  0
   -1.4123   -3.6627   37.1061 H   0  0  0  0  0  0  0  0  0  0  0  0
    0.4564   -4.8708   38.5039 H   0  0  0  0  0  0  0  0  0  0  0  0
    1.3702   -3.8067   40.5508 H   0  0  0  0  0  0  0  0  0  0  0  0
    2.5039   -0.4247   38.4943 H   0  0  0  0  0  0  0  0  0  0  0  0
    1.6411   -1.3359   36.3373 H   0  0  0  0  0  0  0  0  0  0  0  0
    0.5625   -6.8912   33.0419 H   0  0  0  0  0  0  0  0  0  0  0  0
   -0.9920   -6.4671   33.4894 H   0  0  0  0  0  0  0  0  0  0  0  0
   -0.7766   -6.2086   31.0737 H   0  0  0  0  0  0  0  0  0  0  0  0
   -1.4015   -4.8308   31.9396 H   0  0  0  0  0  0  0  0  0  0  0  0
  1  2  1  0
  2  3  1  0
  3  4  2  0
  3  5  2  0
  3  6  1  0
  6  7  1  0
  6  8  1  0
  8  9  1  0
  9 10  1  0
 10 11  1  0
 11 12  1  0
 12 13  2  0
 12 14  1  0
 14 15  1  0
 14 16  1  0
 16 17  2  0
 17 18  1  0
 18 19  2  0
 19 20  1  0
 20 21  2  0
 11 22  1  0
 22 23  1  0
 23  8  1  0
 21 16  1  0
  1 24  1  0
  1 25  1  0
  1 26  1  0
  2 27  1  0
  2 28  1  0
  7 29  1  0
  7 30  1  0
  7 31  1  0
  8 32  1  0
  9 33  1  0
  9 34  1  0
 10 35  1  0
 10 36  1  0
 15 37  1  0
 15 38  1  0
 15 39  1  0
 17 40  1  0
 18 41  1  0
 20 42  1  0
 21 43  1  0
 22 44  1  0
 22 45  1  0
 23 46  1  0
 23 47  1  0
M  END
>  <Energy>  (824) 
52.528720935634837

>  <compound_id>  (824) 
35722

>  <target_id>  (824) 
1

>  <reference_id>  (824) 
56

>  <inspiration_ids>  (824) 
[13, 56]

>  <energy_score>  (824) 
64.34535898548666

>  <distance_score>  (824) 
2.493931888333533

>  <path>  (824) 
/opt/xchem-fragalysis-2/maxwin/BulkDock/SCRATCH/511013/C35722-P56/C35722-P56.minimised.mol

>  <scratch_subdir>  (824) 
/opt/xchem-fragalysis-2/maxwin/BulkDock/SCRATCH/511013/C35722-P56

>  <fragmenstein_runtime>  (824) 
5.879251956939697

>  <fragmenstein_outcome>  (824) 
too moved

>  <fragmenstein_mode>  (824) 
expansion

>  <fragmenstein_error>  (824) 


$$$$
C8758-P53
     RDKit          3D

 38 40  0  0  0  0  0  0  0  0999 V2000
   -2.8883   -7.3027   28.8224 C   0  0  0  0  0  0  0  0  0  0  0  0
   -4.4806   -7.8435   27.7703 C   0  0  0  0  0  0  0  0  0  0  0  0
   -2.9387   -7.5488   26.6667 C   0  0  0  0  0  0  0  0  0  0  0  0
   -6.4086   -9.2703   27.5755 S   0  0  0  0  0  0  0  0  0  0  0  0
   -7.3960   -9.0135   26.5660 O   0  0  0  0  0  0  0  0  0  0  0  0
   -6.9093   -9.2765   28.9450 O   0  0  0  0  0  0  0  0  0  0  0  0
   -6.0005  -11.6457   26.9590 C   0  0  0  0  0  0  0  0  0  0  0  0
   -5.2191  -12.6752   27.8639 C   0  0  0  0  0  0  0  0  0  0  0  0
   -5.7799  -14.2446   27.9121 C   0  0  0  0  0  0  0  0  0  0  0  0
   -7.3048  -14.4607   27.6482 N   0  0  0  0  0  0  0  0  0  0  0  0
   -8.3786  -15.4923   28.6042 C   0  0  0  0  0  0  0  0  0  0  0  0
   -7.5572  -15.8218   29.6529 C   0  0  0  0  0  0  0  0  0  0  0  0
   -6.7287  -17.0104   29.2043 C   0  0  0  0  0  0  0  0  0  0  0  0
   -7.0968  -18.0071   28.4678 N   0  0  0  0  0  0  0  0  0  0  0  0
   -8.4416  -18.1220   28.3517 C   0  0  0  0  0  0  0  0  0  0  0  0
   -9.0982  -19.3285   28.5512 N   0  0  0  0  0  0  0  0  0  0  0  0
  -10.6027  -19.6627   29.5400 C   0  0  0  0  0  0  0  0  0  0  0  0
  -10.7027  -17.8099   29.1683 C   0  0  0  0  0  0  0  0  0  0  0  0
   -9.2998  -16.9914   28.3983 N   0  0  0  0  0  0  0  0  0  0  0  0
   -7.4124  -13.0088   26.7565 C   0  0  0  0  0  0  0  0  0  0  0  0
   -2.9690   -7.2569   29.8949 H   0  0  0  0  0  0  0  0  0  0  0  0
   -2.3253   -6.4499   28.4248 H   0  0  0  0  0  0  0  0  0  0  0  0
   -1.8945   -7.8418   28.8509 H   0  0  0  0  0  0  0  0  0  0  0  0
   -4.6164   -8.1692   26.8257 H   0  0  0  0  0  0  0  0  0  0  0  0
   -2.7741   -8.3454   25.9724 H   0  0  0  0  0  0  0  0  0  0  0  0
   -1.9962   -7.6258   27.1195 H   0  0  0  0  0  0  0  0  0  0  0  0
   -2.6169   -6.6122   26.2961 H   0  0  0  0  0  0  0  0  0  0  0  0
   -6.1086  -11.5971   25.8637 H   0  0  0  0  0  0  0  0  0  0  0  0
   -5.1376  -12.3508   28.8934 H   0  0  0  0  0  0  0  0  0  0  0  0
   -4.1827  -12.7395   27.5083 H   0  0  0  0  0  0  0  0  0  0  0  0
   -5.2653  -14.7858   27.1085 H   0  0  0  0  0  0  0  0  0  0  0  0
   -5.4340  -14.6698   28.8536 H   0  0  0  0  0  0  0  0  0  0  0  0
   -6.9315  -15.0883   30.1453 H   0  0  0  0  0  0  0  0  0  0  0  0
   -5.6620  -16.9416   29.4791 H   0  0  0  0  0  0  0  0  0  0  0  0
  -11.2179  -20.5800   29.5478 H   0  0  0  0  0  0  0  0  0  0  0  0
  -11.5611  -17.1477   29.1232 H   0  0  0  0  0  0  0  0  0  0  0  0
   -7.0928  -13.4119   25.7783 H   0  0  0  0  0  0  0  0  0  0  0  0
   -8.4411  -12.7228   26.5236 H   0  0  0  0  0  0  0  0  0  0  0  0
  1  2  1  0
  2  3  1  0
  2  4  1  0
  4  5  2  0
  4  6  2  0
  4  7  1  0
  7  8  1  0
  8  9  1  0
  9 10  1  0
 10 11  1  0
 11 12  2  0
 12 13  1  0
 13 14  2  0
 14 15  1  0
 15 16  2  0
 16 17  1  0
 17 18  2  0
 18 19  1  0
 10 20  1  0
 20  7  1  0
 19 11  1  0
 19 15  1  0
  1 21  1  0
  1 22  1  0
  1 23  1  0
  2 24  1  0
  3 25  1  0
  3 26  1  0
  3 27  1  0
  7 28  1  0
  8 29  1  0
  8 30  1  0
  9 31  1  0
  9 32  1  0
 12 33  1  0
 13 34  1  0
 17 35  1  0
 18 36  1  0
 20 37  1  0
 20 38  1  0
M  END
>  <Energy>  (825) 
1109.7884430999036

>  <compound_id>  (825) 
8758

>  <target_id>  (825) 
1

>  <reference_id>  (825) 
53

>  <inspiration_ids>  (825) 
[53, 107]

>  <energy_score>  (825) 
1011.1636290484458

>  <distance_score>  (825) 
10.060418725900213

>  <path>  (825) 
/opt/xchem-fragalysis-2/maxwin/BulkDock/SCRATCH/511013/C8758-P53/C8758-P53.minimised.mol

>  <scratch_subdir>  (825) 
/opt/xchem-fragalysis-2/maxwin/BulkDock/SCRATCH/511013/C8758-P53

>  <fragmenstein_runtime>  (825) 
14.144967079162598

>  <fragmenstein_outcome>  (825) 
too moved

>  <fragmenstein_mode>  (825) 
expansion

>  <fragmenstein_error>  (825) 


$$$$
C8758-P107
     RDKit          3D

 38 40  0  0  0  0  0  0  0  0999 V2000
   -5.9178   -4.1672   29.1792 C   0  0  0  0  0  0  0  0  0  0  0  0
   -6.3008   -5.8396   28.6433 C   0  0  0  0  0  0  0  0  0  0  0  0
   -7.6636   -5.2126   27.5749 C   0  0  0  0  0  0  0  0  0  0  0  0
   -5.5424   -8.0892   28.7306 S   0  0  0  0  0  0  0  0  0  0  0  0
   -4.1994   -7.5848   28.9872 O   0  0  0  0  0  0  0  0  0  0  0  0
   -5.4902   -8.3642   27.3116 O   0  0  0  0  0  0  0  0  0  0  0  0
   -6.3107  -10.2760   29.4325 C   0  0  0  0  0  0  0  0  0  0  0  0
   -5.6016  -11.2661   30.9244 C   0  0  0  0  0  0  0  0  0  0  0  0
   -4.9308  -12.5969   30.2038 C   0  0  0  0  0  0  0  0  0  0  0  0
   -5.6804  -13.2089   29.0979 N   0  0  0  0  0  0  0  0  0  0  0  0
   -5.6238  -14.5872   28.6612 C   0  0  0  0  0  0  0  0  0  0  0  0
   -4.4682  -15.2812   28.6093 C   0  0  0  0  0  0  0  0  0  0  0  0
   -4.5260  -16.7393   28.3032 C   0  0  0  0  0  0  0  0  0  0  0  0
   -5.5807  -17.4513   28.0780 N   0  0  0  0  0  0  0  0  0  0  0  0
   -6.7569  -16.7751   28.1368 C   0  0  0  0  0  0  0  0  0  0  0  0
   -7.9645  -17.2771   27.9504 N   0  0  0  0  0  0  0  0  0  0  0  0
   -8.8199  -16.2286   28.0465 C   0  0  0  0  0  0  0  0  0  0  0  0
   -8.1329  -15.0715   28.2968 C   0  0  0  0  0  0  0  0  0  0  0  0
   -6.7998  -15.3840   28.3915 N   0  0  0  0  0  0  0  0  0  0  0  0
   -5.7269  -11.9675   28.3294 C   0  0  0  0  0  0  0  0  0  0  0  0
   -5.2780   -3.5836   28.5134 H   0  0  0  0  0  0  0  0  0  0  0  0
   -5.7083   -4.0696   30.2429 H   0  0  0  0  0  0  0  0  0  0  0  0
   -6.8248   -3.5452   29.1367 H   0  0  0  0  0  0  0  0  0  0  0  0
   -6.3834   -6.1726   29.6726 H   0  0  0  0  0  0  0  0  0  0  0  0
   -7.7897   -4.1168   27.5968 H   0  0  0  0  0  0  0  0  0  0  0  0
   -8.7470   -5.3893   27.5090 H   0  0  0  0  0  0  0  0  0  0  0  0
   -7.5474   -5.8045   26.7067 H   0  0  0  0  0  0  0  0  0  0  0  0
   -7.3352   -9.9955   29.6393 H   0  0  0  0  0  0  0  0  0  0  0  0
   -5.0580  -10.7338   31.7239 H   0  0  0  0  0  0  0  0  0  0  0  0
   -6.3793  -11.6882   31.5851 H   0  0  0  0  0  0  0  0  0  0  0  0
   -5.3304  -13.3303   30.8124 H   0  0  0  0  0  0  0  0  0  0  0  0
   -3.8794  -12.4870   29.9512 H   0  0  0  0  0  0  0  0  0  0  0  0
   -3.5023  -14.8440   28.8130 H   0  0  0  0  0  0  0  0  0  0  0  0
   -3.5425  -17.2382   28.2751 H   0  0  0  0  0  0  0  0  0  0  0  0
   -9.8866  -16.3498   27.9185 H   0  0  0  0  0  0  0  0  0  0  0  0
   -8.4780  -14.0682   28.3802 H   0  0  0  0  0  0  0  0  0  0  0  0
   -4.6530  -12.0679   28.0234 H   0  0  0  0  0  0  0  0  0  0  0  0
   -6.0848  -12.2225   27.3101 H   0  0  0  0  0  0  0  0  0  0  0  0
  1  2  1  0
  2  3  1  0
  2  4  1  0
  4  5  2  0
  4  6  2  0
  4  7  1  0
  7  8  1  0
  8  9  1  0
  9 10  1  0
 10 11  1  0
 11 12  2  0
 12 13  1  0
 13 14  2  0
 14 15  1  0
 15 16  2  0
 16 17  1  0
 17 18  2  0
 18 19  1  0
 10 20  1  0
 20  7  1  0
 19 11  1  0
 19 15  1  0
  1 21  1  0
  1 22  1  0
  1 23  1  0
  2 24  1  0
  3 25  1  0
  3 26  1  0
  3 27  1  0
  7 28  1  0
  8 29  1  0
  8 30  1  0
  9 31  1  0
  9 32  1  0
 12 33  1  0
 13 34  1  0
 17 35  1  0
 18 36  1  0
 20 37  1  0
 20 38  1  0
M  END
>  <Energy>  (826) 
621.2908009585783

>  <compound_id>  (826) 
8758

>  <target_id>  (826) 
1

>  <reference_id>  (826) 
107

>  <inspiration_ids>  (826) 
[53, 107]

>  <energy_score>  (826) 
522.6659869071211

>  <distance_score>  (826) 
10.382081854953116

>  <path>  (826) 
/opt/xchem-fragalysis-2/maxwin/BulkDock/SCRATCH/511013/C8758-P107/C8758-P107.minimised.mol

>  <scratch_subdir>  (826) 
/opt/xchem-fragalysis-2/maxwin/BulkDock/SCRATCH/511013/C8758-P107

>  <fragmenstein_runtime>  (826) 
13.142781019210815

>  <fragmenstein_outcome>  (826) 
too moved

>  <fragmenstein_mode>  (826) 
expansion

>  <fragmenstein_error>  (826) 


$$$$
C8759-P53
     RDKit          3D

 38 41  0  0  0  0  0  0  0  0999 V2000
  -12.0063  -14.1439   25.4888 C   0  0  0  0  0  0  0  0  0  0  0  0
  -12.4540  -12.7412   25.6876 C   0  0  0  0  0  0  0  0  0  0  0  0
  -12.9779  -12.3833   26.8827 C   0  0  0  0  0  0  0  0  0  0  0  0
  -13.2605  -10.9825   27.1741 N   0  0  0  0  0  0  0  0  0  0  0  0
  -13.6940  -10.3797   28.4478 C   0  0  0  0  0  0  0  0  0  0  0  0
  -12.9238   -9.0500   28.5700 C   0  0  0  0  0  0  0  0  0  0  0  0
  -12.9269   -8.4696   27.1550 C   0  0  0  0  0  0  0  0  0  0  0  0
  -11.9452   -7.3222   26.9515 N   0  0  0  0  0  0  0  0  0  0  0  0
  -12.1645   -6.5946   25.6770 C   0  0  0  0  0  0  0  0  0  0  0  0
  -11.5498   -5.1937   25.8476 C   0  0  0  0  0  0  0  0  0  0  0  0
  -11.3045   -5.0519   27.3368 C   0  0  0  0  0  0  0  0  0  0  0  0
  -12.0641   -6.2311   27.9492 C   0  0  0  0  0  0  0  0  0  0  0  0
  -12.7491   -9.8175   26.3291 C   0  0  0  0  0  0  0  0  0  0  0  0
  -13.0815  -13.4741   27.8259 N   0  0  0  0  0  0  0  0  0  0  0  0
  -13.6421  -13.5819   29.0816 C   0  0  0  0  0  0  0  0  0  0  0  0
  -13.1020  -14.7151   29.6379 C   0  0  0  0  0  0  0  0  0  0  0  0
  -12.3896  -15.4201   28.7141 N   0  0  0  0  0  0  0  0  0  0  0  0
  -12.4673  -14.7258   27.5993 C   0  0  0  0  0  0  0  0  0  0  0  0
  -11.9816  -15.0773   26.3778 N   0  0  0  0  0  0  0  0  0  0  0  0
  -11.6382  -14.3704   24.4742 H   0  0  0  0  0  0  0  0  0  0  0  0
  -12.2834  -12.0552   24.8714 H   0  0  0  0  0  0  0  0  0  0  0  0
  -14.7730  -10.1948   28.4023 H   0  0  0  0  0  0  0  0  0  0  0  0
  -13.4852  -10.9734   29.3350 H   0  0  0  0  0  0  0  0  0  0  0  0
  -11.8965   -9.2399   28.9028 H   0  0  0  0  0  0  0  0  0  0  0  0
  -13.3992   -8.3867   29.2995 H   0  0  0  0  0  0  0  0  0  0  0  0
  -13.9413   -8.0945   26.9574 H   0  0  0  0  0  0  0  0  0  0  0  0
  -11.7393   -7.1275   24.8230 H   0  0  0  0  0  0  0  0  0  0  0  0
  -13.2386   -6.4765   25.4819 H   0  0  0  0  0  0  0  0  0  0  0  0
  -12.2539   -4.4312   25.4961 H   0  0  0  0  0  0  0  0  0  0  0  0
  -10.6227   -5.0665   25.2826 H   0  0  0  0  0  0  0  0  0  0  0  0
  -11.6600   -4.0929   27.7254 H   0  0  0  0  0  0  0  0  0  0  0  0
  -10.2346   -5.1160   27.5338 H   0  0  0  0  0  0  0  0  0  0  0  0
  -11.6488   -6.5208   28.9152 H   0  0  0  0  0  0  0  0  0  0  0  0
  -13.1163   -5.9542   28.0953 H   0  0  0  0  0  0  0  0  0  0  0  0
  -13.2998   -9.7614   25.3845 H   0  0  0  0  0  0  0  0  0  0  0  0
  -11.6948   -9.9824   26.1174 H   0  0  0  0  0  0  0  0  0  0  0  0
  -14.3044  -12.8391   29.4895 H   0  0  0  0  0  0  0  0  0  0  0  0
  -13.2156  -15.0731   30.6517 H   0  0  0  0  0  0  0  0  0  0  0  0
  1  2  1  0
  2  3  2  0
  3  4  1  0
  4  5  1  0
  5  6  1  0
  6  7  1  0
  7  8  1  0
  8  9  1  0
  9 10  1  0
 10 11  1  0
 11 12  1  0
  7 13  1  0
  3 14  1  0
 14 15  1  0
 15 16  2  0
 16 17  1  0
 17 18  2  0
 18 19  1  0
 19  1  2  0
 13  4  1  0
 18 14  1  0
 12  8  1  0
  1 20  1  0
  2 21  1  0
  5 22  1  0
  5 23  1  0
  6 24  1  0
  6 25  1  0
  7 26  1  0
  9 27  1  0
  9 28  1  0
 10 29  1  0
 10 30  1  0
 11 31  1  0
 11 32  1  0
 12 33  1  0
 12 34  1  0
 13 35  1  0
 13 36  1  0
 15 37  1  0
 16 38  1  0
M  END
>  <Energy>  (827) 
94.347959283741062

>  <compound_id>  (827) 
8759

>  <target_id>  (827) 
1

>  <reference_id>  (827) 
53

>  <inspiration_ids>  (827) 
[53, 107]

>  <energy_score>  (827) 
-32.86166444455739

>  <distance_score>  (827) 
14.492641085986456

>  <path>  (827) 
/opt/xchem-fragalysis-2/maxwin/BulkDock/SCRATCH/511013/C8759-P53/C8759-P53.minimised.mol

>  <scratch_subdir>  (827) 
/opt/xchem-fragalysis-2/maxwin/BulkDock/SCRATCH/511013/C8759-P53

>  <fragmenstein_runtime>  (827) 
14.245599508285522

>  <fragmenstein_outcome>  (827) 
too moved

>  <fragmenstein_mode>  (827) 
expansion

>  <fragmenstein_error>  (827) 


$$$$
C8759-P107
     RDKit          3D

 38 41  0  0  0  0  0  0  0  0999 V2000
   -9.5568  -20.5974   27.6896 C   0  0  0  0  0  0  0  0  0  0  0  0
   -9.0356  -18.6413   27.9565 C   0  0  0  0  0  0  0  0  0  0  0  0
  -10.1034  -17.9892   28.7984 C   0  0  0  0  0  0  0  0  0  0  0  0
   -8.8724  -16.5431   28.8842 N   0  0  0  0  0  0  0  0  0  0  0  0
   -7.5191  -16.5172   29.6714 C   0  0  0  0  0  0  0  0  0  0  0  0
   -6.4908  -15.4027   29.1613 C   0  0  0  0  0  0  0  0  0  0  0  0
   -6.8936  -13.6733   28.9081 C   0  0  0  0  0  0  0  0  0  0  0  0
   -5.9445  -11.8194   28.8691 N   0  0  0  0  0  0  0  0  0  0  0  0
   -6.1098  -10.7475   30.4558 C   0  0  0  0  0  0  0  0  0  0  0  0
   -5.8413   -8.9486   30.4754 C   0  0  0  0  0  0  0  0  0  0  0  0
   -5.9801   -8.5240   29.0892 C   0  0  0  0  0  0  0  0  0  0  0  0
   -6.5976   -9.8978   28.7277 C   0  0  0  0  0  0  0  0  0  0  0  0
   -8.5454  -14.7279   28.3843 C   0  0  0  0  0  0  0  0  0  0  0  0
  -10.5133  -19.9244   29.5010 N   0  0  0  0  0  0  0  0  0  0  0  0
  -10.6596  -20.6931   30.9857 C   0  0  0  0  0  0  0  0  0  0  0  0
  -11.5997  -21.6878   30.9047 C   0  0  0  0  0  0  0  0  0  0  0  0
  -12.0209  -21.7772   29.6414 N   0  0  0  0  0  0  0  0  0  0  0  0
  -11.1096  -21.1268   28.9771 C   0  0  0  0  0  0  0  0  0  0  0  0
  -10.2611  -21.6326   28.1473 N   0  0  0  0  0  0  0  0  0  0  0  0
  -10.0705  -20.7062   26.7452 H   0  0  0  0  0  0  0  0  0  0  0  0
   -8.1017  -18.2019   27.6029 H   0  0  0  0  0  0  0  0  0  0  0  0
   -7.6637  -16.2458   30.7230 H   0  0  0  0  0  0  0  0  0  0  0  0
   -7.0299  -17.4933   29.6056 H   0  0  0  0  0  0  0  0  0  0  0  0
   -5.7428  -15.4695   29.9490 H   0  0  0  0  0  0  0  0  0  0  0  0
   -6.2111  -15.8468   28.2306 H   0  0  0  0  0  0  0  0  0  0  0  0
   -6.7923  -13.7753   30.0156 H   0  0  0  0  0  0  0  0  0  0  0  0
   -7.1676  -10.5718   30.5163 H   0  0  0  0  0  0  0  0  0  0  0  0
   -5.6229  -11.3133   31.2690 H   0  0  0  0  0  0  0  0  0  0  0  0
   -6.1446   -8.1817   31.0544 H   0  0  0  0  0  0  0  0  0  0  0  0
   -4.9203   -8.7452   31.1563 H   0  0  0  0  0  0  0  0  0  0  0  0
   -5.0691   -7.9408   29.0718 H   0  0  0  0  0  0  0  0  0  0  0  0
   -5.5098   -8.4245   28.0953 H   0  0  0  0  0  0  0  0  0  0  0  0
   -7.6515   -9.7137   29.0285 H   0  0  0  0  0  0  0  0  0  0  0  0
   -6.5732   -9.6059   27.6244 H   0  0  0  0  0  0  0  0  0  0  0  0
   -8.4992  -14.8044   27.2931 H   0  0  0  0  0  0  0  0  0  0  0  0
   -9.4516  -14.2706   28.7393 H   0  0  0  0  0  0  0  0  0  0  0  0
  -10.2063  -20.2445   31.8577 H   0  0  0  0  0  0  0  0  0  0  0  0
  -12.0261  -22.2761   31.7080 H   0  0  0  0  0  0  0  0  0  0  0  0
  1  2  1  0
  2  3  2  0
  3  4  1  0
  4  5  1  0
  5  6  1  0
  6  7  1  0
  7  8  1  0
  8  9  1  0
  9 10  1  0
 10 11  1  0
 11 12  1  0
  7 13  1  0
  3 14  1  0
 14 15  1  0
 15 16  2  0
 16 17  1  0
 17 18  2  0
 18 19  1  0
 19  1  2  0
 13  4  1  0
 18 14  1  0
 12  8  1  0
  1 20  1  0
  2 21  1  0
  5 22  1  0
  5 23  1  0
  6 24  1  0
  6 25  1  0
  7 26  1  0
  9 27  1  0
  9 28  1  0
 10 29  1  0
 10 30  1  0
 11 31  1  0
 11 32  1  0
 12 33  1  0
 12 34  1  0
 13 35  1  0
 13 36  1  0
 15 37  1  0
 16 38  1  0
M  END
>  <Energy>  (828) 
1398.2624246549278

>  <compound_id>  (828) 
8759

>  <target_id>  (828) 
1

>  <reference_id>  (828) 
107

>  <inspiration_ids>  (828) 
[53, 107]

>  <energy_score>  (828) 
1271.052800926628

>  <distance_score>  (828) 
12.0621746291349

>  <path>  (828) 
/opt/xchem-fragalysis-2/maxwin/BulkDock/SCRATCH/511013/C8759-P107/C8759-P107.minimised.mol

>  <scratch_subdir>  (828) 
/opt/xchem-fragalysis-2/maxwin/BulkDock/SCRATCH/511013/C8759-P107

>  <fragmenstein_runtime>  (828) 
11.635764598846436

>  <fragmenstein_outcome>  (828) 
too moved

>  <fragmenstein_mode>  (828) 
expansion

>  <fragmenstein_error>  (828) 


$$$$
C8760-P53
     RDKit          3D

 47 50  0  0  0  0  0  0  0  0999 V2000
   -6.5618  -13.8140   31.5238 C   0  0  0  0  0  0  0  0  0  0  0  0
   -5.9584  -14.3198   30.3551 C   0  0  0  0  0  0  0  0  0  0  0  0
   -5.1083  -15.5412   30.6199 C   0  0  0  0  0  0  0  0  0  0  0  0
   -6.3174  -13.6938   29.1135 C   0  0  0  0  0  0  0  0  0  0  0  0
   -5.2078  -12.0122   29.2175 C   0  0  0  0  0  0  0  0  0  0  0  0
   -6.3952  -10.5891   29.0865 C   0  0  0  0  0  0  0  0  0  0  0  0
   -6.3778   -8.6137   28.9474 N   0  0  0  0  0  0  0  0  0  0  0  0
   -5.3290   -7.6279   28.6403 C   0  0  0  0  0  0  0  0  0  0  0  0
   -5.9859   -5.5341   28.8211 C   0  0  0  0  0  0  0  0  0  0  0  0
   -5.7448   -5.0385   30.1280 C   0  0  0  0  0  0  0  0  0  0  0  0
   -6.1112   -6.6747   29.1700 C   0  0  0  0  0  0  0  0  0  0  0  0
   -6.4653  -12.3130   27.7504 C   0  0  0  0  0  0  0  0  0  0  0  0
   -7.3523  -13.5105   28.0537 N   0  0  0  0  0  0  0  0  0  0  0  0
   -8.5594  -14.2553   27.1502 C   0  0  0  0  0  0  0  0  0  0  0  0
   -8.3676  -14.9204   25.9812 C   0  0  0  0  0  0  0  0  0  0  0  0
   -9.3533  -15.7975   25.2957 C   0  0  0  0  0  0  0  0  0  0  0  0
  -10.4999  -16.1325   25.7640 N   0  0  0  0  0  0  0  0  0  0  0  0
  -10.8860  -15.3180   26.7758 C   0  0  0  0  0  0  0  0  0  0  0  0
  -12.1182  -15.1216   27.2005 N   0  0  0  0  0  0  0  0  0  0  0  0
  -12.2391  -13.7889   27.0099 C   0  0  0  0  0  0  0  0  0  0  0  0
  -11.0042  -13.2718   26.6723 C   0  0  0  0  0  0  0  0  0  0  0  0
  -10.0719  -14.1895   27.1866 N   0  0  0  0  0  0  0  0  0  0  0  0
   -7.4198  -14.4405   31.7596 H   0  0  0  0  0  0  0  0  0  0  0  0
   -5.7138  -14.0798   32.0932 H   0  0  0  0  0  0  0  0  0  0  0  0
   -6.6435  -12.7506   31.7677 H   0  0  0  0  0  0  0  0  0  0  0  0
   -5.0694  -13.7915   30.3334 H   0  0  0  0  0  0  0  0  0  0  0  0
   -5.2926  -16.2869   29.8573 H   0  0  0  0  0  0  0  0  0  0  0  0
   -4.0266  -15.3725   30.6928 H   0  0  0  0  0  0  0  0  0  0  0  0
   -5.3609  -15.8529   31.6203 H   0  0  0  0  0  0  0  0  0  0  0  0
   -6.1024  -14.5882   28.6113 H   0  0  0  0  0  0  0  0  0  0  0  0
   -4.4602  -11.8501   28.3913 H   0  0  0  0  0  0  0  0  0  0  0  0
   -4.2069  -11.9948   29.6615 H   0  0  0  0  0  0  0  0  0  0  0  0
   -6.9293  -10.4553   30.0062 H   0  0  0  0  0  0  0  0  0  0  0  0
   -5.0454   -7.9104   27.6093 H   0  0  0  0  0  0  0  0  0  0  0  0
   -4.3132   -7.6672   29.0620 H   0  0  0  0  0  0  0  0  0  0  0  0
   -5.5065   -4.6060   28.4421 H   0  0  0  0  0  0  0  0  0  0  0  0
   -6.9579   -5.2025   28.2126 H   0  0  0  0  0  0  0  0  0  0  0  0
   -6.1905   -4.0201   30.0864 H   0  0  0  0  0  0  0  0  0  0  0  0
   -5.9445   -5.3978   31.0945 H   0  0  0  0  0  0  0  0  0  0  0  0
   -5.8525   -6.2558   27.5991 H   0  0  0  0  0  0  0  0  0  0  0  0
   -6.6312   -6.5398   30.1638 H   0  0  0  0  0  0  0  0  0  0  0  0
   -6.8703  -12.2833   26.6826 H   0  0  0  0  0  0  0  0  0  0  0  0
   -5.5802  -12.1344   27.1407 H   0  0  0  0  0  0  0  0  0  0  0  0
   -7.4897  -14.7567   25.4155 H   0  0  0  0  0  0  0  0  0  0  0  0
   -9.0016  -16.2522   24.3539 H   0  0  0  0  0  0  0  0  0  0  0  0
  -13.2052  -13.3030   26.9787 H   0  0  0  0  0  0  0  0  0  0  0  0
  -10.7153  -12.3710   26.1638 H   0  0  0  0  0  0  0  0  0  0  0  0
  1  2  1  0
  2  3  1  0
  2  4  1  0
  4  5  1  0
  5  6  1  0
  6  7  1  0
  7  8  1  0
  8  9  1  0
  9 10  1  0
 10 11  1  0
  6 12  1  0
 12 13  1  0
 13 14  1  0
 14 15  2  0
 15 16  1  0
 16 17  2  0
 17 18  1  0
 18 19  2  0
 19 20  1  0
 20 21  2  0
 21 22  1  0
 13  4  1  0
 22 14  1  0
 11  7  1  0
 22 18  1  0
  1 23  1  0
  1 24  1  0
  1 25  1  0
  2 26  1  0
  3 27  1  0
  3 28  1  0
  3 29  1  0
  4 30  1  0
  5 31  1  0
  5 32  1  0
  6 33  1  0
  8 34  1  0
  8 35  1  0
  9 36  1  0
  9 37  1  0
 10 38  1  0
 10 39  1  0
 11 40  1  0
 11 41  1  0
 12 42  1  0
 12 43  1  0
 15 44  1  0
 16 45  1  0
 20 46  1  0
 21 47  1  0
M  END
>  <Energy>  (829) 
1711.9114142359099

>  <compound_id>  (829) 
8760

>  <target_id>  (829) 
1

>  <reference_id>  (829) 
53

>  <inspiration_ids>  (829) 
[53, 107]

>  <energy_score>  (829) 
1567.2864551412947

>  <distance_score>  (829) 
10.131399113235911

>  <path>  (829) 
/opt/xchem-fragalysis-2/maxwin/BulkDock/SCRATCH/511013/C8760-P53/C8760-P53.minimised.mol

>  <scratch_subdir>  (829) 
/opt/xchem-fragalysis-2/maxwin/BulkDock/SCRATCH/511013/C8760-P53

>  <fragmenstein_runtime>  (829) 
18.087631464004517

>  <fragmenstein_outcome>  (829) 
too moved

>  <fragmenstein_mode>  (829) 
expansion

>  <fragmenstein_error>  (829) 


$$$$
C8760-P107
     RDKit          3D

 47 50  0  0  0  0  0  0  0  0999 V2000
   -4.9493  -13.2299   30.0484 C   0  0  0  0  0  0  0  0  0  0  0  0
   -5.9841  -14.5130   29.9916 C   0  0  0  0  0  0  0  0  0  0  0  0
   -5.4023  -15.9544   30.2461 C   0  0  0  0  0  0  0  0  0  0  0  0
   -6.7901  -15.1660   28.5002 C   0  0  0  0  0  0  0  0  0  0  0  0
   -7.1389  -13.8208   27.1692 C   0  0  0  0  0  0  0  0  0  0  0  0
   -6.8058  -13.0482   28.2964 C   0  0  0  0  0  0  0  0  0  0  0  0
   -6.1708  -11.2302   28.9301 N   0  0  0  0  0  0  0  0  0  0  0  0
   -6.6220   -9.4929   28.0609 C   0  0  0  0  0  0  0  0  0  0  0  0
   -5.5764   -8.4864   28.3046 C   0  0  0  0  0  0  0  0  0  0  0  0
   -5.9498   -8.8019   29.6365 C   0  0  0  0  0  0  0  0  0  0  0  0
   -6.5785  -10.2074   29.9867 C   0  0  0  0  0  0  0  0  0  0  0  0
   -8.1801  -14.6262   28.2850 C   0  0  0  0  0  0  0  0  0  0  0  0
   -7.9559  -16.6744   28.2116 N   0  0  0  0  0  0  0  0  0  0  0  0
   -8.5353  -18.6191   28.4614 C   0  0  0  0  0  0  0  0  0  0  0  0
   -9.2390  -18.4946   27.4468 C   0  0  0  0  0  0  0  0  0  0  0  0
   -9.6488  -20.5435   27.2750 C   0  0  0  0  0  0  0  0  0  0  0  0
  -10.7352  -21.2942   27.2360 N   0  0  0  0  0  0  0  0  0  0  0  0
  -10.7703  -21.3623   28.5139 C   0  0  0  0  0  0  0  0  0  0  0  0
  -11.5393  -22.1422   29.2112 N   0  0  0  0  0  0  0  0  0  0  0  0
  -11.3997  -21.7976   30.4696 C   0  0  0  0  0  0  0  0  0  0  0  0
  -10.4910  -20.7899   30.5726 C   0  0  0  0  0  0  0  0  0  0  0  0
   -9.8472  -20.1944   29.1066 N   0  0  0  0  0  0  0  0  0  0  0  0
   -5.1550  -12.5723   30.8816 H   0  0  0  0  0  0  0  0  0  0  0  0
   -3.9268  -13.5525   29.9574 H   0  0  0  0  0  0  0  0  0  0  0  0
   -4.7457  -12.4835   29.3088 H   0  0  0  0  0  0  0  0  0  0  0  0
   -6.6834  -14.2030   30.7804 H   0  0  0  0  0  0  0  0  0  0  0  0
   -5.6217  -16.8259   29.6214 H   0  0  0  0  0  0  0  0  0  0  0  0
   -5.6314  -16.3207   31.2656 H   0  0  0  0  0  0  0  0  0  0  0  0
   -4.3329  -15.9662   29.9490 H   0  0  0  0  0  0  0  0  0  0  0  0
   -5.9525  -15.7039   28.4783 H   0  0  0  0  0  0  0  0  0  0  0  0
   -8.0775  -13.3206   26.9531 H   0  0  0  0  0  0  0  0  0  0  0  0
   -6.6910  -13.8906   26.2059 H   0  0  0  0  0  0  0  0  0  0  0  0
   -6.2703  -12.6442   27.4015 H   0  0  0  0  0  0  0  0  0  0  0  0
   -7.6670   -9.2797   28.3810 H   0  0  0  0  0  0  0  0  0  0  0  0
   -6.7803   -9.5984   26.9776 H   0  0  0  0  0  0  0  0  0  0  0  0
   -4.6206   -7.9771   28.3122 H   0  0  0  0  0  0  0  0  0  0  0  0
   -5.5625   -8.3319   27.2589 H   0  0  0  0  0  0  0  0  0  0  0  0
   -5.4415   -8.6135   30.5996 H   0  0  0  0  0  0  0  0  0  0  0  0
   -6.0619   -7.7623   29.2566 H   0  0  0  0  0  0  0  0  0  0  0  0
   -6.0854  -10.6941   30.8320 H   0  0  0  0  0  0  0  0  0  0  0  0
   -7.6432  -10.0876   30.0994 H   0  0  0  0  0  0  0  0  0  0  0  0
   -8.7243  -14.3012   29.2068 H   0  0  0  0  0  0  0  0  0  0  0  0
   -9.0003  -14.5133   27.4733 H   0  0  0  0  0  0  0  0  0  0  0  0
   -9.3594  -17.6513   26.7551 H   0  0  0  0  0  0  0  0  0  0  0  0
   -8.4832  -21.0130   27.4661 H   0  0  0  0  0  0  0  0  0  0  0  0
  -11.9335  -22.2931   31.2716 H   0  0  0  0  0  0  0  0  0  0  0  0
  -10.1899  -20.3403   31.5091 H   0  0  0  0  0  0  0  0  0  0  0  0
  1  2  1  0
  2  3  1  0
  2  4  1  0
  4  5  1  0
  5  6  1  0
  6  7  1  0
  7  8  1  0
  8  9  1  0
  9 10  1  0
 10 11  1  0
  6 12  1  0
 12 13  1  0
 13 14  1  0
 14 15  2  0
 15 16  1  0
 16 17  2  0
 17 18  1  0
 18 19  2  0
 19 20  1  0
 20 21  2  0
 21 22  1  0
 13  4  1  0
 22 14  1  0
 11  7  1  0
 22 18  1  0
  1 23  1  0
  1 24  1  0
  1 25  1  0
  2 26  1  0
  3 27  1  0
  3 28  1  0
  3 29  1  0
  4 30  1  0
  5 31  1  0
  5 32  1  0
  6 33  1  0
  8 34  1  0
  8 35  1  0
  9 36  1  0
  9 37  1  0
 10 38  1  0
 10 39  1  0
 11 40  1  0
 11 41  1  0
 12 42  1  0
 12 43  1  0
 15 44  1  0
 16 45  1  0
 20 46  1  0
 21 47  1  0
M  END
>  <Energy>  (830) 
2153.7548957753588

>  <compound_id>  (830) 
8760

>  <target_id>  (830) 
1

>  <reference_id>  (830) 
107

>  <inspiration_ids>  (830) 
[53, 107]

>  <energy_score>  (830) 
2009.129936680742

>  <distance_score>  (830) 
8.635491446098111

>  <path>  (830) 
/opt/xchem-fragalysis-2/maxwin/BulkDock/SCRATCH/511013/C8760-P107/C8760-P107.minimised.mol

>  <scratch_subdir>  (830) 
/opt/xchem-fragalysis-2/maxwin/BulkDock/SCRATCH/511013/C8760-P107

>  <fragmenstein_runtime>  (830) 
20.880404710769653

>  <fragmenstein_outcome>  (830) 
too moved

>  <fragmenstein_mode>  (830) 
expansion

>  <fragmenstein_error>  (830) 


$$$$
C8759-P53
     RDKit          3D

 38 41  0  0  0  0  0  0  0  0999 V2000
  -12.0063  -14.1439   25.4888 C   0  0  0  0  0  0  0  0  0  0  0  0
  -12.4540  -12.7412   25.6876 C   0  0  0  0  0  0  0  0  0  0  0  0
  -12.9779  -12.3833   26.8827 C   0  0  0  0  0  0  0  0  0  0  0  0
  -13.2605  -10.9825   27.1741 N   0  0  0  0  0  0  0  0  0  0  0  0
  -13.6940  -10.3797   28.4478 C   0  0  0  0  0  0  0  0  0  0  0  0
  -12.9238   -9.0500   28.5700 C   0  0  0  0  0  0  0  0  0  0  0  0
  -12.9269   -8.4696   27.1550 C   0  0  0  0  0  0  0  0  0  0  0  0
  -11.9452   -7.3222   26.9515 N   0  0  0  0  0  0  0  0  0  0  0  0
  -12.1645   -6.5946   25.6770 C   0  0  0  0  0  0  0  0  0  0  0  0
  -11.5498   -5.1937   25.8476 C   0  0  0  0  0  0  0  0  0  0  0  0
  -11.3045   -5.0519   27.3368 C   0  0  0  0  0  0  0  0  0  0  0  0
  -12.0641   -6.2311   27.9492 C   0  0  0  0  0  0  0  0  0  0  0  0
  -12.7491   -9.8175   26.3291 C   0  0  0  0  0  0  0  0  0  0  0  0
  -13.0815  -13.4741   27.8259 N   0  0  0  0  0  0  0  0  0  0  0  0
  -13.6421  -13.5819   29.0816 C   0  0  0  0  0  0  0  0  0  0  0  0
  -13.1020  -14.7151   29.6379 C   0  0  0  0  0  0  0  0  0  0  0  0
  -12.3896  -15.4201   28.7141 N   0  0  0  0  0  0  0  0  0  0  0  0
  -12.4673  -14.7258   27.5993 C   0  0  0  0  0  0  0  0  0  0  0  0
  -11.9816  -15.0773   26.3778 N   0  0  0  0  0  0  0  0  0  0  0  0
  -11.6382  -14.3704   24.4742 H   0  0  0  0  0  0  0  0  0  0  0  0
  -12.2834  -12.0552   24.8714 H   0  0  0  0  0  0  0  0  0  0  0  0
  -14.7730  -10.1948   28.4023 H   0  0  0  0  0  0  0  0  0  0  0  0
  -13.4852  -10.9734   29.3350 H   0  0  0  0  0  0  0  0  0  0  0  0
  -11.8965   -9.2399   28.9028 H   0  0  0  0  0  0  0  0  0  0  0  0
  -13.3992   -8.3867   29.2995 H   0  0  0  0  0  0  0  0  0  0  0  0
  -13.9413   -8.0945   26.9574 H   0  0  0  0  0  0  0  0  0  0  0  0
  -11.7393   -7.1275   24.8230 H   0  0  0  0  0  0  0  0  0  0  0  0
  -13.2386   -6.4765   25.4819 H   0  0  0  0  0  0  0  0  0  0  0  0
  -12.2539   -4.4312   25.4961 H   0  0  0  0  0  0  0  0  0  0  0  0
  -10.6227   -5.0665   25.2826 H   0  0  0  0  0  0  0  0  0  0  0  0
  -11.6600   -4.0929   27.7254 H   0  0  0  0  0  0  0  0  0  0  0  0
  -10.2346   -5.1160   27.5338 H   0  0  0  0  0  0  0  0  0  0  0  0
  -11.6488   -6.5208   28.9152 H   0  0  0  0  0  0  0  0  0  0  0  0
  -13.1163   -5.9542   28.0953 H   0  0  0  0  0  0  0  0  0  0  0  0
  -13.2998   -9.7614   25.3845 H   0  0  0  0  0  0  0  0  0  0  0  0
  -11.6948   -9.9824   26.1174 H   0  0  0  0  0  0  0  0  0  0  0  0
  -14.3044  -12.8391   29.4895 H   0  0  0  0  0  0  0  0  0  0  0  0
  -13.2156  -15.0731   30.6517 H   0  0  0  0  0  0  0  0  0  0  0  0
  1  2  1  0
  2  3  2  0
  3  4  1  0
  4  5  1  0
  5  6  1  0
  6  7  1  0
  7  8  1  0
  8  9  1  0
  9 10  1  0
 10 11  1  0
 11 12  1  0
  7 13  1  0
  3 14  1  0
 14 15  1  0
 15 16  2  0
 16 17  1  0
 17 18  2  0
 18 19  1  0
 19  1  2  0
 13  4  1  0
 18 14  1  0
 12  8  1  0
  1 20  1  0
  2 21  1  0
  5 22  1  0
  5 23  1  0
  6 24  1  0
  6 25  1  0
  7 26  1  0
  9 27  1  0
  9 28  1  0
 10 29  1  0
 10 30  1  0
 11 31  1  0
 11 32  1  0
 12 33  1  0
 12 34  1  0
 13 35  1  0
 13 36  1  0
 15 37  1  0
 16 38  1  0
M  END
>  <Energy>  (831) 
94.347959283741062

>  <compound_id>  (831) 
8759

>  <target_id>  (831) 
1

>  <reference_id>  (831) 
53

>  <inspiration_ids>  (831) 
[53, 107]

>  <energy_score>  (831) 
-32.86166444455739

>  <distance_score>  (831) 
14.492641085986456

>  <path>  (831) 
/opt/xchem-fragalysis-2/maxwin/BulkDock/SCRATCH/511013/C8759-P53/C8759-P53.minimised.mol

>  <scratch_subdir>  (831) 
/opt/xchem-fragalysis-2/maxwin/BulkDock/SCRATCH/511013/C8759-P53

>  <fragmenstein_runtime>  (831) 
15.701110363006592

>  <fragmenstein_outcome>  (831) 
too moved

>  <fragmenstein_mode>  (831) 
expansion

>  <fragmenstein_error>  (831) 


$$$$
C8759-P107
     RDKit          3D

 38 41  0  0  0  0  0  0  0  0999 V2000
   -9.5568  -20.5974   27.6896 C   0  0  0  0  0  0  0  0  0  0  0  0
   -9.0356  -18.6413   27.9565 C   0  0  0  0  0  0  0  0  0  0  0  0
  -10.1034  -17.9892   28.7984 C   0  0  0  0  0  0  0  0  0  0  0  0
   -8.8724  -16.5431   28.8842 N   0  0  0  0  0  0  0  0  0  0  0  0
   -7.5191  -16.5172   29.6714 C   0  0  0  0  0  0  0  0  0  0  0  0
   -6.4908  -15.4027   29.1613 C   0  0  0  0  0  0  0  0  0  0  0  0
   -6.8936  -13.6733   28.9081 C   0  0  0  0  0  0  0  0  0  0  0  0
   -5.9445  -11.8194   28.8691 N   0  0  0  0  0  0  0  0  0  0  0  0
   -6.1098  -10.7475   30.4558 C   0  0  0  0  0  0  0  0  0  0  0  0
   -5.8413   -8.9486   30.4754 C   0  0  0  0  0  0  0  0  0  0  0  0
   -5.9801   -8.5240   29.0892 C   0  0  0  0  0  0  0  0  0  0  0  0
   -6.5976   -9.8978   28.7277 C   0  0  0  0  0  0  0  0  0  0  0  0
   -8.5454  -14.7279   28.3843 C   0  0  0  0  0  0  0  0  0  0  0  0
  -10.5133  -19.9244   29.5010 N   0  0  0  0  0  0  0  0  0  0  0  0
  -10.6596  -20.6931   30.9857 C   0  0  0  0  0  0  0  0  0  0  0  0
  -11.5997  -21.6878   30.9047 C   0  0  0  0  0  0  0  0  0  0  0  0
  -12.0209  -21.7772   29.6414 N   0  0  0  0  0  0  0  0  0  0  0  0
  -11.1096  -21.1268   28.9771 C   0  0  0  0  0  0  0  0  0  0  0  0
  -10.2611  -21.6326   28.1473 N   0  0  0  0  0  0  0  0  0  0  0  0
  -10.0705  -20.7062   26.7452 H   0  0  0  0  0  0  0  0  0  0  0  0
   -8.1017  -18.2019   27.6029 H   0  0  0  0  0  0  0  0  0  0  0  0
   -7.6637  -16.2458   30.7230 H   0  0  0  0  0  0  0  0  0  0  0  0
   -7.0299  -17.4933   29.6056 H   0  0  0  0  0  0  0  0  0  0  0  0
   -5.7428  -15.4695   29.9490 H   0  0  0  0  0  0  0  0  0  0  0  0
   -6.2111  -15.8468   28.2306 H   0  0  0  0  0  0  0  0  0  0  0  0
   -6.7923  -13.7753   30.0156 H   0  0  0  0  0  0  0  0  0  0  0  0
   -7.1676  -10.5718   30.5163 H   0  0  0  0  0  0  0  0  0  0  0  0
   -5.6229  -11.3133   31.2690 H   0  0  0  0  0  0  0  0  0  0  0  0
   -6.1446   -8.1817   31.0544 H   0  0  0  0  0  0  0  0  0  0  0  0
   -4.9203   -8.7452   31.1563 H   0  0  0  0  0  0  0  0  0  0  0  0
   -5.0691   -7.9408   29.0718 H   0  0  0  0  0  0  0  0  0  0  0  0
   -5.5098   -8.4245   28.0953 H   0  0  0  0  0  0  0  0  0  0  0  0
   -7.6515   -9.7137   29.0285 H   0  0  0  0  0  0  0  0  0  0  0  0
   -6.5732   -9.6059   27.6244 H   0  0  0  0  0  0  0  0  0  0  0  0
   -8.4992  -14.8044   27.2931 H   0  0  0  0  0  0  0  0  0  0  0  0
   -9.4516  -14.2706   28.7393 H   0  0  0  0  0  0  0  0  0  0  0  0
  -10.2063  -20.2445   31.8577 H   0  0  0  0  0  0  0  0  0  0  0  0
  -12.0261  -22.2761   31.7080 H   0  0  0  0  0  0  0  0  0  0  0  0
  1  2  1  0
  2  3  2  0
  3  4  1  0
  4  5  1  0
  5  6  1  0
  6  7  1  0
  7  8  1  0
  8  9  1  0
  9 10  1  0
 10 11  1  0
 11 12  1  0
  7 13  1  0
  3 14  1  0
 14 15  1  0
 15 16  2  0
 16 17  1  0
 17 18  2  0
 18 19  1  0
 19  1  2  0
 13  4  1  0
 18 14  1  0
 12  8  1  0
  1 20  1  0
  2 21  1  0
  5 22  1  0
  5 23  1  0
  6 24  1  0
  6 25  1  0
  7 26  1  0
  9 27  1  0
  9 28  1  0
 10 29  1  0
 10 30  1  0
 11 31  1  0
 11 32  1  0
 12 33  1  0
 12 34  1  0
 13 35  1  0
 13 36  1  0
 15 37  1  0
 16 38  1  0
M  END
>  <Energy>  (832) 
1398.2624246549278

>  <compound_id>  (832) 
8759

>  <target_id>  (832) 
1

>  <reference_id>  (832) 
107

>  <inspiration_ids>  (832) 
[53, 107]

>  <energy_score>  (832) 
1271.052800926628

>  <distance_score>  (832) 
12.0621746291349

>  <path>  (832) 
/opt/xchem-fragalysis-2/maxwin/BulkDock/SCRATCH/511013/C8759-P107/C8759-P107.minimised.mol

>  <scratch_subdir>  (832) 
/opt/xchem-fragalysis-2/maxwin/BulkDock/SCRATCH/511013/C8759-P107

>  <fragmenstein_runtime>  (832) 
12.235909700393677

>  <fragmenstein_outcome>  (832) 
too moved

>  <fragmenstein_mode>  (832) 
expansion

>  <fragmenstein_error>  (832) 


$$$$
C8762-P53
     RDKit          3D

 39 42  0  0  0  0  0  0  0  0999 V2000
    1.0645   -5.9350   30.3445 C   0  0  0  0  0  0  0  0  0  0  0  0
    0.5597   -6.9467   31.2060 O   0  0  0  0  0  0  0  0  0  0  0  0
    0.1258   -8.0746   30.6165 C   0  0  0  0  0  0  0  0  0  0  0  0
   -0.5897   -8.9373   31.3279 C   0  0  0  0  0  0  0  0  0  0  0  0
   -1.3537   -9.9484   30.6123 C   0  0  0  0  0  0  0  0  0  0  0  0
   -1.3662  -10.4248   29.2193 C   0  0  0  0  0  0  0  0  0  0  0  0
   -2.3769  -11.7611   28.1880 C   0  0  0  0  0  0  0  0  0  0  0  0
   -3.1464  -12.5949   29.1764 C   0  0  0  0  0  0  0  0  0  0  0  0
   -2.7213  -14.4670   29.5459 C   0  0  0  0  0  0  0  0  0  0  0  0
   -1.9672  -14.9634   28.0389 N   0  0  0  0  0  0  0  0  0  0  0  0
   -2.2445  -16.4823   27.4750 C   0  0  0  0  0  0  0  0  0  0  0  0
   -1.2289  -17.1664   26.9013 C   0  0  0  0  0  0  0  0  0  0  0  0
   -1.4758  -18.4911   26.2698 C   0  0  0  0  0  0  0  0  0  0  0  0
   -2.5570  -19.1928   26.2821 N   0  0  0  0  0  0  0  0  0  0  0  0
   -3.5623  -18.6969   27.0389 C   0  0  0  0  0  0  0  0  0  0  0  0
   -4.6871  -19.3283   27.3346 N   0  0  0  0  0  0  0  0  0  0  0  0
   -5.2917  -18.5906   28.2913 C   0  0  0  0  0  0  0  0  0  0  0  0
   -4.5664  -17.4541   28.5349 C   0  0  0  0  0  0  0  0  0  0  0  0
   -3.4631  -17.4194   27.6630 N   0  0  0  0  0  0  0  0  0  0  0  0
   -2.0623  -13.4044   26.9962 C   0  0  0  0  0  0  0  0  0  0  0  0
   -0.5023   -9.5671   28.6302 N   0  0  0  0  0  0  0  0  0  0  0  0
   -0.1379   -8.3814   29.3237 C   0  0  0  0  0  0  0  0  0  0  0  0
    1.7922   -6.3267   29.6275 H   0  0  0  0  0  0  0  0  0  0  0  0
    1.5772   -5.1939   30.9653 H   0  0  0  0  0  0  0  0  0  0  0  0
    0.2403   -5.4267   29.8363 H   0  0  0  0  0  0  0  0  0  0  0  0
   -0.8069   -8.7255   32.3729 H   0  0  0  0  0  0  0  0  0  0  0  0
   -2.2777   -9.8204   31.1692 H   0  0  0  0  0  0  0  0  0  0  0  0
   -2.6771  -11.3433   27.2603 H   0  0  0  0  0  0  0  0  0  0  0  0
   -3.3300  -11.8855   29.9032 H   0  0  0  0  0  0  0  0  0  0  0  0
   -2.2415  -12.9034   28.8122 H   0  0  0  0  0  0  0  0  0  0  0  0
   -2.1665  -14.8398   30.3939 H   0  0  0  0  0  0  0  0  0  0  0  0
   -3.5293  -15.1070   29.9243 H   0  0  0  0  0  0  0  0  0  0  0  0
   -0.2100  -16.8176   26.8707 H   0  0  0  0  0  0  0  0  0  0  0  0
   -0.6157  -18.8832   25.7003 H   0  0  0  0  0  0  0  0  0  0  0  0
   -6.2091  -18.8927   28.7730 H   0  0  0  0  0  0  0  0  0  0  0  0
   -4.7142  -16.7082   29.2953 H   0  0  0  0  0  0  0  0  0  0  0  0
   -2.8650  -13.4167   26.3025 H   0  0  0  0  0  0  0  0  0  0  0  0
   -1.1814  -13.3177   26.3855 H   0  0  0  0  0  0  0  0  0  0  0  0
   -0.8819   -7.6183   29.0059 H   0  0  0  0  0  0  0  0  0  0  0  0
  1  2  1  0
  2  3  1  0
  3  4  2  0
  4  5  1  0
  5  6  2  0
  6  7  1  0
  7  8  1  0
  8  9  1  0
  9 10  1  0
 10 11  1  0
 11 12  2  0
 12 13  1  0
 13 14  2  0
 14 15  1  0
 15 16  2  0
 16 17  1  0
 17 18  2  0
 18 19  1  0
 10 20  1  0
  6 21  1  0
 21 22  2  0
 22  3  1  0
 20  7  1  0
 19 11  1  0
 19 15  1  0
  1 23  1  0
  1 24  1  0
  1 25  1  0
  4 26  1  0
  5 27  1  0
  7 28  1  0
  8 29  1  0
  8 30  1  0
  9 31  1  0
  9 32  1  0
 12 33  1  0
 13 34  1  0
 17 35  1  0
 18 36  1  0
 20 37  1  0
 20 38  1  0
 22 39  1  0
M  END
>  <Energy>  (833) 
595.27521734625157

>  <compound_id>  (833) 
8762

>  <target_id>  (833) 
1

>  <reference_id>  (833) 
53

>  <inspiration_ids>  (833) 
[53, 107]

>  <energy_score>  (833) 
456.4685557720027

>  <distance_score>  (833) 
12.798965259696368

>  <path>  (833) 
/opt/xchem-fragalysis-2/maxwin/BulkDock/SCRATCH/511013/C8762-P53/C8762-P53.minimised.mol

>  <scratch_subdir>  (833) 
/opt/xchem-fragalysis-2/maxwin/BulkDock/SCRATCH/511013/C8762-P53

>  <fragmenstein_runtime>  (833) 
11.407304048538208

>  <fragmenstein_outcome>  (833) 
too moved

>  <fragmenstein_mode>  (833) 
expansion

>  <fragmenstein_error>  (833) 


$$$$
C8762-P107
     RDKit          3D

 39 42  0  0  0  0  0  0  0  0999 V2000
   -1.6281   -8.0264   31.9229 C   0  0  0  0  0  0  0  0  0  0  0  0
   -2.5197   -8.9476   32.5344 O   0  0  0  0  0  0  0  0  0  0  0  0
   -3.1912   -9.8361   31.7768 C   0  0  0  0  0  0  0  0  0  0  0  0
   -2.7027  -10.7727   30.7483 C   0  0  0  0  0  0  0  0  0  0  0  0
   -3.6450  -11.9950   30.0562 C   0  0  0  0  0  0  0  0  0  0  0  0
   -4.9920  -12.3637   30.4607 C   0  0  0  0  0  0  0  0  0  0  0  0
   -5.9755  -13.9547   29.9574 C   0  0  0  0  0  0  0  0  0  0  0  0
   -6.6361  -15.1807   30.7812 C   0  0  0  0  0  0  0  0  0  0  0  0
   -6.7913  -16.4728   29.9371 C   0  0  0  0  0  0  0  0  0  0  0  0
   -7.5661  -16.0420   28.8116 N   0  0  0  0  0  0  0  0  0  0  0  0
   -8.1719  -16.8757   27.7043 C   0  0  0  0  0  0  0  0  0  0  0  0
   -8.7736  -16.0954   26.7429 C   0  0  0  0  0  0  0  0  0  0  0  0
  -10.1433  -15.6811   27.1809 C   0  0  0  0  0  0  0  0  0  0  0  0
  -10.8275  -16.2627   28.0984 N   0  0  0  0  0  0  0  0  0  0  0  0
  -10.2459  -17.4042   28.5213 C   0  0  0  0  0  0  0  0  0  0  0  0
  -10.7660  -18.3481   29.2535 N   0  0  0  0  0  0  0  0  0  0  0  0
  -10.3776  -20.2206   29.3130 C   0  0  0  0  0  0  0  0  0  0  0  0
   -9.1044  -19.7223   28.2111 C   0  0  0  0  0  0  0  0  0  0  0  0
   -9.0284  -17.9653   28.0576 N   0  0  0  0  0  0  0  0  0  0  0  0
   -7.3023  -14.5334   28.7647 C   0  0  0  0  0  0  0  0  0  0  0  0
   -5.4518  -11.3324   31.4155 N   0  0  0  0  0  0  0  0  0  0  0  0
   -4.5561  -10.1186   32.0914 C   0  0  0  0  0  0  0  0  0  0  0  0
   -0.8568   -7.7678   32.6532 H   0  0  0  0  0  0  0  0  0  0  0  0
   -2.1635   -7.1106   31.6794 H   0  0  0  0  0  0  0  0  0  0  0  0
   -1.1420   -8.3857   31.0169 H   0  0  0  0  0  0  0  0  0  0  0  0
   -1.6769  -10.7202   30.3804 H   0  0  0  0  0  0  0  0  0  0  0  0
   -3.1310  -12.5616   29.3218 H   0  0  0  0  0  0  0  0  0  0  0  0
   -6.2239  -13.2647   29.1833 H   0  0  0  0  0  0  0  0  0  0  0  0
   -7.5954  -14.8926   31.2236 H   0  0  0  0  0  0  0  0  0  0  0  0
   -6.0923  -15.6804   31.5674 H   0  0  0  0  0  0  0  0  0  0  0  0
   -7.2494  -17.2578   30.5208 H   0  0  0  0  0  0  0  0  0  0  0  0
   -5.8021  -16.8578   29.6630 H   0  0  0  0  0  0  0  0  0  0  0  0
   -8.3546  -15.1853   26.3298 H   0  0  0  0  0  0  0  0  0  0  0  0
  -10.5307  -14.7604   26.7124 H   0  0  0  0  0  0  0  0  0  0  0  0
  -11.1781  -20.9605   29.2769 H   0  0  0  0  0  0  0  0  0  0  0  0
   -9.4501  -20.5261   27.5060 H   0  0  0  0  0  0  0  0  0  0  0  0
   -7.0762  -14.1879   27.7522 H   0  0  0  0  0  0  0  0  0  0  0  0
   -8.2829  -14.1579   29.0214 H   0  0  0  0  0  0  0  0  0  0  0  0
   -5.0564   -9.6251   32.9131 H   0  0  0  0  0  0  0  0  0  0  0  0
  1  2  1  0
  2  3  1  0
  3  4  2  0
  4  5  1  0
  5  6  2  0
  6  7  1  0
  7  8  1  0
  8  9  1  0
  9 10  1  0
 10 11  1  0
 11 12  2  0
 12 13  1  0
 13 14  2  0
 14 15  1  0
 15 16  2  0
 16 17  1  0
 17 18  2  0
 18 19  1  0
 10 20  1  0
  6 21  1  0
 21 22  2  0
 22  3  1  0
 20  7  1  0
 19 11  1  0
 19 15  1  0
  1 23  1  0
  1 24  1  0
  1 25  1  0
  4 26  1  0
  5 27  1  0
  7 28  1  0
  8 29  1  0
  8 30  1  0
  9 31  1  0
  9 32  1  0
 12 33  1  0
 13 34  1  0
 17 35  1  0
 18 36  1  0
 20 37  1  0
 20 38  1  0
 22 39  1  0
M  END
>  <Energy>  (834) 
673.3724337482696

>  <compound_id>  (834) 
8762

>  <target_id>  (834) 
1

>  <reference_id>  (834) 
107

>  <inspiration_ids>  (834) 
[53, 107]

>  <energy_score>  (834) 
534.5657721740247

>  <distance_score>  (834) 
13.169232156919751

>  <path>  (834) 
/opt/xchem-fragalysis-2/maxwin/BulkDock/SCRATCH/511013/C8762-P107/C8762-P107.minimised.mol

>  <scratch_subdir>  (834) 
/opt/xchem-fragalysis-2/maxwin/BulkDock/SCRATCH/511013/C8762-P107

>  <fragmenstein_runtime>  (834) 
10.058919906616211

>  <fragmenstein_outcome>  (834) 
too moved

>  <fragmenstein_mode>  (834) 
expansion

>  <fragmenstein_error>  (834) 


$$$$
C8763-P53
     RDKit          3D

 40 43  0  0  0  0  0  0  0  0999 V2000
   -0.4291  -14.4665   25.4599 C   0  0  0  0  0  0  0  0  0  0  0  0
   -1.3467  -14.7545   24.4645 C   0  0  0  0  0  0  0  0  0  0  0  0
   -2.2376  -15.8306   24.6364 C   0  0  0  0  0  0  0  0  0  0  0  0
   -2.2852  -16.6069   25.8215 C   0  0  0  0  0  0  0  0  0  0  0  0
   -3.4372  -17.3328   25.9702 O   0  0  0  0  0  0  0  0  0  0  0  0
   -4.3129  -18.1898   26.8910 C   0  0  0  0  0  0  0  0  0  0  0  0
   -5.8471  -17.8715   28.0476 C   0  0  0  0  0  0  0  0  0  0  0  0
   -5.2063  -16.4295   29.1842 C   0  0  0  0  0  0  0  0  0  0  0  0
   -5.5834  -16.2950   30.4458 C   0  0  0  0  0  0  0  0  0  0  0  0
   -6.6944  -18.0133   30.2289 C   0  0  0  0  0  0  0  0  0  0  0  0
   -7.7963  -18.1223   28.4770 N   0  0  0  0  0  0  0  0  0  0  0  0
   -8.7468  -19.7370   28.3150 C   0  0  0  0  0  0  0  0  0  0  0  0
   -7.9214  -20.9863   27.7326 C   0  0  0  0  0  0  0  0  0  0  0  0
   -8.2377  -22.4866   27.9037 C   0  0  0  0  0  0  0  0  0  0  0  0
   -9.3832  -23.1123   27.9916 N   0  0  0  0  0  0  0  0  0  0  0  0
  -10.4182  -22.2384   28.1978 C   0  0  0  0  0  0  0  0  0  0  0  0
  -11.6920  -22.4328   28.1313 N   0  0  0  0  0  0  0  0  0  0  0  0
  -12.1413  -21.6202   29.1094 C   0  0  0  0  0  0  0  0  0  0  0  0
  -11.1198  -20.9567   29.6931 C   0  0  0  0  0  0  0  0  0  0  0  0
  -10.2371  -20.8550   28.5970 N   0  0  0  0  0  0  0  0  0  0  0  0
   -1.3180  -16.3398   26.7680 C   0  0  0  0  0  0  0  0  0  0  0  0
   -0.3927  -15.2856   26.5895 C   0  0  0  0  0  0  0  0  0  0  0  0
    0.2764  -13.6503   25.3431 H   0  0  0  0  0  0  0  0  0  0  0  0
   -1.3885  -14.1571   23.5585 H   0  0  0  0  0  0  0  0  0  0  0  0
   -2.9877  -16.0126   23.8670 H   0  0  0  0  0  0  0  0  0  0  0  0
   -4.6375  -19.0165   26.2307 H   0  0  0  0  0  0  0  0  0  0  0  0
   -3.5257  -18.6110   27.4839 H   0  0  0  0  0  0  0  0  0  0  0  0
   -5.4390  -18.8367   27.9773 H   0  0  0  0  0  0  0  0  0  0  0  0
   -5.8835  -15.5751   28.9549 H   0  0  0  0  0  0  0  0  0  0  0  0
   -4.1816  -16.2864   28.8572 H   0  0  0  0  0  0  0  0  0  0  0  0
   -5.9626  -15.2457   30.6812 H   0  0  0  0  0  0  0  0  0  0  0  0
   -4.6180  -16.0294   30.9784 H   0  0  0  0  0  0  0  0  0  0  0  0
   -6.0022  -18.5637   29.8653 H   0  0  0  0  0  0  0  0  0  0  0  0
   -7.2449  -18.2493   31.1362 H   0  0  0  0  0  0  0  0  0  0  0  0
   -6.8757  -20.9858   27.5280 H   0  0  0  0  0  0  0  0  0  0  0  0
   -7.3387  -22.9866   28.1111 H   0  0  0  0  0  0  0  0  0  0  0  0
  -13.1260  -21.6907   29.4907 H   0  0  0  0  0  0  0  0  0  0  0  0
  -10.9783  -20.5836   30.6808 H   0  0  0  0  0  0  0  0  0  0  0  0
   -1.2764  -16.9426   27.6542 H   0  0  0  0  0  0  0  0  0  0  0  0
    0.3633  -15.1177   27.3503 H   0  0  0  0  0  0  0  0  0  0  0  0
  1  2  2  0
  2  3  1  0
  3  4  2  0
  4  5  1  0
  5  6  1  0
  6  7  1  0
  7  8  1  0
  8  9  1  0
  9 10  1  0
 10 11  1  0
 11 12  1  0
 12 13  2  0
 13 14  1  0
 14 15  2  0
 15 16  1  0
 16 17  2  0
 17 18  1  0
 18 19  2  0
 19 20  1  0
  4 21  1  0
 21 22  2  0
 22  1  1  0
 11  7  1  0
 20 12  1  0
 20 16  1  0
  1 23  1  0
  2 24  1  0
  3 25  1  0
  6 26  1  0
  6 27  1  0
  7 28  1  0
  8 29  1  0
  8 30  1  0
  9 31  1  0
  9 32  1  0
 10 33  1  0
 10 34  1  0
 13 35  1  0
 14 36  1  0
 18 37  1  0
 19 38  1  0
 21 39  1  0
 22 40  1  0
M  END
>  <Energy>  (835) 
901.50460758315421

>  <compound_id>  (835) 
8763

>  <target_id>  (835) 
1

>  <reference_id>  (835) 
53

>  <inspiration_ids>  (835) 
[53, 107]

>  <energy_score>  (835) 
755.9784650556328

>  <distance_score>  (835) 
12.926291626716385

>  <path>  (835) 
/opt/xchem-fragalysis-2/maxwin/BulkDock/SCRATCH/511013/C8763-P53/C8763-P53.minimised.mol

>  <scratch_subdir>  (835) 
/opt/xchem-fragalysis-2/maxwin/BulkDock/SCRATCH/511013/C8763-P53

>  <fragmenstein_runtime>  (835) 
12.046018838882446

>  <fragmenstein_outcome>  (835) 
too moved

>  <fragmenstein_mode>  (835) 
expansion

>  <fragmenstein_error>  (835) 


$$$$
C8763-P107
     RDKit          3D

 40 43  0  0  0  0  0  0  0  0999 V2000
   -9.6949   -9.7111   24.2447 C   0  0  0  0  0  0  0  0  0  0  0  0
   -8.5919  -10.5515   24.2013 C   0  0  0  0  0  0  0  0  0  0  0  0
   -8.6619  -11.8499   24.7380 C   0  0  0  0  0  0  0  0  0  0  0  0
   -9.8528  -12.3648   25.2856 C   0  0  0  0  0  0  0  0  0  0  0  0
   -9.7520  -13.6177   25.8507 O   0  0  0  0  0  0  0  0  0  0  0  0
  -10.7427  -14.3518   26.6838 C   0  0  0  0  0  0  0  0  0  0  0  0
  -10.8630  -16.1209   26.5551 C   0  0  0  0  0  0  0  0  0  0  0  0
  -10.6717  -16.1736   25.0344 C   0  0  0  0  0  0  0  0  0  0  0  0
   -9.1213  -16.1395   24.9769 C   0  0  0  0  0  0  0  0  0  0  0  0
   -8.7139  -16.2859   26.4813 C   0  0  0  0  0  0  0  0  0  0  0  0
   -9.6563  -17.2772   26.9807 N   0  0  0  0  0  0  0  0  0  0  0  0
   -9.3277  -18.7786   28.0461 C   0  0  0  0  0  0  0  0  0  0  0  0
   -8.2409  -19.2863   28.3041 C   0  0  0  0  0  0  0  0  0  0  0  0
   -9.2486  -20.8046   27.6337 C   0  0  0  0  0  0  0  0  0  0  0  0
  -10.3374  -21.5969   27.7162 N   0  0  0  0  0  0  0  0  0  0  0  0
  -11.0960  -21.2367   28.6614 C   0  0  0  0  0  0  0  0  0  0  0  0
  -11.9997  -21.9019   29.3102 N   0  0  0  0  0  0  0  0  0  0  0  0
  -11.6252  -21.7456   30.5746 C   0  0  0  0  0  0  0  0  0  0  0  0
  -10.6003  -20.8299   30.6301 C   0  0  0  0  0  0  0  0  0  0  0  0
  -10.3540  -20.1695   29.1937 N   0  0  0  0  0  0  0  0  0  0  0  0
  -10.9726  -11.5323   25.2578 C   0  0  0  0  0  0  0  0  0  0  0  0
  -10.8819  -10.2033   24.7777 C   0  0  0  0  0  0  0  0  0  0  0  0
   -9.6437   -8.7065   23.8381 H   0  0  0  0  0  0  0  0  0  0  0  0
   -7.6783  -10.2149   23.7305 H   0  0  0  0  0  0  0  0  0  0  0  0
   -7.7678  -12.4693   24.7426 H   0  0  0  0  0  0  0  0  0  0  0  0
  -11.7419  -13.9900   26.4157 H   0  0  0  0  0  0  0  0  0  0  0  0
  -10.5592  -14.1178   27.7253 H   0  0  0  0  0  0  0  0  0  0  0  0
  -11.7381  -16.2483   27.1742 H   0  0  0  0  0  0  0  0  0  0  0  0
  -11.1214  -15.3408   24.4843 H   0  0  0  0  0  0  0  0  0  0  0  0
  -11.0605  -17.0783   24.5719 H   0  0  0  0  0  0  0  0  0  0  0  0
   -8.8062  -16.9364   24.2975 H   0  0  0  0  0  0  0  0  0  0  0  0
   -8.7222  -15.2211   24.5388 H   0  0  0  0  0  0  0  0  0  0  0  0
   -8.7599  -15.2847   26.9029 H   0  0  0  0  0  0  0  0  0  0  0  0
   -7.8422  -16.5137   27.0108 H   0  0  0  0  0  0  0  0  0  0  0  0
   -7.9229  -18.3027   28.0490 H   0  0  0  0  0  0  0  0  0  0  0  0
   -8.1224  -21.3591   27.4261 H   0  0  0  0  0  0  0  0  0  0  0  0
  -12.1026  -22.2667   31.3956 H   0  0  0  0  0  0  0  0  0  0  0  0
  -10.1738  -20.4416   31.5423 H   0  0  0  0  0  0  0  0  0  0  0  0
  -11.9207  -11.8699   25.6641 H   0  0  0  0  0  0  0  0  0  0  0  0
  -11.7646   -9.5684   24.8097 H   0  0  0  0  0  0  0  0  0  0  0  0
  1  2  2  0
  2  3  1  0
  3  4  2  0
  4  5  1  0
  5  6  1  0
  6  7  1  0
  7  8  1  0
  8  9  1  0
  9 10  1  0
 10 11  1  0
 11 12  1  0
 12 13  2  0
 13 14  1  0
 14 15  2  0
 15 16  1  0
 16 17  2  0
 17 18  1  0
 18 19  2  0
 19 20  1  0
  4 21  1  0
 21 22  2  0
 22  1  1  0
 11  7  1  0
 20 12  1  0
 20 16  1  0
  1 23  1  0
  2 24  1  0
  3 25  1  0
  6 26  1  0
  6 27  1  0
  7 28  1  0
  8 29  1  0
  8 30  1  0
  9 31  1  0
  9 32  1  0
 10 33  1  0
 10 34  1  0
 13 35  1  0
 14 36  1  0
 18 37  1  0
 19 38  1  0
 21 39  1  0
 22 40  1  0
M  END
>  <Energy>  (836) 
788.33054943674426

>  <compound_id>  (836) 
8763

>  <target_id>  (836) 
1

>  <reference_id>  (836) 
107

>  <inspiration_ids>  (836) 
[53, 107]

>  <energy_score>  (836) 
642.8044069092273

>  <distance_score>  (836) 
11.74404383508027

>  <path>  (836) 
/opt/xchem-fragalysis-2/maxwin/BulkDock/SCRATCH/511013/C8763-P107/C8763-P107.minimised.mol

>  <scratch_subdir>  (836) 
/opt/xchem-fragalysis-2/maxwin/BulkDock/SCRATCH/511013/C8763-P107

>  <fragmenstein_runtime>  (836) 
17.112815380096436

>  <fragmenstein_outcome>  (836) 
too moved

>  <fragmenstein_mode>  (836) 
expansion

>  <fragmenstein_error>  (836) 


$$$$
C8765-P107
     RDKit          2D

  0  0  0  0  0  0  0  0  0  0999 V2000
M  END
>  <compound_id>  (837) 
8765

>  <target_id>  (837) 
1

>  <reference_id>  (837) 
107

>  <inspiration_ids>  (837) 
[53, 107]

>  <energy_score>  (837) 
nan

>  <distance_score>  (837) 
nan

>  <path>  (837) 
/opt/xchem-fragalysis-2/maxwin/BulkDock/SCRATCH/511013/C8765-P107/C8765-P107.minimised.mol

>  <scratch_subdir>  (837) 
/opt/xchem-fragalysis-2/maxwin/BulkDock/SCRATCH/511013/C8765-P107

>  <fragmenstein_runtime>  (837) 
0.3270835876464844

>  <fragmenstein_outcome>  (837) 
too distant

>  <fragmenstein_mode>  (837) 
expansion

>  <fragmenstein_error>  (837) 
DistanceError: hit0

$$$$
C8772-P53
     RDKit          3D

 40 43  0  0  0  0  0  0  0  0999 V2000
   -8.5534  -14.4958   24.6360 C   0  0  0  0  0  0  0  0  0  0  0  0
   -7.8406  -13.1932   24.6310 C   0  0  0  0  0  0  0  0  0  0  0  0
   -7.0226  -12.8612   25.6619 C   0  0  0  0  0  0  0  0  0  0  0  0
   -6.4804  -11.4319   25.6438 N   0  0  0  0  0  0  0  0  0  0  0  0
   -7.3643  -10.3710   25.6378 C   0  0  0  0  0  0  0  0  0  0  0  0
   -6.9366   -9.0904   27.0779 C   0  0  0  0  0  0  0  0  0  0  0  0
   -5.2010   -8.5594   27.4626 C   0  0  0  0  0  0  0  0  0  0  0  0
   -3.3414   -7.5651   28.2374 C   0  0  0  0  0  0  0  0  0  0  0  0
   -2.3239   -7.1279   29.9045 C   0  0  0  0  0  0  0  0  0  0  0  0
   -0.9378   -6.0800   30.0919 C   0  0  0  0  0  0  0  0  0  0  0  0
    0.2794   -6.7626   30.0927 O   0  0  0  0  0  0  0  0  0  0  0  0
   -0.0351   -8.0635   29.7376 C   0  0  0  0  0  0  0  0  0  0  0  0
   -1.3673   -8.1626   28.6523 C   0  0  0  0  0  0  0  0  0  0  0  0
   -5.6703  -10.6159   26.6362 C   0  0  0  0  0  0  0  0  0  0  0  0
   -6.8941  -13.9305   26.6576 N   0  0  0  0  0  0  0  0  0  0  0  0
   -6.0869  -14.1453   27.7606 C   0  0  0  0  0  0  0  0  0  0  0  0
   -6.5158  -15.3017   28.3715 C   0  0  0  0  0  0  0  0  0  0  0  0
   -7.4978  -15.8969   27.6511 N   0  0  0  0  0  0  0  0  0  0  0  0
   -7.6863  -15.1225   26.5994 C   0  0  0  0  0  0  0  0  0  0  0  0
   -8.5129  -15.3995   25.5545 N   0  0  0  0  0  0  0  0  0  0  0  0
   -9.1942  -14.6702   23.7554 H   0  0  0  0  0  0  0  0  0  0  0  0
   -8.0517  -12.5199   23.8119 H   0  0  0  0  0  0  0  0  0  0  0  0
   -7.1562  -10.0443   24.6555 H   0  0  0  0  0  0  0  0  0  0  0  0
   -8.3507  -10.8575   25.7087 H   0  0  0  0  0  0  0  0  0  0  0  0
   -7.4979   -9.1630   28.0261 H   0  0  0  0  0  0  0  0  0  0  0  0
   -7.2581   -8.3717   26.4439 H   0  0  0  0  0  0  0  0  0  0  0  0
   -4.7134   -8.1967   26.6897 H   0  0  0  0  0  0  0  0  0  0  0  0
   -2.9230   -7.1089   27.3171 H   0  0  0  0  0  0  0  0  0  0  0  0
   -1.8362   -7.9138   30.5301 H   0  0  0  0  0  0  0  0  0  0  0  0
   -2.8773   -7.2997   30.8215 H   0  0  0  0  0  0  0  0  0  0  0  0
   -0.8366   -5.2936   29.3333 H   0  0  0  0  0  0  0  0  0  0  0  0
   -1.0380   -5.5894   31.0699 H   0  0  0  0  0  0  0  0  0  0  0  0
   -0.1831   -8.6776   30.6412 H   0  0  0  0  0  0  0  0  0  0  0  0
    0.8391   -8.5395   29.2678 H   0  0  0  0  0  0  0  0  0  0  0  0
   -0.7818   -8.3619   27.7597 H   0  0  0  0  0  0  0  0  0  0  0  0
   -1.3207   -9.2453   29.0064 H   0  0  0  0  0  0  0  0  0  0  0  0
   -5.5670  -11.7207   27.4293 H   0  0  0  0  0  0  0  0  0  0  0  0
   -4.7139  -11.5871   26.9630 H   0  0  0  0  0  0  0  0  0  0  0  0
   -5.2797  -13.4927   28.0370 H   0  0  0  0  0  0  0  0  0  0  0  0
   -6.1331  -15.7492   29.2794 H   0  0  0  0  0  0  0  0  0  0  0  0
  1  2  1  0
  2  3  2  0
  3  4  1  0
  4  5  1  0
  5  6  1  0
  6  7  1  0
  7  8  1  0
  8  9  1  0
  9 10  1  0
 10 11  1  0
 11 12  1  0
 12 13  1  0
  7 14  1  0
  3 15  1  0
 15 16  1  0
 16 17  2  0
 17 18  1  0
 18 19  2  0
 19 20  1  0
 20  1  2  0
 14  4  1  0
 19 15  1  0
 13  8  1  0
  1 21  1  0
  2 22  1  0
  5 23  1  0
  5 24  1  0
  6 25  1  0
  6 26  1  0
  7 27  1  0
  8 28  1  0
  9 29  1  0
  9 30  1  0
 10 31  1  0
 10 32  1  0
 12 33  1  0
 12 34  1  0
 13 35  1  0
 13 36  1  0
 14 37  1  0
 14 38  1  0
 16 39  1  0
 17 40  1  0
M  END
>  <Energy>  (838) 
1178.6040854795285

>  <compound_id>  (838) 
8772

>  <target_id>  (838) 
1

>  <reference_id>  (838) 
53

>  <inspiration_ids>  (838) 
[53, 107]

>  <energy_score>  (838) 
1067.6245293895836

>  <distance_score>  (838) 
12.175833101946523

>  <path>  (838) 
/opt/xchem-fragalysis-2/maxwin/BulkDock/SCRATCH/511013/C8772-P53/C8772-P53.minimised.mol

>  <scratch_subdir>  (838) 
/opt/xchem-fragalysis-2/maxwin/BulkDock/SCRATCH/511013/C8772-P53

>  <fragmenstein_runtime>  (838) 
12.088385105133057

>  <fragmenstein_outcome>  (838) 
too moved

>  <fragmenstein_mode>  (838) 
expansion

>  <fragmenstein_error>  (838) 


$$$$
C8772-P107
     RDKit          3D

 40 43  0  0  0  0  0  0  0  0999 V2000
   -6.0202  -16.7931   27.8769 C   0  0  0  0  0  0  0  0  0  0  0  0
   -6.2631  -15.3903   28.3129 C   0  0  0  0  0  0  0  0  0  0  0  0
   -7.4142  -14.7791   28.7580 C   0  0  0  0  0  0  0  0  0  0  0  0
   -6.5463  -12.9239   28.7242 N   0  0  0  0  0  0  0  0  0  0  0  0
   -6.5241  -10.8817   29.4106 C   0  0  0  0  0  0  0  0  0  0  0  0
   -6.9431   -9.4501   28.6456 C   0  0  0  0  0  0  0  0  0  0  0  0
   -5.9890   -9.5664   29.6425 C   0  0  0  0  0  0  0  0  0  0  0  0
   -4.5906   -8.0033   29.4253 C   0  0  0  0  0  0  0  0  0  0  0  0
   -2.7189   -7.2113   29.0787 C   0  0  0  0  0  0  0  0  0  0  0  0
   -1.4712   -6.9398   30.1040 C   0  0  0  0  0  0  0  0  0  0  0  0
   -1.4099   -8.0358   30.9666 O   0  0  0  0  0  0  0  0  0  0  0  0
   -2.4614   -7.8831   31.8721 C   0  0  0  0  0  0  0  0  0  0  0  0
   -3.7888   -8.4042   31.2368 C   0  0  0  0  0  0  0  0  0  0  0  0
   -5.2846  -11.6869   29.5325 C   0  0  0  0  0  0  0  0  0  0  0  0
   -8.6120  -16.4302   28.7874 N   0  0  0  0  0  0  0  0  0  0  0  0
  -10.1148  -17.7547   28.9189 C   0  0  0  0  0  0  0  0  0  0  0  0
  -10.4175  -19.7672   29.2875 C   0  0  0  0  0  0  0  0  0  0  0  0
   -8.8112  -19.0892   28.3937 N   0  0  0  0  0  0  0  0  0  0  0  0
   -8.0081  -17.8358   28.2969 C   0  0  0  0  0  0  0  0  0  0  0  0
   -6.7439  -17.8537   27.8170 N   0  0  0  0  0  0  0  0  0  0  0  0
   -4.9908  -16.9268   27.4961 H   0  0  0  0  0  0  0  0  0  0  0  0
   -5.3736  -14.7837   28.1667 H   0  0  0  0  0  0  0  0  0  0  0  0
   -6.2489  -10.9472   30.7780 H   0  0  0  0  0  0  0  0  0  0  0  0
   -7.5543  -10.4390   30.0887 H   0  0  0  0  0  0  0  0  0  0  0  0
   -8.0208   -9.3243   28.7553 H   0  0  0  0  0  0  0  0  0  0  0  0
   -6.5526   -9.2590   27.6464 H   0  0  0  0  0  0  0  0  0  0  0  0
   -6.1519   -9.2417   30.6592 H   0  0  0  0  0  0  0  0  0  0  0  0
   -4.7201   -7.9985   28.3313 H   0  0  0  0  0  0  0  0  0  0  0  0
   -1.9397   -7.8018   28.5825 H   0  0  0  0  0  0  0  0  0  0  0  0
   -2.6450   -6.6689   28.1326 H   0  0  0  0  0  0  0  0  0  0  0  0
   -1.4221   -6.0170   30.6956 H   0  0  0  0  0  0  0  0  0  0  0  0
   -0.5356   -6.9190   29.5247 H   0  0  0  0  0  0  0  0  0  0  0  0
   -2.4384   -6.8788   32.2839 H   0  0  0  0  0  0  0  0  0  0  0  0
   -2.2326   -8.5253   32.7339 H   0  0  0  0  0  0  0  0  0  0  0  0
   -3.5283   -9.4655   31.4135 H   0  0  0  0  0  0  0  0  0  0  0  0
   -4.6004   -8.3361   31.9651 H   0  0  0  0  0  0  0  0  0  0  0  0
   -4.3878  -12.0442   28.9486 H   0  0  0  0  0  0  0  0  0  0  0  0
   -5.0127  -12.1186   30.5326 H   0  0  0  0  0  0  0  0  0  0  0  0
  -10.8909  -17.0217   29.1396 H   0  0  0  0  0  0  0  0  0  0  0  0
  -10.2614  -20.8018   28.9040 H   0  0  0  0  0  0  0  0  0  0  0  0
  1  2  1  0
  2  3  2  0
  3  4  1  0
  4  5  1  0
  5  6  1  0
  6  7  1  0
  7  8  1  0
  8  9  1  0
  9 10  1  0
 10 11  1  0
 11 12  1  0
 12 13  1  0
  7 14  1  0
  3 15  1  0
 15 16  1  0
 16 17  2  0
 17 18  1  0
 18 19  2  0
 19 20  1  0
 20  1  2  0
 14  4  1  0
 19 15  1  0
 13  8  1  0
  1 21  1  0
  2 22  1  0
  5 23  1  0
  5 24  1  0
  6 25  1  0
  6 26  1  0
  7 27  1  0
  8 28  1  0
  9 29  1  0
  9 30  1  0
 10 31  1  0
 10 32  1  0
 12 33  1  0
 12 34  1  0
 13 35  1  0
 13 36  1  0
 14 37  1  0
 14 38  1  0
 16 39  1  0
 17 40  1  0
M  END
>  <Energy>  (839) 
2191.7413335598399

>  <compound_id>  (839) 
8772

>  <target_id>  (839) 
1

>  <reference_id>  (839) 
107

>  <inspiration_ids>  (839) 
[53, 107]

>  <energy_score>  (839) 
2080.76177746991

>  <distance_score>  (839) 
11.368049679733332

>  <path>  (839) 
/opt/xchem-fragalysis-2/maxwin/BulkDock/SCRATCH/511013/C8772-P107/C8772-P107.minimised.mol

>  <scratch_subdir>  (839) 
/opt/xchem-fragalysis-2/maxwin/BulkDock/SCRATCH/511013/C8772-P107

>  <fragmenstein_runtime>  (839) 
9.702362298965454

>  <fragmenstein_outcome>  (839) 
too moved

>  <fragmenstein_mode>  (839) 
expansion

>  <fragmenstein_error>  (839) 


$$$$
C8773-P53
     RDKit          3D

 44 47  0  0  0  0  0  0  0  0999 V2000
   -3.1142  -11.8332   27.4381 O   0  0  0  0  0  0  0  0  0  0  0  0
   -2.1390  -10.7470   26.6103 C   0  0  0  0  0  0  0  0  0  0  0  0
   -1.9638   -9.7457   24.7170 C   0  0  0  0  0  0  0  0  0  0  0  0
   -1.2229   -7.6057   24.1568 C   0  0  0  0  0  0  0  0  0  0  0  0
   -0.1392   -6.7252   22.8397 C   0  0  0  0  0  0  0  0  0  0  0  0
    1.0246   -5.4787   22.1743 C   0  0  0  0  0  0  0  0  0  0  0  0
    1.9624   -6.2492   21.4569 O   0  0  0  0  0  0  0  0  0  0  0  0
    1.7931   -7.5555   21.9850 C   0  0  0  0  0  0  0  0  0  0  0  0
    0.8708   -7.3927   23.4901 C   0  0  0  0  0  0  0  0  0  0  0  0
   -2.7472  -11.7487   24.9010 C   0  0  0  0  0  0  0  0  0  0  0  0
   -3.5136  -12.6438   23.9024 C   0  0  0  0  0  0  0  0  0  0  0  0
   -4.5021  -11.7085   23.4970 N   0  0  0  0  0  0  0  0  0  0  0  0
   -5.8957  -12.3865   23.9126 C   0  0  0  0  0  0  0  0  0  0  0  0
   -6.9306  -11.8310   24.5813 C   0  0  0  0  0  0  0  0  0  0  0  0
   -8.0972  -12.6511   25.0357 C   0  0  0  0  0  0  0  0  0  0  0  0
   -8.2311  -13.9306   24.9749 N   0  0  0  0  0  0  0  0  0  0  0  0
   -7.1950  -14.5706   24.3869 C   0  0  0  0  0  0  0  0  0  0  0  0
   -7.0524  -15.8780   24.2819 N   0  0  0  0  0  0  0  0  0  0  0  0
   -5.9556  -16.0616   23.5039 C   0  0  0  0  0  0  0  0  0  0  0  0
   -5.4104  -14.8568   23.1248 C   0  0  0  0  0  0  0  0  0  0  0  0
   -6.1171  -13.8629   23.7799 N   0  0  0  0  0  0  0  0  0  0  0  0
   -3.4781  -10.1212   23.4369 C   0  0  0  0  0  0  0  0  0  0  0  0
   -2.9181  -11.7183   28.3828 H   0  0  0  0  0  0  0  0  0  0  0  0
   -1.8223  -11.8316   26.6440 H   0  0  0  0  0  0  0  0  0  0  0  0
   -1.3568  -10.5261   27.3886 H   0  0  0  0  0  0  0  0  0  0  0  0
   -1.7271   -6.7615   24.6923 H   0  0  0  0  0  0  0  0  0  0  0  0
   -0.3039   -5.6986   23.3281 H   0  0  0  0  0  0  0  0  0  0  0  0
   -0.3532   -7.4309   21.9929 H   0  0  0  0  0  0  0  0  0  0  0  0
    1.5487   -4.8974   22.9451 H   0  0  0  0  0  0  0  0  0  0  0  0
    0.5664   -4.7548   21.4927 H   0  0  0  0  0  0  0  0  0  0  0  0
    2.7883   -7.9395   22.2410 H   0  0  0  0  0  0  0  0  0  0  0  0
    1.3520   -8.2213   21.2390 H   0  0  0  0  0  0  0  0  0  0  0  0
    1.4779   -6.4647   23.8861 H   0  0  0  0  0  0  0  0  0  0  0  0
    1.6472   -8.0504   24.0251 H   0  0  0  0  0  0  0  0  0  0  0  0
   -1.9428  -12.5574   24.9767 H   0  0  0  0  0  0  0  0  0  0  0  0
   -3.3787  -12.0910   25.6929 H   0  0  0  0  0  0  0  0  0  0  0  0
   -3.0066  -13.1696   23.0835 H   0  0  0  0  0  0  0  0  0  0  0  0
   -3.8662  -13.4890   24.5125 H   0  0  0  0  0  0  0  0  0  0  0  0
   -6.9833  -10.8219   24.9297 H   0  0  0  0  0  0  0  0  0  0  0  0
   -8.9215  -12.0656   25.4690 H   0  0  0  0  0  0  0  0  0  0  0  0
   -5.6256  -17.0522   23.2196 H   0  0  0  0  0  0  0  0  0  0  0  0
   -4.5847  -14.6242   22.4716 H   0  0  0  0  0  0  0  0  0  0  0  0
   -3.4658  -10.2398   22.3311 H   0  0  0  0  0  0  0  0  0  0  0  0
   -3.8182   -9.1403   23.0666 H   0  0  0  0  0  0  0  0  0  0  0  0
  1  2  1  0
  2  3  1  0
  3  4  1  0
  4  5  1  0
  5  6  1  0
  6  7  1  0
  7  8  1  0
  8  9  1  0
  3 10  1  0
 10 11  1  0
 11 12  1  0
 12 13  1  0
 13 14  2  0
 14 15  1  0
 15 16  2  0
 16 17  1  0
 17 18  2  0
 18 19  1  0
 19 20  2  0
 20 21  1  0
 12 22  1  0
 22  3  1  0
  9  4  1  0
 21 13  1  0
 21 17  1  0
  1 23  1  0
  2 24  1  0
  2 25  1  0
  4 26  1  0
  5 27  1  0
  5 28  1  0
  6 29  1  0
  6 30  1  0
  8 31  1  0
  8 32  1  0
  9 33  1  0
  9 34  1  0
 10 35  1  0
 10 36  1  0
 11 37  1  0
 11 38  1  0
 14 39  1  0
 15 40  1  0
 19 41  1  0
 20 42  1  0
 22 43  1  0
 22 44  1  0
M  END
>  <Energy>  (840) 
1501.7620131650801

>  <compound_id>  (840) 
8773

>  <target_id>  (840) 
1

>  <reference_id>  (840) 
53

>  <inspiration_ids>  (840) 
[53, 107]

>  <energy_score>  (840) 
1367.352381510963

>  <distance_score>  (840) 
13.001900487015773

>  <path>  (840) 
/opt/xchem-fragalysis-2/maxwin/BulkDock/SCRATCH/511013/C8773-P53/C8773-P53.minimised.mol

>  <scratch_subdir>  (840) 
/opt/xchem-fragalysis-2/maxwin/BulkDock/SCRATCH/511013/C8773-P53

>  <fragmenstein_runtime>  (840) 
16.82878541946411

>  <fragmenstein_outcome>  (840) 
too moved

>  <fragmenstein_mode>  (840) 
expansion

>  <fragmenstein_error>  (840) 


$$$$
C8773-P107
     RDKit          3D

 44 47  0  0  0  0  0  0  0  0999 V2000
   -2.4804   -8.0824   31.1046 O   0  0  0  0  0  0  0  0  0  0  0  0
   -1.4099   -8.9301   31.4547 C   0  0  0  0  0  0  0  0  0  0  0  0
   -0.5602   -9.8849   29.9898 C   0  0  0  0  0  0  0  0  0  0  0  0
   -0.3585   -8.1988   29.1814 C   0  0  0  0  0  0  0  0  0  0  0  0
    0.0372   -7.0191   30.2789 C   0  0  0  0  0  0  0  0  0  0  0  0
    0.5726   -5.6352   29.9285 C   0  0  0  0  0  0  0  0  0  0  0  0
   -0.2471   -5.0049   28.9767 O   0  0  0  0  0  0  0  0  0  0  0  0
   -0.4812   -5.8317   27.8658 C   0  0  0  0  0  0  0  0  0  0  0  0
   -1.0461   -7.2362   28.1492 C   0  0  0  0  0  0  0  0  0  0  0  0
   -1.4779  -11.1438   30.4196 C   0  0  0  0  0  0  0  0  0  0  0  0
   -0.5892  -12.6581   31.3714 C   0  0  0  0  0  0  0  0  0  0  0  0
    0.8617  -12.8410   30.9457 N   0  0  0  0  0  0  0  0  0  0  0  0
    1.4034  -14.2280   31.4924 C   0  0  0  0  0  0  0  0  0  0  0  0
    2.5964  -14.7677   31.1499 C   0  0  0  0  0  0  0  0  0  0  0  0
    2.6424  -16.2661   31.0211 C   0  0  0  0  0  0  0  0  0  0  0  0
    1.7106  -17.1301   31.2628 N   0  0  0  0  0  0  0  0  0  0  0  0
    0.5891  -16.6297   31.8328 C   0  0  0  0  0  0  0  0  0  0  0  0
   -0.4735  -17.2976   32.2468 N   0  0  0  0  0  0  0  0  0  0  0  0
   -1.1883  -16.4201   32.9981 C   0  0  0  0  0  0  0  0  0  0  0  0
   -0.5643  -15.1946   33.0126 C   0  0  0  0  0  0  0  0  0  0  0  0
    0.4698  -15.2501   32.0834 N   0  0  0  0  0  0  0  0  0  0  0  0
    0.9944  -11.1409   29.9544 C   0  0  0  0  0  0  0  0  0  0  0  0
   -2.6697   -7.5388   31.8923 H   0  0  0  0  0  0  0  0  0  0  0  0
   -0.7042   -8.3245   32.0388 H   0  0  0  0  0  0  0  0  0  0  0  0
   -1.8458   -9.5864   32.2182 H   0  0  0  0  0  0  0  0  0  0  0  0
    0.3489   -8.5509   28.4239 H   0  0  0  0  0  0  0  0  0  0  0  0
   -0.8933   -6.7157   30.7581 H   0  0  0  0  0  0  0  0  0  0  0  0
    0.6817   -7.4116   31.0511 H   0  0  0  0  0  0  0  0  0  0  0  0
    1.6203   -5.6218   29.6448 H   0  0  0  0  0  0  0  0  0  0  0  0
    0.5356   -5.0130   30.8319 H   0  0  0  0  0  0  0  0  0  0  0  0
   -1.2143   -5.3280   27.2527 H   0  0  0  0  0  0  0  0  0  0  0  0
    0.3870   -5.8735   27.2187 H   0  0  0  0  0  0  0  0  0  0  0  0
   -2.0766   -7.0756   28.4417 H   0  0  0  0  0  0  0  0  0  0  0  0
   -0.9363   -7.6554   27.1435 H   0  0  0  0  0  0  0  0  0  0  0  0
   -2.3446  -10.7669   30.9566 H   0  0  0  0  0  0  0  0  0  0  0  0
   -2.1436  -11.4715   29.6179 H   0  0  0  0  0  0  0  0  0  0  0  0
   -0.8430  -13.6486   31.1468 H   0  0  0  0  0  0  0  0  0  0  0  0
   -0.5519  -12.6908   32.4758 H   0  0  0  0  0  0  0  0  0  0  0  0
    3.3829  -14.2164   30.6532 H   0  0  0  0  0  0  0  0  0  0  0  0
    3.5908  -16.6445   30.6019 H   0  0  0  0  0  0  0  0  0  0  0  0
   -2.0794  -16.7230   33.5330 H   0  0  0  0  0  0  0  0  0  0  0  0
   -0.7825  -14.3103   33.5859 H   0  0  0  0  0  0  0  0  0  0  0  0
    1.8903  -10.6874   30.3396 H   0  0  0  0  0  0  0  0  0  0  0  0
    1.1997  -11.2337   28.8951 H   0  0  0  0  0  0  0  0  0  0  0  0
  1  2  1  0
  2  3  1  0
  3  4  1  0
  4  5  1  0
  5  6  1  0
  6  7  1  0
  7  8  1  0
  8  9  1  0
  3 10  1  0
 10 11  1  0
 11 12  1  0
 12 13  1  0
 13 14  2  0
 14 15  1  0
 15 16  2  0
 16 17  1  0
 17 18  2  0
 18 19  1  0
 19 20  2  0
 20 21  1  0
 12 22  1  0
 22  3  1  0
  9  4  1  0
 21 13  1  0
 21 17  1  0
  1 23  1  0
  2 24  1  0
  2 25  1  0
  4 26  1  0
  5 27  1  0
  5 28  1  0
  6 29  1  0
  6 30  1  0
  8 31  1  0
  8 32  1  0
  9 33  1  0
  9 34  1  0
 10 35  1  0
 10 36  1  0
 11 37  1  0
 11 38  1  0
 14 39  1  0
 15 40  1  0
 19 41  1  0
 20 42  1  0
 22 43  1  0
 22 44  1  0
M  END
>  <Energy>  (841) 
541.77627414667177

>  <compound_id>  (841) 
8773

>  <target_id>  (841) 
1

>  <reference_id>  (841) 
107

>  <inspiration_ids>  (841) 
[53, 107]

>  <energy_score>  (841) 
407.36664249256273

>  <distance_score>  (841) 
13.911384238386207

>  <path>  (841) 
/opt/xchem-fragalysis-2/maxwin/BulkDock/SCRATCH/511013/C8773-P107/C8773-P107.minimised.mol

>  <scratch_subdir>  (841) 
/opt/xchem-fragalysis-2/maxwin/BulkDock/SCRATCH/511013/C8773-P107

>  <fragmenstein_runtime>  (841) 
11.531738996505737

>  <fragmenstein_outcome>  (841) 
too moved

>  <fragmenstein_mode>  (841) 
expansion

>  <fragmenstein_error>  (841) 


$$$$
C8774-P53
     RDKit          3D

 37 39  0  0  0  0  0  0  0  0999 V2000
   -8.3972  -10.7869   25.7751 F   0  0  0  0  0  0  0  0  0  0  0  0
   -7.3343   -9.9221   25.8822 C   0  0  0  0  0  0  0  0  0  0  0  0
   -6.3904  -10.8912   25.7502 F   0  0  0  0  0  0  0  0  0  0  0  0
   -7.2740   -9.2143   27.0431 F   0  0  0  0  0  0  0  0  0  0  0  0
   -7.1499   -8.5742   24.8454 C   0  0  0  0  0  0  0  0  0  0  0  0
   -6.4815   -6.7024   25.1712 N   0  0  0  0  0  0  0  0  0  0  0  0
   -5.9217   -6.1072   26.4015 C   0  0  0  0  0  0  0  0  0  0  0  0
   -4.9240   -5.0398   26.3038 C   0  0  0  0  0  0  0  0  0  0  0  0
   -5.5153   -4.1658   25.3256 C   0  0  0  0  0  0  0  0  0  0  0  0
   -4.5183   -2.9262   25.1270 C   0  0  0  0  0  0  0  0  0  0  0  0
   -3.2010   -2.1926   25.8671 N   0  0  0  0  0  0  0  0  0  0  0  0
   -2.6549   -0.8414   26.3851 C   0  0  0  0  0  0  0  0  0  0  0  0
   -3.1147    0.4152   26.1536 C   0  0  0  0  0  0  0  0  0  0  0  0
   -2.3986    1.6149   26.6573 C   0  0  0  0  0  0  0  0  0  0  0  0
   -1.3193    1.6095   27.3571 N   0  0  0  0  0  0  0  0  0  0  0  0
   -0.8400    0.3807   27.6698 C   0  0  0  0  0  0  0  0  0  0  0  0
    0.2255    0.1361   28.4054 N   0  0  0  0  0  0  0  0  0  0  0  0
    0.3187   -1.2110   28.4898 C   0  0  0  0  0  0  0  0  0  0  0  0
   -0.7251   -1.8121   27.8342 C   0  0  0  0  0  0  0  0  0  0  0  0
   -1.4631   -0.8128   27.2326 N   0  0  0  0  0  0  0  0  0  0  0  0
   -6.2860   -5.3550   24.2831 C   0  0  0  0  0  0  0  0  0  0  0  0
   -8.0990   -8.2216   24.0497 H   0  0  0  0  0  0  0  0  0  0  0  0
   -7.1421   -9.5497   24.2771 H   0  0  0  0  0  0  0  0  0  0  0  0
   -6.7465   -5.5241   26.8545 H   0  0  0  0  0  0  0  0  0  0  0  0
   -5.3352   -6.7594   27.0621 H   0  0  0  0  0  0  0  0  0  0  0  0
   -3.9516   -5.3977   25.9642 H   0  0  0  0  0  0  0  0  0  0  0  0
   -4.9333   -4.5771   27.2944 H   0  0  0  0  0  0  0  0  0  0  0  0
   -6.4299   -3.7158   25.7563 H   0  0  0  0  0  0  0  0  0  0  0  0
   -4.2233   -3.0207   24.0917 H   0  0  0  0  0  0  0  0  0  0  0  0
   -5.2733   -2.2789   25.5301 H   0  0  0  0  0  0  0  0  0  0  0  0
   -2.5123   -2.2897   25.0917 H   0  0  0  0  0  0  0  0  0  0  0  0
   -4.0310    0.6694   25.6535 H   0  0  0  0  0  0  0  0  0  0  0  0
   -2.8566    2.5812   26.3834 H   0  0  0  0  0  0  0  0  0  0  0  0
    1.1209   -1.6880   29.0365 H   0  0  0  0  0  0  0  0  0  0  0  0
   -0.9588   -2.8529   27.7220 H   0  0  0  0  0  0  0  0  0  0  0  0
   -7.2741   -4.9801   24.0003 H   0  0  0  0  0  0  0  0  0  0  0  0
   -5.6481   -5.5052   23.4059 H   0  0  0  0  0  0  0  0  0  0  0  0
  1  2  1  0
  2  3  1  0
  2  4  1  0
  2  5  1  0
  5  6  1  0
  6  7  1  0
  7  8  1  0
  8  9  1  0
  9 10  1  0
 10 11  1  0
 11 12  1  0
 12 13  2  0
 13 14  1  0
 14 15  2  0
 15 16  1  0
 16 17  2  0
 17 18  1  0
 18 19  2  0
 19 20  1  0
  9 21  1  0
 21  6  1  0
 20 12  1  0
 20 16  1  0
  5 22  1  0
  5 23  1  0
  7 24  1  0
  7 25  1  0
  8 26  1  0
  8 27  1  0
  9 28  1  0
 10 29  1  0
 10 30  1  0
 11 31  1  0
 13 32  1  0
 14 33  1  0
 18 34  1  0
 19 35  1  0
 21 36  1  0
 21 37  1  0
M  END
>  <Energy>  (842) 
499.41920415055318

>  <compound_id>  (842) 
8774

>  <target_id>  (842) 
1

>  <reference_id>  (842) 
53

>  <inspiration_ids>  (842) 
[53, 107]

>  <energy_score>  (842) 
342.44356591607504

>  <distance_score>  (842) 
9.75740541412762

>  <path>  (842) 
/opt/xchem-fragalysis-2/maxwin/BulkDock/SCRATCH/511013/C8774-P53/C8774-P53.minimised.mol

>  <scratch_subdir>  (842) 
/opt/xchem-fragalysis-2/maxwin/BulkDock/SCRATCH/511013/C8774-P53

>  <fragmenstein_runtime>  (842) 
14.003695726394653

>  <fragmenstein_outcome>  (842) 
too moved

>  <fragmenstein_mode>  (842) 
expansion

>  <fragmenstein_error>  (842) 


$$$$
C8774-P107
     RDKit          3D

 37 39  0  0  0  0  0  0  0  0999 V2000
   -6.1035   -9.1490   31.6424 F   0  0  0  0  0  0  0  0  0  0  0  0
   -5.1192   -8.4040   32.2241 C   0  0  0  0  0  0  0  0  0  0  0  0
   -4.0252   -9.2032   32.2411 F   0  0  0  0  0  0  0  0  0  0  0  0
   -5.5282   -8.2469   33.4957 F   0  0  0  0  0  0  0  0  0  0  0  0
   -4.8468   -6.9945   31.4286 C   0  0  0  0  0  0  0  0  0  0  0  0
   -3.6904   -6.0004   31.6521 N   0  0  0  0  0  0  0  0  0  0  0  0
   -4.0723   -4.8608   32.5099 C   0  0  0  0  0  0  0  0  0  0  0  0
   -2.9961   -3.7963   32.2390 C   0  0  0  0  0  0  0  0  0  0  0  0
   -2.8097   -3.8403   30.7263 C   0  0  0  0  0  0  0  0  0  0  0  0
   -1.4095   -3.3537   30.2217 C   0  0  0  0  0  0  0  0  0  0  0  0
   -1.3053   -1.8814   30.0255 N   0  0  0  0  0  0  0  0  0  0  0  0
   -0.2329   -1.2390   29.3404 C   0  0  0  0  0  0  0  0  0  0  0  0
    0.5368   -1.8418   28.4117 C   0  0  0  0  0  0  0  0  0  0  0  0
    1.6309   -1.0473   27.7858 C   0  0  0  0  0  0  0  0  0  0  0  0
    1.9258    0.1840   28.0416 N   0  0  0  0  0  0  0  0  0  0  0  0
    1.1518    0.7928   28.9771 C   0  0  0  0  0  0  0  0  0  0  0  0
    1.2618    2.0253   29.4265 N   0  0  0  0  0  0  0  0  0  0  0  0
    0.2762    2.1806   30.3506 C   0  0  0  0  0  0  0  0  0  0  0  0
   -0.4647    1.0293   30.4788 C   0  0  0  0  0  0  0  0  0  0  0  0
    0.0962    0.1208   29.6098 N   0  0  0  0  0  0  0  0  0  0  0  0
   -3.1864   -5.3346   30.4060 C   0  0  0  0  0  0  0  0  0  0  0  0
   -5.7807   -6.4245   31.4864 H   0  0  0  0  0  0  0  0  0  0  0  0
   -4.7634   -7.3033   30.3822 H   0  0  0  0  0  0  0  0  0  0  0  0
   -4.0933   -5.1483   33.5653 H   0  0  0  0  0  0  0  0  0  0  0  0
   -5.0544   -4.4574   32.2328 H   0  0  0  0  0  0  0  0  0  0  0  0
   -2.0684   -4.0670   32.7576 H   0  0  0  0  0  0  0  0  0  0  0  0
   -3.3062   -2.8059   32.5859 H   0  0  0  0  0  0  0  0  0  0  0  0
   -3.5845   -3.2112   30.2714 H   0  0  0  0  0  0  0  0  0  0  0  0
   -0.6287   -3.6718   30.9222 H   0  0  0  0  0  0  0  0  0  0  0  0
   -1.2031   -3.8500   29.2691 H   0  0  0  0  0  0  0  0  0  0  0  0
   -1.5545   -1.3744   30.8742 H   0  0  0  0  0  0  0  0  0  0  0  0
    0.4280   -2.8629   28.0818 H   0  0  0  0  0  0  0  0  0  0  0  0
    2.2340   -1.5932   27.0402 H   0  0  0  0  0  0  0  0  0  0  0  0
    0.1511    3.1192   30.8750 H   0  0  0  0  0  0  0  0  0  0  0  0
   -1.3143    0.7891   31.0966 H   0  0  0  0  0  0  0  0  0  0  0  0
   -3.9616   -5.3379   29.6307 H   0  0  0  0  0  0  0  0  0  0  0  0
   -2.3231   -5.8929   30.0300 H   0  0  0  0  0  0  0  0  0  0  0  0
  1  2  1  0
  2  3  1  0
  2  4  1  0
  2  5  1  0
  5  6  1  0
  6  7  1  0
  7  8  1  0
  8  9  1  0
  9 10  1  0
 10 11  1  0
 11 12  1  0
 12 13  2  0
 13 14  1  0
 14 15  2  0
 15 16  1  0
 16 17  2  0
 17 18  1  0
 18 19  2  0
 19 20  1  0
  9 21  1  0
 21  6  1  0
 20 12  1  0
 20 16  1  0
  5 22  1  0
  5 23  1  0
  7 24  1  0
  7 25  1  0
  8 26  1  0
  8 27  1  0
  9 28  1  0
 10 29  1  0
 10 30  1  0
 11 31  1  0
 13 32  1  0
 14 33  1  0
 18 34  1  0
 19 35  1  0
 21 36  1  0
 21 37  1  0
M  END
>  <Energy>  (843) 
134.66468668065099

>  <compound_id>  (843) 
8774

>  <target_id>  (843) 
1

>  <reference_id>  (843) 
107

>  <inspiration_ids>  (843) 
[53, 107]

>  <energy_score>  (843) 
-22.310951553829568

>  <distance_score>  (843) 
10.244769592929345

>  <path>  (843) 
/opt/xchem-fragalysis-2/maxwin/BulkDock/SCRATCH/511013/C8774-P107/C8774-P107.minimised.mol

>  <scratch_subdir>  (843) 
/opt/xchem-fragalysis-2/maxwin/BulkDock/SCRATCH/511013/C8774-P107

>  <fragmenstein_runtime>  (843) 
16.96125841140747

>  <fragmenstein_outcome>  (843) 
too moved

>  <fragmenstein_mode>  (843) 
expansion

>  <fragmenstein_error>  (843) 


$$$$
C8776-P53
     RDKit          3D

 49 52  0  0  0  0  0  0  0  0999 V2000
    1.0215   -6.4771   32.2688 C   0  0  0  0  0  0  0  0  0  0  0  0
   -0.2980   -5.7083   32.1691 C   0  0  0  0  0  0  0  0  0  0  0  0
   -0.0327   -4.2581   31.7458 C   0  0  0  0  0  0  0  0  0  0  0  0
   -1.3267   -6.3271   31.3148 N   0  0  0  0  0  0  0  0  0  0  0  0
   -1.8674   -7.5645   31.8513 C   0  0  0  0  0  0  0  0  0  0  0  0
   -3.2360   -8.0773   31.2201 C   0  0  0  0  0  0  0  0  0  0  0  0
   -3.7255   -7.5594   29.4356 N   0  0  0  0  0  0  0  0  0  0  0  0
   -5.5145   -8.2724   28.7502 C   0  0  0  0  0  0  0  0  0  0  0  0
   -6.4311   -9.2506   27.3578 C   0  0  0  0  0  0  0  0  0  0  0  0
   -5.9014  -11.1781   26.8761 C   0  0  0  0  0  0  0  0  0  0  0  0
   -6.0664  -11.8152   28.3014 N   0  0  0  0  0  0  0  0  0  0  0  0
   -6.9108  -13.3711   28.0030 C   0  0  0  0  0  0  0  0  0  0  0  0
   -7.6058  -13.6403   26.8501 C   0  0  0  0  0  0  0  0  0  0  0  0
   -8.3421  -14.9228   26.6784 C   0  0  0  0  0  0  0  0  0  0  0  0
   -8.3537  -15.9319   27.4767 N   0  0  0  0  0  0  0  0  0  0  0  0
   -7.6156  -15.7698   28.6047 C   0  0  0  0  0  0  0  0  0  0  0  0
   -7.3359  -16.7115   29.4816 N   0  0  0  0  0  0  0  0  0  0  0  0
   -6.6743  -16.1009   30.4985 C   0  0  0  0  0  0  0  0  0  0  0  0
   -6.5034  -14.7699   30.2248 C   0  0  0  0  0  0  0  0  0  0  0  0
   -6.9868  -14.5395   28.9450 N   0  0  0  0  0  0  0  0  0  0  0  0
   -6.5415  -10.0615   29.1713 C   0  0  0  0  0  0  0  0  0  0  0  0
   -2.1431   -7.2079   28.9375 C   0  0  0  0  0  0  0  0  0  0  0  0
   -0.9734   -6.5449   29.9213 C   0  0  0  0  0  0  0  0  0  0  0  0
    1.5421   -6.5184   31.3074 H   0  0  0  0  0  0  0  0  0  0  0  0
    1.6939   -5.9894   32.9834 H   0  0  0  0  0  0  0  0  0  0  0  0
    0.8604   -7.4990   32.6239 H   0  0  0  0  0  0  0  0  0  0  0  0
   -0.7133   -5.6430   33.1840 H   0  0  0  0  0  0  0  0  0  0  0  0
    0.5830   -3.7498   32.4963 H   0  0  0  0  0  0  0  0  0  0  0  0
   -0.9695   -3.6968   31.6569 H   0  0  0  0  0  0  0  0  0  0  0  0
    0.4983   -4.1958   30.7905 H   0  0  0  0  0  0  0  0  0  0  0  0
   -1.1224   -8.3638   31.7176 H   0  0  0  0  0  0  0  0  0  0  0  0
   -1.9935   -7.4945   32.9370 H   0  0  0  0  0  0  0  0  0  0  0  0
   -4.1437   -8.2276   31.8038 H   0  0  0  0  0  0  0  0  0  0  0  0
   -2.9621   -9.1363   31.2761 H   0  0  0  0  0  0  0  0  0  0  0  0
   -5.0489   -7.9878   27.8000 H   0  0  0  0  0  0  0  0  0  0  0  0
   -7.4452   -9.1491   27.7881 H   0  0  0  0  0  0  0  0  0  0  0  0
   -7.0417   -8.7572   26.6284 H   0  0  0  0  0  0  0  0  0  0  0  0
   -6.4568  -11.5252   25.9740 H   0  0  0  0  0  0  0  0  0  0  0  0
   -4.9297  -11.6885   26.9862 H   0  0  0  0  0  0  0  0  0  0  0  0
   -7.7342  -12.9649   26.0240 H   0  0  0  0  0  0  0  0  0  0  0  0
   -8.9276  -14.9893   25.7461 H   0  0  0  0  0  0  0  0  0  0  0  0
   -6.3624  -16.6486   31.3787 H   0  0  0  0  0  0  0  0  0  0  0  0
   -6.0416  -13.9862   30.7883 H   0  0  0  0  0  0  0  0  0  0  0  0
   -7.5993   -9.7773   29.3010 H   0  0  0  0  0  0  0  0  0  0  0  0
   -6.4615  -10.4308   30.1539 H   0  0  0  0  0  0  0  0  0  0  0  0
   -2.2617   -6.7503   27.9722 H   0  0  0  0  0  0  0  0  0  0  0  0
   -1.5362   -8.1020   28.8016 H   0  0  0  0  0  0  0  0  0  0  0  0
   -0.1123   -7.2270   29.9040 H   0  0  0  0  0  0  0  0  0  0  0  0
   -0.6305   -5.6018   29.4823 H   0  0  0  0  0  0  0  0  0  0  0  0
  1  2  1  0
  2  3  1  0
  2  4  1  0
  4  5  1  0
  5  6  1  0
  6  7  1  0
  7  8  1  0
  8  9  1  0
  9 10  1  0
 10 11  1  0
 11 12  1  0
 12 13  2  0
 13 14  1  0
 14 15  2  0
 15 16  1  0
 16 17  2  0
 17 18  1  0
 18 19  2  0
 19 20  1  0
 11 21  1  0
  7 22  1  0
 22 23  1  0
 23  4  1  0
 21  8  1  0
 20 12  1  0
 20 16  1  0
  1 24  1  0
  1 25  1  0
  1 26  1  0
  2 27  1  0
  3 28  1  0
  3 29  1  0
  3 30  1  0
  5 31  1  0
  5 32  1  0
  6 33  1  0
  6 34  1  0
  8 35  1  0
  9 36  1  0
  9 37  1  0
 10 38  1  0
 10 39  1  0
 13 40  1  0
 14 41  1  0
 18 42  1  0
 19 43  1  0
 21 44  1  0
 21 45  1  0
 22 46  1  0
 22 47  1  0
 23 48  1  0
 23 49  1  0
M  END
>  <Energy>  (844) 
885.61861889517616

>  <compound_id>  (844) 
8776

>  <target_id>  (844) 
1

>  <reference_id>  (844) 
53

>  <inspiration_ids>  (844) 
[53, 107]

>  <energy_score>  (844) 
671.5469222419728

>  <distance_score>  (844) 
11.909273439184442

>  <path>  (844) 
/opt/xchem-fragalysis-2/maxwin/BulkDock/SCRATCH/511013/C8776-P53/C8776-P53.minimised.mol

>  <scratch_subdir>  (844) 
/opt/xchem-fragalysis-2/maxwin/BulkDock/SCRATCH/511013/C8776-P53

>  <fragmenstein_runtime>  (844) 
17.542868852615356

>  <fragmenstein_outcome>  (844) 
too moved

>  <fragmenstein_mode>  (844) 
expansion

>  <fragmenstein_error>  (844) 


$$$$
C8776-P107
     RDKit          3D

 49 52  0  0  0  0  0  0  0  0999 V2000
    1.2106   -2.2149   32.1809 C   0  0  0  0  0  0  0  0  0  0  0  0
    0.9296   -3.3192   33.2144 C   0  0  0  0  0  0  0  0  0  0  0  0
    0.2878   -2.6488   34.4410 C   0  0  0  0  0  0  0  0  0  0  0  0
    0.0678   -4.3927   32.6595 N   0  0  0  0  0  0  0  0  0  0  0  0
    0.6715   -5.0368   31.4796 C   0  0  0  0  0  0  0  0  0  0  0  0
   -0.2334   -6.1718   30.9469 C   0  0  0  0  0  0  0  0  0  0  0  0
   -0.5540   -7.2965   31.8875 N   0  0  0  0  0  0  0  0  0  0  0  0
   -1.4111   -8.3896   31.2641 C   0  0  0  0  0  0  0  0  0  0  0  0
   -0.6408   -8.8573   30.0062 C   0  0  0  0  0  0  0  0  0  0  0  0
   -0.5225  -10.4074   29.7282 C   0  0  0  0  0  0  0  0  0  0  0  0
   -1.1682  -11.3206   30.9093 N   0  0  0  0  0  0  0  0  0  0  0  0
   -0.5689  -12.8498   31.8900 C   0  0  0  0  0  0  0  0  0  0  0  0
   -0.3173  -14.1693   31.5240 C   0  0  0  0  0  0  0  0  0  0  0  0
   -0.1180  -15.3917   32.3476 C   0  0  0  0  0  0  0  0  0  0  0  0
   -0.3811  -15.5224   33.5870 N   0  0  0  0  0  0  0  0  0  0  0  0
   -0.8417  -14.3928   34.1574 C   0  0  0  0  0  0  0  0  0  0  0  0
   -1.4142  -14.3676   35.3428 N   0  0  0  0  0  0  0  0  0  0  0  0
   -1.6546  -13.0718   35.6092 C   0  0  0  0  0  0  0  0  0  0  0  0
   -1.2035  -12.2693   34.5914 C   0  0  0  0  0  0  0  0  0  0  0  0
   -0.7870  -13.0858   33.5306 N   0  0  0  0  0  0  0  0  0  0  0  0
   -1.9654   -9.8778   31.7649 C   0  0  0  0  0  0  0  0  0  0  0  0
   -1.0258   -6.6856   33.1296 C   0  0  0  0  0  0  0  0  0  0  0  0
   -0.1686   -5.4773   33.6496 C   0  0  0  0  0  0  0  0  0  0  0  0
    0.2809   -1.8255   31.7511 H   0  0  0  0  0  0  0  0  0  0  0  0
    1.8466   -2.5725   31.3653 H   0  0  0  0  0  0  0  0  0  0  0  0
    1.7426   -1.3750   32.6420 H   0  0  0  0  0  0  0  0  0  0  0  0
    1.8951   -3.7401   33.5257 H   0  0  0  0  0  0  0  0  0  0  0  0
    0.2445   -3.3252   35.3000 H   0  0  0  0  0  0  0  0  0  0  0  0
   -0.7285   -2.3036   34.2200 H   0  0  0  0  0  0  0  0  0  0  0  0
    0.8730   -1.7795   34.7617 H   0  0  0  0  0  0  0  0  0  0  0  0
    1.6701   -5.4322   31.7046 H   0  0  0  0  0  0  0  0  0  0  0  0
    0.7757   -4.3147   30.6629 H   0  0  0  0  0  0  0  0  0  0  0  0
    0.2325   -6.5203   30.0245 H   0  0  0  0  0  0  0  0  0  0  0  0
   -1.1688   -5.7042   30.6715 H   0  0  0  0  0  0  0  0  0  0  0  0
   -2.3258   -7.8089   31.1029 H   0  0  0  0  0  0  0  0  0  0  0  0
   -0.7730   -8.2556   29.1006 H   0  0  0  0  0  0  0  0  0  0  0  0
    0.3272   -8.6180   30.3545 H   0  0  0  0  0  0  0  0  0  0  0  0
    0.5290  -10.6626   29.5402 H   0  0  0  0  0  0  0  0  0  0  0  0
   -1.1001  -10.5201   28.8295 H   0  0  0  0  0  0  0  0  0  0  0  0
   -0.4961  -14.6251   30.5630 H   0  0  0  0  0  0  0  0  0  0  0  0
    0.2577  -16.2707   31.7956 H   0  0  0  0  0  0  0  0  0  0  0  0
   -2.1224  -12.7613   36.5335 H   0  0  0  0  0  0  0  0  0  0  0  0
   -1.2665  -11.1992   34.5246 H   0  0  0  0  0  0  0  0  0  0  0  0
   -3.0113   -9.9792   31.5112 H   0  0  0  0  0  0  0  0  0  0  0  0
   -1.9250   -9.9102   32.8588 H   0  0  0  0  0  0  0  0  0  0  0  0
   -2.0361   -6.3162   32.9805 H   0  0  0  0  0  0  0  0  0  0  0  0
   -1.0722   -7.4450   33.9176 H   0  0  0  0  0  0  0  0  0  0  0  0
   -0.7144   -5.0795   34.5115 H   0  0  0  0  0  0  0  0  0  0  0  0
    0.7890   -5.8640   34.0223 H   0  0  0  0  0  0  0  0  0  0  0  0
  1  2  1  0
  2  3  1  0
  2  4  1  0
  4  5  1  0
  5  6  1  0
  6  7  1  0
  7  8  1  0
  8  9  1  0
  9 10  1  0
 10 11  1  0
 11 12  1  0
 12 13  2  0
 13 14  1  0
 14 15  2  0
 15 16  1  0
 16 17  2  0
 17 18  1  0
 18 19  2  0
 19 20  1  0
 11 21  1  0
  7 22  1  0
 22 23  1  0
 23  4  1  0
 21  8  1  0
 20 12  1  0
 20 16  1  0
  1 24  1  0
  1 25  1  0
  1 26  1  0
  2 27  1  0
  3 28  1  0
  3 29  1  0
  3 30  1  0
  5 31  1  0
  5 32  1  0
  6 33  1  0
  6 34  1  0
  8 35  1  0
  9 36  1  0
  9 37  1  0
 10 38  1  0
 10 39  1  0
 13 40  1  0
 14 41  1  0
 18 42  1  0
 19 43  1  0
 21 44  1  0
 21 45  1  0
 22 46  1  0
 22 47  1  0
 23 48  1  0
 23 49  1  0
M  END
>  <Energy>  (845) 
376.89075970097599

>  <compound_id>  (845) 
8776

>  <target_id>  (845) 
1

>  <reference_id>  (845) 
107

>  <inspiration_ids>  (845) 
[53, 107]

>  <energy_score>  (845) 
162.81906304778454

>  <distance_score>  (845) 
14.082868662399548

>  <path>  (845) 
/opt/xchem-fragalysis-2/maxwin/BulkDock/SCRATCH/511013/C8776-P107/C8776-P107.minimised.mol

>  <scratch_subdir>  (845) 
/opt/xchem-fragalysis-2/maxwin/BulkDock/SCRATCH/511013/C8776-P107

>  <fragmenstein_runtime>  (845) 
12.280147790908813

>  <fragmenstein_outcome>  (845) 
too moved

>  <fragmenstein_mode>  (845) 
expansion

>  <fragmenstein_error>  (845) 


$$$$
C8760-P53
     RDKit          3D

 47 50  0  0  0  0  0  0  0  0999 V2000
   -6.5618  -13.8140   31.5238 C   0  0  0  0  0  0  0  0  0  0  0  0
   -5.9584  -14.3198   30.3551 C   0  0  0  0  0  0  0  0  0  0  0  0
   -5.1083  -15.5412   30.6199 C   0  0  0  0  0  0  0  0  0  0  0  0
   -6.3174  -13.6938   29.1135 C   0  0  0  0  0  0  0  0  0  0  0  0
   -5.2078  -12.0122   29.2175 C   0  0  0  0  0  0  0  0  0  0  0  0
   -6.3952  -10.5891   29.0865 C   0  0  0  0  0  0  0  0  0  0  0  0
   -6.3778   -8.6137   28.9474 N   0  0  0  0  0  0  0  0  0  0  0  0
   -5.3290   -7.6279   28.6403 C   0  0  0  0  0  0  0  0  0  0  0  0
   -5.9859   -5.5341   28.8211 C   0  0  0  0  0  0  0  0  0  0  0  0
   -5.7448   -5.0385   30.1280 C   0  0  0  0  0  0  0  0  0  0  0  0
   -6.1112   -6.6747   29.1700 C   0  0  0  0  0  0  0  0  0  0  0  0
   -6.4653  -12.3130   27.7504 C   0  0  0  0  0  0  0  0  0  0  0  0
   -7.3523  -13.5105   28.0537 N   0  0  0  0  0  0  0  0  0  0  0  0
   -8.5594  -14.2553   27.1502 C   0  0  0  0  0  0  0  0  0  0  0  0
   -8.3676  -14.9204   25.9812 C   0  0  0  0  0  0  0  0  0  0  0  0
   -9.3533  -15.7975   25.2957 C   0  0  0  0  0  0  0  0  0  0  0  0
  -10.4999  -16.1325   25.7640 N   0  0  0  0  0  0  0  0  0  0  0  0
  -10.8860  -15.3180   26.7758 C   0  0  0  0  0  0  0  0  0  0  0  0
  -12.1182  -15.1216   27.2005 N   0  0  0  0  0  0  0  0  0  0  0  0
  -12.2391  -13.7889   27.0099 C   0  0  0  0  0  0  0  0  0  0  0  0
  -11.0042  -13.2718   26.6723 C   0  0  0  0  0  0  0  0  0  0  0  0
  -10.0719  -14.1895   27.1866 N   0  0  0  0  0  0  0  0  0  0  0  0
   -7.4198  -14.4405   31.7596 H   0  0  0  0  0  0  0  0  0  0  0  0
   -5.7138  -14.0798   32.0932 H   0  0  0  0  0  0  0  0  0  0  0  0
   -6.6435  -12.7506   31.7677 H   0  0  0  0  0  0  0  0  0  0  0  0
   -5.0694  -13.7915   30.3334 H   0  0  0  0  0  0  0  0  0  0  0  0
   -5.2926  -16.2869   29.8573 H   0  0  0  0  0  0  0  0  0  0  0  0
   -4.0266  -15.3725   30.6928 H   0  0  0  0  0  0  0  0  0  0  0  0
   -5.3609  -15.8529   31.6203 H   0  0  0  0  0  0  0  0  0  0  0  0
   -6.1024  -14.5882   28.6113 H   0  0  0  0  0  0  0  0  0  0  0  0
   -4.4602  -11.8501   28.3913 H   0  0  0  0  0  0  0  0  0  0  0  0
   -4.2069  -11.9948   29.6615 H   0  0  0  0  0  0  0  0  0  0  0  0
   -6.9293  -10.4553   30.0062 H   0  0  0  0  0  0  0  0  0  0  0  0
   -5.0454   -7.9104   27.6093 H   0  0  0  0  0  0  0  0  0  0  0  0
   -4.3132   -7.6672   29.0620 H   0  0  0  0  0  0  0  0  0  0  0  0
   -5.5065   -4.6060   28.4421 H   0  0  0  0  0  0  0  0  0  0  0  0
   -6.9579   -5.2025   28.2126 H   0  0  0  0  0  0  0  0  0  0  0  0
   -6.1905   -4.0201   30.0864 H   0  0  0  0  0  0  0  0  0  0  0  0
   -5.9445   -5.3978   31.0945 H   0  0  0  0  0  0  0  0  0  0  0  0
   -5.8525   -6.2558   27.5991 H   0  0  0  0  0  0  0  0  0  0  0  0
   -6.6312   -6.5398   30.1638 H   0  0  0  0  0  0  0  0  0  0  0  0
   -6.8703  -12.2833   26.6826 H   0  0  0  0  0  0  0  0  0  0  0  0
   -5.5802  -12.1344   27.1407 H   0  0  0  0  0  0  0  0  0  0  0  0
   -7.4897  -14.7567   25.4155 H   0  0  0  0  0  0  0  0  0  0  0  0
   -9.0016  -16.2522   24.3539 H   0  0  0  0  0  0  0  0  0  0  0  0
  -13.2052  -13.3030   26.9787 H   0  0  0  0  0  0  0  0  0  0  0  0
  -10.7153  -12.3710   26.1638 H   0  0  0  0  0  0  0  0  0  0  0  0
  1  2  1  0
  2  3  1  0
  2  4  1  0
  4  5  1  0
  5  6  1  0
  6  7  1  0
  7  8  1  0
  8  9  1  0
  9 10  1  0
 10 11  1  0
  6 12  1  0
 12 13  1  0
 13 14  1  0
 14 15  2  0
 15 16  1  0
 16 17  2  0
 17 18  1  0
 18 19  2  0
 19 20  1  0
 20 21  2  0
 21 22  1  0
 13  4  1  0
 22 14  1  0
 11  7  1  0
 22 18  1  0
  1 23  1  0
  1 24  1  0
  1 25  1  0
  2 26  1  0
  3 27  1  0
  3 28  1  0
  3 29  1  0
  4 30  1  0
  5 31  1  0
  5 32  1  0
  6 33  1  0
  8 34  1  0
  8 35  1  0
  9 36  1  0
  9 37  1  0
 10 38  1  0
 10 39  1  0
 11 40  1  0
 11 41  1  0
 12 42  1  0
 12 43  1  0
 15 44  1  0
 16 45  1  0
 20 46  1  0
 21 47  1  0
M  END
>  <Energy>  (846) 
1711.9114142359099

>  <compound_id>  (846) 
8760

>  <target_id>  (846) 
1

>  <reference_id>  (846) 
53

>  <inspiration_ids>  (846) 
[53, 107]

>  <energy_score>  (846) 
1567.2864551412947

>  <distance_score>  (846) 
10.131399113235911

>  <path>  (846) 
/opt/xchem-fragalysis-2/maxwin/BulkDock/SCRATCH/511013/C8760-P53/C8760-P53.minimised.mol

>  <scratch_subdir>  (846) 
/opt/xchem-fragalysis-2/maxwin/BulkDock/SCRATCH/511013/C8760-P53

>  <fragmenstein_runtime>  (846) 
18.066649913787842

>  <fragmenstein_outcome>  (846) 
too moved

>  <fragmenstein_mode>  (846) 
expansion

>  <fragmenstein_error>  (846) 


$$$$
C8760-P107
     RDKit          3D

 47 50  0  0  0  0  0  0  0  0999 V2000
   -4.9493  -13.2299   30.0484 C   0  0  0  0  0  0  0  0  0  0  0  0
   -5.9841  -14.5130   29.9916 C   0  0  0  0  0  0  0  0  0  0  0  0
   -5.4023  -15.9544   30.2461 C   0  0  0  0  0  0  0  0  0  0  0  0
   -6.7901  -15.1660   28.5002 C   0  0  0  0  0  0  0  0  0  0  0  0
   -7.1389  -13.8208   27.1692 C   0  0  0  0  0  0  0  0  0  0  0  0
   -6.8058  -13.0482   28.2964 C   0  0  0  0  0  0  0  0  0  0  0  0
   -6.1708  -11.2302   28.9301 N   0  0  0  0  0  0  0  0  0  0  0  0
   -6.6220   -9.4929   28.0609 C   0  0  0  0  0  0  0  0  0  0  0  0
   -5.5764   -8.4864   28.3046 C   0  0  0  0  0  0  0  0  0  0  0  0
   -5.9498   -8.8019   29.6365 C   0  0  0  0  0  0  0  0  0  0  0  0
   -6.5785  -10.2074   29.9867 C   0  0  0  0  0  0  0  0  0  0  0  0
   -8.1801  -14.6262   28.2850 C   0  0  0  0  0  0  0  0  0  0  0  0
   -7.9559  -16.6744   28.2116 N   0  0  0  0  0  0  0  0  0  0  0  0
   -8.5353  -18.6191   28.4614 C   0  0  0  0  0  0  0  0  0  0  0  0
   -9.2390  -18.4946   27.4468 C   0  0  0  0  0  0  0  0  0  0  0  0
   -9.6488  -20.5435   27.2750 C   0  0  0  0  0  0  0  0  0  0  0  0
  -10.7352  -21.2942   27.2360 N   0  0  0  0  0  0  0  0  0  0  0  0
  -10.7703  -21.3623   28.5139 C   0  0  0  0  0  0  0  0  0  0  0  0
  -11.5393  -22.1422   29.2112 N   0  0  0  0  0  0  0  0  0  0  0  0
  -11.3997  -21.7976   30.4696 C   0  0  0  0  0  0  0  0  0  0  0  0
  -10.4910  -20.7899   30.5726 C   0  0  0  0  0  0  0  0  0  0  0  0
   -9.8472  -20.1944   29.1066 N   0  0  0  0  0  0  0  0  0  0  0  0
   -5.1550  -12.5723   30.8816 H   0  0  0  0  0  0  0  0  0  0  0  0
   -3.9268  -13.5525   29.9574 H   0  0  0  0  0  0  0  0  0  0  0  0
   -4.7457  -12.4835   29.3088 H   0  0  0  0  0  0  0  0  0  0  0  0
   -6.6834  -14.2030   30.7804 H   0  0  0  0  0  0  0  0  0  0  0  0
   -5.6217  -16.8259   29.6214 H   0  0  0  0  0  0  0  0  0  0  0  0
   -5.6314  -16.3207   31.2656 H   0  0  0  0  0  0  0  0  0  0  0  0
   -4.3329  -15.9662   29.9490 H   0  0  0  0  0  0  0  0  0  0  0  0
   -5.9525  -15.7039   28.4783 H   0  0  0  0  0  0  0  0  0  0  0  0
   -8.0775  -13.3206   26.9531 H   0  0  0  0  0  0  0  0  0  0  0  0
   -6.6910  -13.8906   26.2059 H   0  0  0  0  0  0  0  0  0  0  0  0
   -6.2703  -12.6442   27.4015 H   0  0  0  0  0  0  0  0  0  0  0  0
   -7.6670   -9.2797   28.3810 H   0  0  0  0  0  0  0  0  0  0  0  0
   -6.7803   -9.5984   26.9776 H   0  0  0  0  0  0  0  0  0  0  0  0
   -4.6206   -7.9771   28.3122 H   0  0  0  0  0  0  0  0  0  0  0  0
   -5.5625   -8.3319   27.2589 H   0  0  0  0  0  0  0  0  0  0  0  0
   -5.4415   -8.6135   30.5996 H   0  0  0  0  0  0  0  0  0  0  0  0
   -6.0619   -7.7623   29.2566 H   0  0  0  0  0  0  0  0  0  0  0  0
   -6.0854  -10.6941   30.8320 H   0  0  0  0  0  0  0  0  0  0  0  0
   -7.6432  -10.0876   30.0994 H   0  0  0  0  0  0  0  0  0  0  0  0
   -8.7243  -14.3012   29.2068 H   0  0  0  0  0  0  0  0  0  0  0  0
   -9.0003  -14.5133   27.4733 H   0  0  0  0  0  0  0  0  0  0  0  0
   -9.3594  -17.6513   26.7551 H   0  0  0  0  0  0  0  0  0  0  0  0
   -8.4832  -21.0130   27.4661 H   0  0  0  0  0  0  0  0  0  0  0  0
  -11.9335  -22.2931   31.2716 H   0  0  0  0  0  0  0  0  0  0  0  0
  -10.1899  -20.3403   31.5091 H   0  0  0  0  0  0  0  0  0  0  0  0
  1  2  1  0
  2  3  1  0
  2  4  1  0
  4  5  1  0
  5  6  1  0
  6  7  1  0
  7  8  1  0
  8  9  1  0
  9 10  1  0
 10 11  1  0
  6 12  1  0
 12 13  1  0
 13 14  1  0
 14 15  2  0
 15 16  1  0
 16 17  2  0
 17 18  1  0
 18 19  2  0
 19 20  1  0
 20 21  2  0
 21 22  1  0
 13  4  1  0
 22 14  1  0
 11  7  1  0
 22 18  1  0
  1 23  1  0
  1 24  1  0
  1 25  1  0
  2 26  1  0
  3 27  1  0
  3 28  1  0
  3 29  1  0
  4 30  1  0
  5 31  1  0
  5 32  1  0
  6 33  1  0
  8 34  1  0
  8 35  1  0
  9 36  1  0
  9 37  1  0
 10 38  1  0
 10 39  1  0
 11 40  1  0
 11 41  1  0
 12 42  1  0
 12 43  1  0
 15 44  1  0
 16 45  1  0
 20 46  1  0
 21 47  1  0
M  END
>  <Energy>  (847) 
2153.7548957753588

>  <compound_id>  (847) 
8760

>  <target_id>  (847) 
1

>  <reference_id>  (847) 
107

>  <inspiration_ids>  (847) 
[53, 107]

>  <energy_score>  (847) 
2009.129936680742

>  <distance_score>  (847) 
8.635491446098111

>  <path>  (847) 
/opt/xchem-fragalysis-2/maxwin/BulkDock/SCRATCH/511013/C8760-P107/C8760-P107.minimised.mol

>  <scratch_subdir>  (847) 
/opt/xchem-fragalysis-2/maxwin/BulkDock/SCRATCH/511013/C8760-P107

>  <fragmenstein_runtime>  (847) 
20.920305967330933

>  <fragmenstein_outcome>  (847) 
too moved

>  <fragmenstein_mode>  (847) 
expansion

>  <fragmenstein_error>  (847) 


$$$$
C8777-P53
     RDKit          3D

 38 41  0  0  0  0  0  0  0  0999 V2000
   -0.0434   -7.3908   32.1694 C   0  0  0  0  0  0  0  0  0  0  0  0
   -0.5679   -8.5999   31.6698 C   0  0  0  0  0  0  0  0  0  0  0  0
   -1.0130   -8.7817   30.3714 C   0  0  0  0  0  0  0  0  0  0  0  0
   -1.5030  -10.3464   29.7226 C   0  0  0  0  0  0  0  0  0  0  0  0
   -2.8394  -11.4848   28.7850 C   0  0  0  0  0  0  0  0  0  0  0  0
   -2.5413  -12.8462   28.3162 C   0  0  0  0  0  0  0  0  0  0  0  0
   -3.1099  -13.2629   29.5227 C   0  0  0  0  0  0  0  0  0  0  0  0
   -5.0424  -13.0318   29.7327 N   0  0  0  0  0  0  0  0  0  0  0  0
   -6.1147  -14.3126   29.7307 C   0  0  0  0  0  0  0  0  0  0  0  0
   -7.0578  -14.4590   28.7515 C   0  0  0  0  0  0  0  0  0  0  0  0
   -7.7315  -15.7541   28.5380 C   0  0  0  0  0  0  0  0  0  0  0  0
   -7.4848  -16.8429   29.1768 N   0  0  0  0  0  0  0  0  0  0  0  0
   -6.6121  -16.7219   30.2168 C   0  0  0  0  0  0  0  0  0  0  0  0
   -6.3067  -17.6659   31.0805 N   0  0  0  0  0  0  0  0  0  0  0  0
   -5.4178  -17.1191   31.9432 C   0  0  0  0  0  0  0  0  0  0  0  0
   -5.1396  -15.8208   31.5944 C   0  0  0  0  0  0  0  0  0  0  0  0
   -5.9354  -15.5124   30.5157 N   0  0  0  0  0  0  0  0  0  0  0  0
   -4.7736  -11.8929   28.9616 C   0  0  0  0  0  0  0  0  0  0  0  0
   -1.0258   -7.5574   29.7033 C   0  0  0  0  0  0  0  0  0  0  0  0
   -0.4409   -6.3760   30.2294 C   0  0  0  0  0  0  0  0  0  0  0  0
    0.0811   -6.2760   31.4497 N   0  0  0  0  0  0  0  0  0  0  0  0
    0.2826   -7.3212   33.2044 H   0  0  0  0  0  0  0  0  0  0  0  0
   -0.6374   -9.3922   32.3626 H   0  0  0  0  0  0  0  0  0  0  0  0
   -0.9169  -10.9056   30.4374 H   0  0  0  0  0  0  0  0  0  0  0  0
   -0.9064  -10.0969   28.8317 H   0  0  0  0  0  0  0  0  0  0  0  0
   -2.5465  -11.2343   27.7678 H   0  0  0  0  0  0  0  0  0  0  0  0
   -1.8455  -13.7090   28.3904 H   0  0  0  0  0  0  0  0  0  0  0  0
   -2.7294  -12.9149   27.2153 H   0  0  0  0  0  0  0  0  0  0  0  0
   -2.7020  -12.5530   30.1788 H   0  0  0  0  0  0  0  0  0  0  0  0
   -2.8621  -14.3510   29.8153 H   0  0  0  0  0  0  0  0  0  0  0  0
   -7.2008  -13.7376   27.9586 H   0  0  0  0  0  0  0  0  0  0  0  0
   -8.4629  -15.7697   27.7133 H   0  0  0  0  0  0  0  0  0  0  0  0
   -5.0036  -17.6933   32.7614 H   0  0  0  0  0  0  0  0  0  0  0  0
   -4.4636  -15.1191   32.0389 H   0  0  0  0  0  0  0  0  0  0  0  0
   -5.3824  -11.9610   28.0292 H   0  0  0  0  0  0  0  0  0  0  0  0
   -5.3791  -11.3316   29.6126 H   0  0  0  0  0  0  0  0  0  0  0  0
   -1.5448   -7.4710   28.7634 H   0  0  0  0  0  0  0  0  0  0  0  0
   -0.4116   -5.4522   29.6558 H   0  0  0  0  0  0  0  0  0  0  0  0
  1  2  2  0
  2  3  1  0
  3  4  1  0
  4  5  1  0
  5  6  1  0
  6  7  1  0
  7  8  1  0
  8  9  1  0
  9 10  2  0
 10 11  1  0
 11 12  2  0
 12 13  1  0
 13 14  2  0
 14 15  1  0
 15 16  2  0
 16 17  1  0
  8 18  1  0
  3 19  2  0
 19 20  1  0
 20 21  2  0
 21  1  1  0
 18  5  1  0
 17  9  1  0
 17 13  1  0
  1 22  1  0
  2 23  1  0
  4 24  1  0
  4 25  1  0
  5 26  1  0
  6 27  1  0
  6 28  1  0
  7 29  1  0
  7 30  1  0
 10 31  1  0
 11 32  1  0
 15 33  1  0
 16 34  1  0
 18 35  1  0
 18 36  1  0
 19 37  1  0
 20 38  1  0
M  END
>  <Energy>  (848) 
471.12681407330041

>  <compound_id>  (848) 
8777

>  <target_id>  (848) 
1

>  <reference_id>  (848) 
53

>  <inspiration_ids>  (848) 
[53, 107]

>  <energy_score>  (848) 
368.61049853207896

>  <distance_score>  (848) 
11.3843823329655

>  <path>  (848) 
/opt/xchem-fragalysis-2/maxwin/BulkDock/SCRATCH/511013/C8777-P53/C8777-P53.minimised.mol

>  <scratch_subdir>  (848) 
/opt/xchem-fragalysis-2/maxwin/BulkDock/SCRATCH/511013/C8777-P53

>  <fragmenstein_runtime>  (848) 
10.215368032455444

>  <fragmenstein_outcome>  (848) 
too moved

>  <fragmenstein_mode>  (848) 
expansion

>  <fragmenstein_error>  (848) 


$$$$
C8777-P107
     RDKit          3D

 38 41  0  0  0  0  0  0  0  0999 V2000
   -3.2764   -8.2139   31.6424 C   0  0  0  0  0  0  0  0  0  0  0  0
   -4.6474   -8.7822   31.6314 C   0  0  0  0  0  0  0  0  0  0  0  0
   -5.7330   -8.8764   30.2266 C   0  0  0  0  0  0  0  0  0  0  0  0
   -6.1969  -10.7459   29.7341 C   0  0  0  0  0  0  0  0  0  0  0  0
   -6.1369  -12.7660   28.9362 C   0  0  0  0  0  0  0  0  0  0  0  0
   -5.9644  -13.8022   30.2729 C   0  0  0  0  0  0  0  0  0  0  0  0
   -6.6829  -15.3409   30.6548 C   0  0  0  0  0  0  0  0  0  0  0  0
   -8.1291  -15.0371   30.5757 N   0  0  0  0  0  0  0  0  0  0  0  0
   -9.5573  -15.6114   31.5842 C   0  0  0  0  0  0  0  0  0  0  0  0
  -10.6892  -16.0267   30.4734 C   0  0  0  0  0  0  0  0  0  0  0  0
  -10.5346  -17.9389   29.8185 C   0  0  0  0  0  0  0  0  0  0  0  0
  -10.3713  -19.4290   31.0842 N   0  0  0  0  0  0  0  0  0  0  0  0
   -9.8040  -18.7892   32.8285 C   0  0  0  0  0  0  0  0  0  0  0  0
   -8.7157  -19.1690   33.5079 N   0  0  0  0  0  0  0  0  0  0  0  0
   -7.9562  -18.0894   34.0835 C   0  0  0  0  0  0  0  0  0  0  0  0
   -8.4759  -16.8207   33.9622 C   0  0  0  0  0  0  0  0  0  0  0  0
   -9.5038  -16.8523   33.0131 N   0  0  0  0  0  0  0  0  0  0  0  0
   -7.6621  -14.1406   28.9880 C   0  0  0  0  0  0  0  0  0  0  0  0
   -5.1287   -7.9934   29.0040 C   0  0  0  0  0  0  0  0  0  0  0  0
   -3.5465   -7.3591   29.2949 C   0  0  0  0  0  0  0  0  0  0  0  0
   -2.6869   -7.5210   30.5553 N   0  0  0  0  0  0  0  0  0  0  0  0
   -2.6158   -8.3633   32.4949 H   0  0  0  0  0  0  0  0  0  0  0  0
   -4.8368   -9.4856   32.4502 H   0  0  0  0  0  0  0  0  0  0  0  0
   -5.9397  -11.0338   30.8059 H   0  0  0  0  0  0  0  0  0  0  0  0
   -7.1572  -10.2228   29.6169 H   0  0  0  0  0  0  0  0  0  0  0  0
   -6.0295  -12.7649   27.8558 H   0  0  0  0  0  0  0  0  0  0  0  0
   -6.4190  -13.2974   31.1280 H   0  0  0  0  0  0  0  0  0  0  0  0
   -4.9540  -13.5160   30.4085 H   0  0  0  0  0  0  0  0  0  0  0  0
   -6.4625  -15.8046   31.6109 H   0  0  0  0  0  0  0  0  0  0  0  0
   -6.3762  -16.0692   29.8935 H   0  0  0  0  0  0  0  0  0  0  0  0
  -10.6752  -15.4724   29.5282 H   0  0  0  0  0  0  0  0  0  0  0  0
  -11.0763  -17.8994   28.8438 H   0  0  0  0  0  0  0  0  0  0  0  0
   -7.0441  -18.3575   34.6050 H   0  0  0  0  0  0  0  0  0  0  0  0
   -8.0882  -15.8652   34.2769 H   0  0  0  0  0  0  0  0  0  0  0  0
   -7.2555  -14.9656   28.3803 H   0  0  0  0  0  0  0  0  0  0  0  0
   -8.5848  -13.9167   28.4456 H   0  0  0  0  0  0  0  0  0  0  0  0
   -5.3609   -8.2256   27.9801 H   0  0  0  0  0  0  0  0  0  0  0  0
   -2.8699   -7.0801   28.4545 H   0  0  0  0  0  0  0  0  0  0  0  0
  1  2  2  0
  2  3  1  0
  3  4  1  0
  4  5  1  0
  5  6  1  0
  6  7  1  0
  7  8  1  0
  8  9  1  0
  9 10  2  0
 10 11  1  0
 11 12  2  0
 12 13  1  0
 13 14  2  0
 14 15  1  0
 15 16  2  0
 16 17  1  0
  8 18  1  0
  3 19  2  0
 19 20  1  0
 20 21  2  0
 21  1  1  0
 18  5  1  0
 17  9  1  0
 17 13  1  0
  1 22  1  0
  2 23  1  0
  4 24  1  0
  4 25  1  0
  5 26  1  0
  6 27  1  0
  6 28  1  0
  7 29  1  0
  7 30  1  0
 10 31  1  0
 11 32  1  0
 15 33  1  0
 16 34  1  0
 18 35  1  0
 18 36  1  0
 19 37  1  0
 20 38  1  0
M  END
>  <Energy>  (849) 
1355.0322057067276

>  <compound_id>  (849) 
8777

>  <target_id>  (849) 
1

>  <reference_id>  (849) 
107

>  <inspiration_ids>  (849) 
[53, 107]

>  <energy_score>  (849) 
1252.515890165531

>  <distance_score>  (849) 
11.218523638099407

>  <path>  (849) 
/opt/xchem-fragalysis-2/maxwin/BulkDock/SCRATCH/511013/C8777-P107/C8777-P107.minimised.mol

>  <scratch_subdir>  (849) 
/opt/xchem-fragalysis-2/maxwin/BulkDock/SCRATCH/511013/C8777-P107

>  <fragmenstein_runtime>  (849) 
10.42172384262085

>  <fragmenstein_outcome>  (849) 
too moved

>  <fragmenstein_mode>  (849) 
expansion

>  <fragmenstein_error>  (849) 


$$$$
C8778-P53
     RDKit          3D

 38 41  0  0  0  0  0  0  0  0999 V2000
   -5.9990   -3.3676   28.7540 C   0  0  0  0  0  0  0  0  0  0  0  0
   -6.2700   -4.1084   27.6955 C   0  0  0  0  0  0  0  0  0  0  0  0
   -6.1217   -5.7226   27.8470 C   0  0  0  0  0  0  0  0  0  0  0  0
   -5.7366   -7.3942   28.7940 C   0  0  0  0  0  0  0  0  0  0  0  0
   -6.4929   -9.3970   28.7536 C   0  0  0  0  0  0  0  0  0  0  0  0
   -5.9358  -11.5852   28.6974 C   0  0  0  0  0  0  0  0  0  0  0  0
   -6.5189  -12.5238   27.1037 C   0  0  0  0  0  0  0  0  0  0  0  0
   -7.7597  -13.3892   27.0594 C   0  0  0  0  0  0  0  0  0  0  0  0
   -7.8093  -14.2407   28.1314 N   0  0  0  0  0  0  0  0  0  0  0  0
   -9.1430  -14.9443   28.0984 C   0  0  0  0  0  0  0  0  0  0  0  0
  -10.0055  -15.0952   29.1139 C   0  0  0  0  0  0  0  0  0  0  0  0
  -11.4044  -15.5056   28.8937 C   0  0  0  0  0  0  0  0  0  0  0  0
  -11.9592  -15.6344   27.7434 N   0  0  0  0  0  0  0  0  0  0  0  0
  -11.1029  -15.5949   26.6932 C   0  0  0  0  0  0  0  0  0  0  0  0
  -11.4137  -15.8258   25.4326 N   0  0  0  0  0  0  0  0  0  0  0  0
  -10.2369  -15.9845   24.7886 C   0  0  0  0  0  0  0  0  0  0  0  0
   -9.1918  -15.8273   25.6578 C   0  0  0  0  0  0  0  0  0  0  0  0
   -9.7229  -15.4148   26.8591 N   0  0  0  0  0  0  0  0  0  0  0  0
   -6.6029  -13.5355   29.1034 C   0  0  0  0  0  0  0  0  0  0  0  0
   -6.0054   -6.1223   29.5395 N   0  0  0  0  0  0  0  0  0  0  0  0
   -5.8733   -4.3456   29.6660 C   0  0  0  0  0  0  0  0  0  0  0  0
   -6.0066   -2.3082   28.8831 H   0  0  0  0  0  0  0  0  0  0  0  0
   -6.5813   -3.6967   26.7395 H   0  0  0  0  0  0  0  0  0  0  0  0
   -6.5824   -5.7722   26.7828 H   0  0  0  0  0  0  0  0  0  0  0  0
   -7.4560   -9.4581   29.2304 H   0  0  0  0  0  0  0  0  0  0  0  0
   -6.7287   -9.1800   27.6905 H   0  0  0  0  0  0  0  0  0  0  0  0
   -4.8994  -11.7985   29.0421 H   0  0  0  0  0  0  0  0  0  0  0  0
   -6.4188  -11.9251   26.1782 H   0  0  0  0  0  0  0  0  0  0  0  0
   -6.0509  -13.4302   27.0846 H   0  0  0  0  0  0  0  0  0  0  0  0
   -7.6666  -14.0214   26.1887 H   0  0  0  0  0  0  0  0  0  0  0  0
   -8.7552  -12.9643   27.0344 H   0  0  0  0  0  0  0  0  0  0  0  0
   -9.7248  -14.8605   30.1164 H   0  0  0  0  0  0  0  0  0  0  0  0
  -12.0223  -15.6282   29.7957 H   0  0  0  0  0  0  0  0  0  0  0  0
  -10.1928  -16.2357   23.7369 H   0  0  0  0  0  0  0  0  0  0  0  0
   -8.1460  -15.9666   25.4788 H   0  0  0  0  0  0  0  0  0  0  0  0
   -5.9845  -14.3630   29.1190 H   0  0  0  0  0  0  0  0  0  0  0  0
   -6.7179  -13.7163   30.2072 H   0  0  0  0  0  0  0  0  0  0  0  0
   -5.8138   -4.0812   30.7232 H   0  0  0  0  0  0  0  0  0  0  0  0
  1  2  2  0
  2  3  1  0
  3  4  2  0
  4  5  1  0
  5  6  1  0
  6  7  1  0
  7  8  1  0
  8  9  1  0
  9 10  1  0
 10 11  2  0
 11 12  1  0
 12 13  2  0
 13 14  1  0
 14 15  2  0
 15 16  1  0
 16 17  2  0
 17 18  1  0
  9 19  1  0
  4 20  1  0
 20 21  2  0
 21  1  1  0
 19  6  1  0
 18 10  1  0
 18 14  1  0
  1 22  1  0
  2 23  1  0
  3 24  1  0
  5 25  1  0
  5 26  1  0
  6 27  1  0
  7 28  1  0
  7 29  1  0
  8 30  1  0
  8 31  1  0
 11 32  1  0
 12 33  1  0
 16 34  1  0
 17 35  1  0
 19 36  1  0
 19 37  1  0
 21 38  1  0
M  END
>  <Energy>  (850) 
1016.4929034207177

>  <compound_id>  (850) 
8778

>  <target_id>  (850) 
1

>  <reference_id>  (850) 
53

>  <inspiration_ids>  (850) 
[53, 107]

>  <energy_score>  (850) 
916.7247427081946

>  <distance_score>  (850) 
11.652109424599413

>  <path>  (850) 
/opt/xchem-fragalysis-2/maxwin/BulkDock/SCRATCH/511013/C8778-P53/C8778-P53.minimised.mol

>  <scratch_subdir>  (850) 
/opt/xchem-fragalysis-2/maxwin/BulkDock/SCRATCH/511013/C8778-P53

>  <fragmenstein_runtime>  (850) 
11.31374216079712

>  <fragmenstein_outcome>  (850) 
too moved

>  <fragmenstein_mode>  (850) 
expansion

>  <fragmenstein_error>  (850) 


$$$$
C8778-P107
     RDKit          3D

 38 41  0  0  0  0  0  0  0  0999 V2000
    1.2730   -6.7806   26.7754 C   0  0  0  0  0  0  0  0  0  0  0  0
    2.4646   -7.4934   26.7969 C   0  0  0  0  0  0  0  0  0  0  0  0
    2.4467   -8.8607   27.1785 C   0  0  0  0  0  0  0  0  0  0  0  0
    1.2012   -9.5307   27.4979 C   0  0  0  0  0  0  0  0  0  0  0  0
    1.1202  -11.3135   27.5786 C   0  0  0  0  0  0  0  0  0  0  0  0
    0.7220  -13.2864   26.8527 C   0  0  0  0  0  0  0  0  0  0  0  0
    2.1059  -14.4015   26.4969 C   0  0  0  0  0  0  0  0  0  0  0  0
    2.1949  -15.8087   27.2215 C   0  0  0  0  0  0  0  0  0  0  0  0
    0.9369  -16.2384   28.1834 N   0  0  0  0  0  0  0  0  0  0  0  0
    0.6206  -17.8496   27.6712 C   0  0  0  0  0  0  0  0  0  0  0  0
    1.6892  -18.6508   27.4421 C   0  0  0  0  0  0  0  0  0  0  0  0
    1.5493  -19.6359   26.3137 C   0  0  0  0  0  0  0  0  0  0  0  0
    0.5436  -19.8123   25.5126 N   0  0  0  0  0  0  0  0  0  0  0  0
   -0.6093  -19.2029   25.8912 C   0  0  0  0  0  0  0  0  0  0  0  0
   -1.8495  -19.4732   25.5057 N   0  0  0  0  0  0  0  0  0  0  0  0
   -2.5048  -19.6208   26.6875 C   0  0  0  0  0  0  0  0  0  0  0  0
   -1.6204  -19.3218   27.6928 C   0  0  0  0  0  0  0  0  0  0  0  0
   -0.6437  -18.4668   27.0968 N   0  0  0  0  0  0  0  0  0  0  0  0
   -0.3966  -14.7329   27.9984 C   0  0  0  0  0  0  0  0  0  0  0  0
    0.0510   -8.7804   27.5631 N   0  0  0  0  0  0  0  0  0  0  0  0
    0.1236   -7.4533   27.1781 C   0  0  0  0  0  0  0  0  0  0  0  0
    1.2329   -5.7429   26.4680 H   0  0  0  0  0  0  0  0  0  0  0  0
    3.4013   -7.0186   26.5240 H   0  0  0  0  0  0  0  0  0  0  0  0
    3.3871   -9.3897   27.2418 H   0  0  0  0  0  0  0  0  0  0  0  0
    2.0814  -11.2417   28.1387 H   0  0  0  0  0  0  0  0  0  0  0  0
    0.4257  -11.1367   28.4094 H   0  0  0  0  0  0  0  0  0  0  0  0
    0.1430  -13.2667   26.0008 H   0  0  0  0  0  0  0  0  0  0  0  0
    2.2116  -14.4890   25.4097 H   0  0  0  0  0  0  0  0  0  0  0  0
    3.0149  -14.0314   26.9408 H   0  0  0  0  0  0  0  0  0  0  0  0
    3.1202  -15.9821   27.7628 H   0  0  0  0  0  0  0  0  0  0  0  0
    2.3674  -16.5409   26.4224 H   0  0  0  0  0  0  0  0  0  0  0  0
    2.6960  -18.4131   27.7545 H   0  0  0  0  0  0  0  0  0  0  0  0
    2.4785  -20.1889   26.0920 H   0  0  0  0  0  0  0  0  0  0  0  0
   -3.4802  -20.0837   26.7489 H   0  0  0  0  0  0  0  0  0  0  0  0
   -1.5977  -19.6063   28.7341 H   0  0  0  0  0  0  0  0  0  0  0  0
   -0.4487  -14.9602   29.0960 H   0  0  0  0  0  0  0  0  0  0  0  0
   -1.4395  -15.0083   27.6272 H   0  0  0  0  0  0  0  0  0  0  0  0
   -0.8286   -6.9285   27.1901 H   0  0  0  0  0  0  0  0  0  0  0  0
  1  2  2  0
  2  3  1  0
  3  4  2  0
  4  5  1  0
  5  6  1  0
  6  7  1  0
  7  8  1  0
  8  9  1  0
  9 10  1  0
 10 11  2  0
 11 12  1  0
 12 13  2  0
 13 14  1  0
 14 15  2  0
 15 16  1  0
 16 17  2  0
 17 18  1  0
  9 19  1  0
  4 20  1  0
 20 21  2  0
 21  1  1  0
 19  6  1  0
 18 10  1  0
 18 14  1  0
  1 22  1  0
  2 23  1  0
  3 24  1  0
  5 25  1  0
  5 26  1  0
  6 27  1  0
  7 28  1  0
  7 29  1  0
  8 30  1  0
  8 31  1  0
 11 32  1  0
 12 33  1  0
 16 34  1  0
 17 35  1  0
 19 36  1  0
 19 37  1  0
 21 38  1  0
M  END
>  <Energy>  (851) 
566.57908370218991

>  <compound_id>  (851) 
8778

>  <target_id>  (851) 
1

>  <reference_id>  (851) 
107

>  <inspiration_ids>  (851) 
[53, 107]

>  <energy_score>  (851) 
466.8109229896745

>  <distance_score>  (851) 
13.388595353525465

>  <path>  (851) 
/opt/xchem-fragalysis-2/maxwin/BulkDock/SCRATCH/511013/C8778-P107/C8778-P107.minimised.mol

>  <scratch_subdir>  (851) 
/opt/xchem-fragalysis-2/maxwin/BulkDock/SCRATCH/511013/C8778-P107

>  <fragmenstein_runtime>  (851) 
9.88516116142273

>  <fragmenstein_outcome>  (851) 
too moved

>  <fragmenstein_mode>  (851) 
expansion

>  <fragmenstein_error>  (851) 


$$$$
C8779-P53
     RDKit          3D

 39 42  0  0  0  0  0  0  0  0999 V2000
    0.7741   -6.3272   30.4408 C   0  0  0  0  0  0  0  0  0  0  0  0
   -0.0915   -5.7033   31.2962 C   0  0  0  0  0  0  0  0  0  0  0  0
   -1.1820   -6.3307   31.7756 N   0  0  0  0  0  0  0  0  0  0  0  0
   -1.4567   -7.6034   31.3467 C   0  0  0  0  0  0  0  0  0  0  0  0
   -0.7476   -8.2905   30.3822 C   0  0  0  0  0  0  0  0  0  0  0  0
   -0.9709   -9.7964   29.9588 C   0  0  0  0  0  0  0  0  0  0  0  0
   -1.8324  -10.7742   29.0602 O   0  0  0  0  0  0  0  0  0  0  0  0
   -3.5064  -10.7841   28.6457 C   0  0  0  0  0  0  0  0  0  0  0  0
   -4.7153   -8.6364   28.2042 C   0  0  0  0  0  0  0  0  0  0  0  0
   -6.4693   -9.7241   28.7376 C   0  0  0  0  0  0  0  0  0  0  0  0
   -5.9127  -11.6883   28.3752 N   0  0  0  0  0  0  0  0  0  0  0  0
   -6.8023  -13.1151   27.7409 C   0  0  0  0  0  0  0  0  0  0  0  0
   -7.4217  -13.1713   26.5183 C   0  0  0  0  0  0  0  0  0  0  0  0
   -8.2821  -14.3374   26.1667 C   0  0  0  0  0  0  0  0  0  0  0  0
   -8.4858  -15.4092   26.8552 N   0  0  0  0  0  0  0  0  0  0  0  0
   -7.8386  -15.4634   28.0475 C   0  0  0  0  0  0  0  0  0  0  0  0
   -7.7508  -16.5155   28.8383 N   0  0  0  0  0  0  0  0  0  0  0  0
   -7.0104  -16.1231   29.9114 C   0  0  0  0  0  0  0  0  0  0  0  0
   -6.6711  -14.8003   29.8068 C   0  0  0  0  0  0  0  0  0  0  0  0
   -7.0743  -14.3742   28.5449 N   0  0  0  0  0  0  0  0  0  0  0  0
   -4.1186  -11.9148   28.2442 C   0  0  0  0  0  0  0  0  0  0  0  0
    0.4459   -7.6321   30.0368 C   0  0  0  0  0  0  0  0  0  0  0  0
    1.6810   -5.8409   30.1030 H   0  0  0  0  0  0  0  0  0  0  0  0
    0.0759   -4.6943   31.6578 H   0  0  0  0  0  0  0  0  0  0  0  0
   -2.2925   -8.0698   31.8637 H   0  0  0  0  0  0  0  0  0  0  0  0
   -0.7958  -10.3702   30.8595 H   0  0  0  0  0  0  0  0  0  0  0  0
   -0.0648   -9.8450   29.3568 H   0  0  0  0  0  0  0  0  0  0  0  0
   -3.5537  -11.1089   29.7792 H   0  0  0  0  0  0  0  0  0  0  0  0
   -4.7860   -7.8529   28.9563 H   0  0  0  0  0  0  0  0  0  0  0  0
   -5.0708   -8.2720   27.2483 H   0  0  0  0  0  0  0  0  0  0  0  0
   -6.7585   -9.7887   29.7668 H   0  0  0  0  0  0  0  0  0  0  0  0
   -7.1990   -9.2361   28.0899 H   0  0  0  0  0  0  0  0  0  0  0  0
   -7.3815  -12.3776   25.7845 H   0  0  0  0  0  0  0  0  0  0  0  0
   -8.7899  -14.2440   25.1919 H   0  0  0  0  0  0  0  0  0  0  0  0
   -6.7744  -16.8073   30.7168 H   0  0  0  0  0  0  0  0  0  0  0  0
   -6.1130  -14.1569   30.4643 H   0  0  0  0  0  0  0  0  0  0  0  0
   -3.7734  -12.1624   27.2236 H   0  0  0  0  0  0  0  0  0  0  0  0
   -3.8180  -12.5436   29.1018 H   0  0  0  0  0  0  0  0  0  0  0  0
    1.1529   -8.1724   29.4086 H   0  0  0  0  0  0  0  0  0  0  0  0
  1  2  2  0
  2  3  1  0
  3  4  2  0
  4  5  1  0
  5  6  1  0
  6  7  1  0
  7  8  1  0
  8  9  1  0
  9 10  1  0
 10 11  1  0
 11 12  1  0
 12 13  2  0
 13 14  1  0
 14 15  2  0
 15 16  1  0
 16 17  2  0
 17 18  1  0
 18 19  2  0
 19 20  1  0
 11 21  1  0
  5 22  2  0
 22  1  1  0
 21  8  1  0
 20 12  1  0
 20 16  1  0
  1 23  1  0
  2 24  1  0
  4 25  1  0
  6 26  1  0
  6 27  1  0
  8 28  1  0
  9 29  1  0
  9 30  1  0
 10 31  1  0
 10 32  1  0
 13 33  1  0
 14 34  1  0
 18 35  1  0
 19 36  1  0
 21 37  1  0
 21 38  1  0
 22 39  1  0
M  END
>  <Energy>  (852) 
914.64532227053917

>  <compound_id>  (852) 
8779

>  <target_id>  (852) 
1

>  <reference_id>  (852) 
53

>  <inspiration_ids>  (852) 
[53, 107]

>  <energy_score>  (852) 
766.4690490764954

>  <distance_score>  (852) 
11.662052696128772

>  <path>  (852) 
/opt/xchem-fragalysis-2/maxwin/BulkDock/SCRATCH/511013/C8779-P53/C8779-P53.minimised.mol

>  <scratch_subdir>  (852) 
/opt/xchem-fragalysis-2/maxwin/BulkDock/SCRATCH/511013/C8779-P53

>  <fragmenstein_runtime>  (852) 
10.062082529067993

>  <fragmenstein_outcome>  (852) 
too moved

>  <fragmenstein_mode>  (852) 
expansion

>  <fragmenstein_error>  (852) 


$$$$
C8779-P107
     RDKit          3D

 39 42  0  0  0  0  0  0  0  0999 V2000
   -2.1875   -8.4512   32.0769 C   0  0  0  0  0  0  0  0  0  0  0  0
   -1.1994   -8.1386   31.1801 C   0  0  0  0  0  0  0  0  0  0  0  0
   -0.9431   -9.0069   30.1644 N   0  0  0  0  0  0  0  0  0  0  0  0
   -1.5262  -10.3293   30.1368 C   0  0  0  0  0  0  0  0  0  0  0  0
   -2.7119  -10.7006   30.8418 C   0  0  0  0  0  0  0  0  0  0  0  0
   -4.1063  -11.9220   30.1905 C   0  0  0  0  0  0  0  0  0  0  0  0
   -4.8443  -13.4295   30.0401 O   0  0  0  0  0  0  0  0  0  0  0  0
   -6.1503  -14.2873   30.3877 C   0  0  0  0  0  0  0  0  0  0  0  0
   -6.9949  -14.8131   29.2389 C   0  0  0  0  0  0  0  0  0  0  0  0
   -8.0567  -15.6479   29.9425 C   0  0  0  0  0  0  0  0  0  0  0  0
   -7.4577  -16.4201   31.2172 N   0  0  0  0  0  0  0  0  0  0  0  0
   -7.5405  -18.0772   31.4013 C   0  0  0  0  0  0  0  0  0  0  0  0
   -7.1568  -18.3747   29.8099 C   0  0  0  0  0  0  0  0  0  0  0  0
   -8.3515  -19.3399   28.6116 C   0  0  0  0  0  0  0  0  0  0  0  0
   -9.8104  -20.1963   29.3164 N   0  0  0  0  0  0  0  0  0  0  0  0
  -10.0743  -20.3642   31.1602 C   0  0  0  0  0  0  0  0  0  0  0  0
  -11.0037  -20.9006   31.9252 N   0  0  0  0  0  0  0  0  0  0  0  0
  -11.0495  -20.1114   33.0868 C   0  0  0  0  0  0  0  0  0  0  0  0
   -9.9736  -19.2093   33.3260 C   0  0  0  0  0  0  0  0  0  0  0  0
   -9.0108  -19.2607   32.3057 N   0  0  0  0  0  0  0  0  0  0  0  0
   -6.0912  -15.9424   31.0583 C   0  0  0  0  0  0  0  0  0  0  0  0
   -2.9966   -9.6167   31.8484 C   0  0  0  0  0  0  0  0  0  0  0  0
   -2.3741   -7.7886   32.9083 H   0  0  0  0  0  0  0  0  0  0  0  0
   -0.5793   -7.2519   31.2326 H   0  0  0  0  0  0  0  0  0  0  0  0
   -1.1784  -10.7628   29.2300 H   0  0  0  0  0  0  0  0  0  0  0  0
   -3.2418  -12.4120   29.7730 H   0  0  0  0  0  0  0  0  0  0  0  0
   -4.7035  -11.7433   31.0636 H   0  0  0  0  0  0  0  0  0  0  0  0
   -6.7295  -13.7237   31.0963 H   0  0  0  0  0  0  0  0  0  0  0  0
   -7.4091  -14.0885   28.5437 H   0  0  0  0  0  0  0  0  0  0  0  0
   -6.4466  -15.5065   28.6019 H   0  0  0  0  0  0  0  0  0  0  0  0
   -8.4519  -16.3150   29.1649 H   0  0  0  0  0  0  0  0  0  0  0  0
   -8.8691  -15.0249   30.3153 H   0  0  0  0  0  0  0  0  0  0  0  0
   -6.5782  -17.7250   29.1689 H   0  0  0  0  0  0  0  0  0  0  0  0
   -8.7102  -18.5223   27.9104 H   0  0  0  0  0  0  0  0  0  0  0  0
  -11.9028  -20.2151   33.7507 H   0  0  0  0  0  0  0  0  0  0  0  0
   -9.9390  -18.3483   33.9813 H   0  0  0  0  0  0  0  0  0  0  0  0
   -5.4866  -16.5408   30.3621 H   0  0  0  0  0  0  0  0  0  0  0  0
   -5.7019  -16.1607   32.0570 H   0  0  0  0  0  0  0  0  0  0  0  0
   -3.9457   -9.6094   32.3845 H   0  0  0  0  0  0  0  0  0  0  0  0
  1  2  2  0
  2  3  1  0
  3  4  2  0
  4  5  1  0
  5  6  1  0
  6  7  1  0
  7  8  1  0
  8  9  1  0
  9 10  1  0
 10 11  1  0
 11 12  1  0
 12 13  2  0
 13 14  1  0
 14 15  2  0
 15 16  1  0
 16 17  2  0
 17 18  1  0
 18 19  2  0
 19 20  1  0
 11 21  1  0
  5 22  2  0
 22  1  1  0
 21  8  1  0
 20 12  1  0
 20 16  1  0
  1 23  1  0
  2 24  1  0
  4 25  1  0
  6 26  1  0
  6 27  1  0
  8 28  1  0
  9 29  1  0
  9 30  1  0
 10 31  1  0
 10 32  1  0
 13 33  1  0
 14 34  1  0
 18 35  1  0
 19 36  1  0
 21 37  1  0
 21 38  1  0
 22 39  1  0
M  END
>  <Energy>  (853) 
996.14438387634834

>  <compound_id>  (853) 
8779

>  <target_id>  (853) 
1

>  <reference_id>  (853) 
107

>  <inspiration_ids>  (853) 
[53, 107]

>  <energy_score>  (853) 
847.9681106823173

>  <distance_score>  (853) 
10.916109996147211

>  <path>  (853) 
/opt/xchem-fragalysis-2/maxwin/BulkDock/SCRATCH/511013/C8779-P107/C8779-P107.minimised.mol

>  <scratch_subdir>  (853) 
/opt/xchem-fragalysis-2/maxwin/BulkDock/SCRATCH/511013/C8779-P107

>  <fragmenstein_runtime>  (853) 
8.964520692825317

>  <fragmenstein_outcome>  (853) 
too moved

>  <fragmenstein_mode>  (853) 
expansion

>  <fragmenstein_error>  (853) 


$$$$
C8776-P53
     RDKit          3D

 49 52  0  0  0  0  0  0  0  0999 V2000
    1.0215   -6.4771   32.2688 C   0  0  0  0  0  0  0  0  0  0  0  0
   -0.2980   -5.7083   32.1691 C   0  0  0  0  0  0  0  0  0  0  0  0
   -0.0327   -4.2581   31.7458 C   0  0  0  0  0  0  0  0  0  0  0  0
   -1.3267   -6.3271   31.3148 N   0  0  0  0  0  0  0  0  0  0  0  0
   -1.8674   -7.5645   31.8513 C   0  0  0  0  0  0  0  0  0  0  0  0
   -3.2360   -8.0773   31.2201 C   0  0  0  0  0  0  0  0  0  0  0  0
   -3.7255   -7.5594   29.4356 N   0  0  0  0  0  0  0  0  0  0  0  0
   -5.5145   -8.2724   28.7502 C   0  0  0  0  0  0  0  0  0  0  0  0
   -6.4311   -9.2506   27.3578 C   0  0  0  0  0  0  0  0  0  0  0  0
   -5.9014  -11.1781   26.8761 C   0  0  0  0  0  0  0  0  0  0  0  0
   -6.0664  -11.8152   28.3014 N   0  0  0  0  0  0  0  0  0  0  0  0
   -6.9108  -13.3711   28.0030 C   0  0  0  0  0  0  0  0  0  0  0  0
   -7.6058  -13.6403   26.8501 C   0  0  0  0  0  0  0  0  0  0  0  0
   -8.3421  -14.9228   26.6784 C   0  0  0  0  0  0  0  0  0  0  0  0
   -8.3537  -15.9319   27.4767 N   0  0  0  0  0  0  0  0  0  0  0  0
   -7.6156  -15.7698   28.6047 C   0  0  0  0  0  0  0  0  0  0  0  0
   -7.3359  -16.7115   29.4816 N   0  0  0  0  0  0  0  0  0  0  0  0
   -6.6743  -16.1009   30.4985 C   0  0  0  0  0  0  0  0  0  0  0  0
   -6.5034  -14.7699   30.2248 C   0  0  0  0  0  0  0  0  0  0  0  0
   -6.9868  -14.5395   28.9450 N   0  0  0  0  0  0  0  0  0  0  0  0
   -6.5415  -10.0615   29.1713 C   0  0  0  0  0  0  0  0  0  0  0  0
   -2.1431   -7.2079   28.9375 C   0  0  0  0  0  0  0  0  0  0  0  0
   -0.9734   -6.5449   29.9213 C   0  0  0  0  0  0  0  0  0  0  0  0
    1.5421   -6.5184   31.3074 H   0  0  0  0  0  0  0  0  0  0  0  0
    1.6939   -5.9894   32.9834 H   0  0  0  0  0  0  0  0  0  0  0  0
    0.8604   -7.4990   32.6239 H   0  0  0  0  0  0  0  0  0  0  0  0
   -0.7133   -5.6430   33.1840 H   0  0  0  0  0  0  0  0  0  0  0  0
    0.5830   -3.7498   32.4963 H   0  0  0  0  0  0  0  0  0  0  0  0
   -0.9695   -3.6968   31.6569 H   0  0  0  0  0  0  0  0  0  0  0  0
    0.4983   -4.1958   30.7905 H   0  0  0  0  0  0  0  0  0  0  0  0
   -1.1224   -8.3638   31.7176 H   0  0  0  0  0  0  0  0  0  0  0  0
   -1.9935   -7.4945   32.9370 H   0  0  0  0  0  0  0  0  0  0  0  0
   -4.1437   -8.2276   31.8038 H   0  0  0  0  0  0  0  0  0  0  0  0
   -2.9621   -9.1363   31.2761 H   0  0  0  0  0  0  0  0  0  0  0  0
   -5.0489   -7.9878   27.8000 H   0  0  0  0  0  0  0  0  0  0  0  0
   -7.4452   -9.1491   27.7881 H   0  0  0  0  0  0  0  0  0  0  0  0
   -7.0417   -8.7572   26.6284 H   0  0  0  0  0  0  0  0  0  0  0  0
   -6.4568  -11.5252   25.9740 H   0  0  0  0  0  0  0  0  0  0  0  0
   -4.9297  -11.6885   26.9862 H   0  0  0  0  0  0  0  0  0  0  0  0
   -7.7342  -12.9649   26.0240 H   0  0  0  0  0  0  0  0  0  0  0  0
   -8.9276  -14.9893   25.7461 H   0  0  0  0  0  0  0  0  0  0  0  0
   -6.3624  -16.6486   31.3787 H   0  0  0  0  0  0  0  0  0  0  0  0
   -6.0416  -13.9862   30.7883 H   0  0  0  0  0  0  0  0  0  0  0  0
   -7.5993   -9.7773   29.3010 H   0  0  0  0  0  0  0  0  0  0  0  0
   -6.4615  -10.4308   30.1539 H   0  0  0  0  0  0  0  0  0  0  0  0
   -2.2617   -6.7503   27.9722 H   0  0  0  0  0  0  0  0  0  0  0  0
   -1.5362   -8.1020   28.8016 H   0  0  0  0  0  0  0  0  0  0  0  0
   -0.1123   -7.2270   29.9040 H   0  0  0  0  0  0  0  0  0  0  0  0
   -0.6305   -5.6018   29.4823 H   0  0  0  0  0  0  0  0  0  0  0  0
  1  2  1  0
  2  3  1  0
  2  4  1  0
  4  5  1  0
  5  6  1  0
  6  7  1  0
  7  8  1  0
  8  9  1  0
  9 10  1  0
 10 11  1  0
 11 12  1  0
 12 13  2  0
 13 14  1  0
 14 15  2  0
 15 16  1  0
 16 17  2  0
 17 18  1  0
 18 19  2  0
 19 20  1  0
 11 21  1  0
  7 22  1  0
 22 23  1  0
 23  4  1  0
 21  8  1  0
 20 12  1  0
 20 16  1  0
  1 24  1  0
  1 25  1  0
  1 26  1  0
  2 27  1  0
  3 28  1  0
  3 29  1  0
  3 30  1  0
  5 31  1  0
  5 32  1  0
  6 33  1  0
  6 34  1  0
  8 35  1  0
  9 36  1  0
  9 37  1  0
 10 38  1  0
 10 39  1  0
 13 40  1  0
 14 41  1  0
 18 42  1  0
 19 43  1  0
 21 44  1  0
 21 45  1  0
 22 46  1  0
 22 47  1  0
 23 48  1  0
 23 49  1  0
M  END
>  <Energy>  (854) 
885.61861889517616

>  <compound_id>  (854) 
8776

>  <target_id>  (854) 
1

>  <reference_id>  (854) 
53

>  <inspiration_ids>  (854) 
[53, 107]

>  <energy_score>  (854) 
671.5469222419728

>  <distance_score>  (854) 
11.909273439184442

>  <path>  (854) 
/opt/xchem-fragalysis-2/maxwin/BulkDock/SCRATCH/511013/C8776-P53/C8776-P53.minimised.mol

>  <scratch_subdir>  (854) 
/opt/xchem-fragalysis-2/maxwin/BulkDock/SCRATCH/511013/C8776-P53

>  <fragmenstein_runtime>  (854) 
17.198594331741333

>  <fragmenstein_outcome>  (854) 
too moved

>  <fragmenstein_mode>  (854) 
expansion

>  <fragmenstein_error>  (854) 


$$$$
C8776-P107
     RDKit          3D

 49 52  0  0  0  0  0  0  0  0999 V2000
    1.2106   -2.2149   32.1809 C   0  0  0  0  0  0  0  0  0  0  0  0
    0.9296   -3.3192   33.2144 C   0  0  0  0  0  0  0  0  0  0  0  0
    0.2878   -2.6488   34.4410 C   0  0  0  0  0  0  0  0  0  0  0  0
    0.0678   -4.3927   32.6595 N   0  0  0  0  0  0  0  0  0  0  0  0
    0.6715   -5.0368   31.4796 C   0  0  0  0  0  0  0  0  0  0  0  0
   -0.2334   -6.1718   30.9469 C   0  0  0  0  0  0  0  0  0  0  0  0
   -0.5540   -7.2965   31.8875 N   0  0  0  0  0  0  0  0  0  0  0  0
   -1.4111   -8.3896   31.2641 C   0  0  0  0  0  0  0  0  0  0  0  0
   -0.6408   -8.8573   30.0062 C   0  0  0  0  0  0  0  0  0  0  0  0
   -0.5225  -10.4074   29.7282 C   0  0  0  0  0  0  0  0  0  0  0  0
   -1.1682  -11.3206   30.9093 N   0  0  0  0  0  0  0  0  0  0  0  0
   -0.5689  -12.8498   31.8900 C   0  0  0  0  0  0  0  0  0  0  0  0
   -0.3173  -14.1693   31.5240 C   0  0  0  0  0  0  0  0  0  0  0  0
   -0.1180  -15.3917   32.3476 C   0  0  0  0  0  0  0  0  0  0  0  0
   -0.3811  -15.5224   33.5870 N   0  0  0  0  0  0  0  0  0  0  0  0
   -0.8417  -14.3928   34.1574 C   0  0  0  0  0  0  0  0  0  0  0  0
   -1.4142  -14.3676   35.3428 N   0  0  0  0  0  0  0  0  0  0  0  0
   -1.6546  -13.0718   35.6092 C   0  0  0  0  0  0  0  0  0  0  0  0
   -1.2035  -12.2693   34.5914 C   0  0  0  0  0  0  0  0  0  0  0  0
   -0.7870  -13.0858   33.5306 N   0  0  0  0  0  0  0  0  0  0  0  0
   -1.9654   -9.8778   31.7649 C   0  0  0  0  0  0  0  0  0  0  0  0
   -1.0258   -6.6856   33.1296 C   0  0  0  0  0  0  0  0  0  0  0  0
   -0.1686   -5.4773   33.6496 C   0  0  0  0  0  0  0  0  0  0  0  0
    0.2809   -1.8255   31.7511 H   0  0  0  0  0  0  0  0  0  0  0  0
    1.8466   -2.5725   31.3653 H   0  0  0  0  0  0  0  0  0  0  0  0
    1.7426   -1.3750   32.6420 H   0  0  0  0  0  0  0  0  0  0  0  0
    1.8951   -3.7401   33.5257 H   0  0  0  0  0  0  0  0  0  0  0  0
    0.2445   -3.3252   35.3000 H   0  0  0  0  0  0  0  0  0  0  0  0
   -0.7285   -2.3036   34.2200 H   0  0  0  0  0  0  0  0  0  0  0  0
    0.8730   -1.7795   34.7617 H   0  0  0  0  0  0  0  0  0  0  0  0
    1.6701   -5.4322   31.7046 H   0  0  0  0  0  0  0  0  0  0  0  0
    0.7757   -4.3147   30.6629 H   0  0  0  0  0  0  0  0  0  0  0  0
    0.2325   -6.5203   30.0245 H   0  0  0  0  0  0  0  0  0  0  0  0
   -1.1688   -5.7042   30.6715 H   0  0  0  0  0  0  0  0  0  0  0  0
   -2.3258   -7.8089   31.1029 H   0  0  0  0  0  0  0  0  0  0  0  0
   -0.7730   -8.2556   29.1006 H   0  0  0  0  0  0  0  0  0  0  0  0
    0.3272   -8.6180   30.3545 H   0  0  0  0  0  0  0  0  0  0  0  0
    0.5290  -10.6626   29.5402 H   0  0  0  0  0  0  0  0  0  0  0  0
   -1.1001  -10.5201   28.8295 H   0  0  0  0  0  0  0  0  0  0  0  0
   -0.4961  -14.6251   30.5630 H   0  0  0  0  0  0  0  0  0  0  0  0
    0.2577  -16.2707   31.7956 H   0  0  0  0  0  0  0  0  0  0  0  0
   -2.1224  -12.7613   36.5335 H   0  0  0  0  0  0  0  0  0  0  0  0
   -1.2665  -11.1992   34.5246 H   0  0  0  0  0  0  0  0  0  0  0  0
   -3.0113   -9.9792   31.5112 H   0  0  0  0  0  0  0  0  0  0  0  0
   -1.9250   -9.9102   32.8588 H   0  0  0  0  0  0  0  0  0  0  0  0
   -2.0361   -6.3162   32.9805 H   0  0  0  0  0  0  0  0  0  0  0  0
   -1.0722   -7.4450   33.9176 H   0  0  0  0  0  0  0  0  0  0  0  0
   -0.7144   -5.0795   34.5115 H   0  0  0  0  0  0  0  0  0  0  0  0
    0.7890   -5.8640   34.0223 H   0  0  0  0  0  0  0  0  0  0  0  0
  1  2  1  0
  2  3  1  0
  2  4  1  0
  4  5  1  0
  5  6  1  0
  6  7  1  0
  7  8  1  0
  8  9  1  0
  9 10  1  0
 10 11  1  0
 11 12  1  0
 12 13  2  0
 13 14  1  0
 14 15  2  0
 15 16  1  0
 16 17  2  0
 17 18  1  0
 18 19  2  0
 19 20  1  0
 11 21  1  0
  7 22  1  0
 22 23  1  0
 23  4  1  0
 21  8  1  0
 20 12  1  0
 20 16  1  0
  1 24  1  0
  1 25  1  0
  1 26  1  0
  2 27  1  0
  3 28  1  0
  3 29  1  0
  3 30  1  0
  5 31  1  0
  5 32  1  0
  6 33  1  0
  6 34  1  0
  8 35  1  0
  9 36  1  0
  9 37  1  0
 10 38  1  0
 10 39  1  0
 13 40  1  0
 14 41  1  0
 18 42  1  0
 19 43  1  0
 21 44  1  0
 21 45  1  0
 22 46  1  0
 22 47  1  0
 23 48  1  0
 23 49  1  0
M  END
>  <Energy>  (855) 
376.89075970097599

>  <compound_id>  (855) 
8776

>  <target_id>  (855) 
1

>  <reference_id>  (855) 
107

>  <inspiration_ids>  (855) 
[53, 107]

>  <energy_score>  (855) 
162.81906304778454

>  <distance_score>  (855) 
14.082868662399548

>  <path>  (855) 
/opt/xchem-fragalysis-2/maxwin/BulkDock/SCRATCH/511013/C8776-P107/C8776-P107.minimised.mol

>  <scratch_subdir>  (855) 
/opt/xchem-fragalysis-2/maxwin/BulkDock/SCRATCH/511013/C8776-P107

>  <fragmenstein_runtime>  (855) 
12.28029489517212

>  <fragmenstein_outcome>  (855) 
too moved

>  <fragmenstein_mode>  (855) 
expansion

>  <fragmenstein_error>  (855) 


$$$$
C8759-P53
     RDKit          3D

 38 41  0  0  0  0  0  0  0  0999 V2000
  -12.0063  -14.1439   25.4888 C   0  0  0  0  0  0  0  0  0  0  0  0
  -12.4540  -12.7412   25.6876 C   0  0  0  0  0  0  0  0  0  0  0  0
  -12.9779  -12.3833   26.8827 C   0  0  0  0  0  0  0  0  0  0  0  0
  -13.2605  -10.9825   27.1741 N   0  0  0  0  0  0  0  0  0  0  0  0
  -13.6940  -10.3797   28.4478 C   0  0  0  0  0  0  0  0  0  0  0  0
  -12.9238   -9.0500   28.5700 C   0  0  0  0  0  0  0  0  0  0  0  0
  -12.9269   -8.4696   27.1550 C   0  0  0  0  0  0  0  0  0  0  0  0
  -11.9452   -7.3222   26.9515 N   0  0  0  0  0  0  0  0  0  0  0  0
  -12.1645   -6.5946   25.6770 C   0  0  0  0  0  0  0  0  0  0  0  0
  -11.5498   -5.1937   25.8476 C   0  0  0  0  0  0  0  0  0  0  0  0
  -11.3045   -5.0519   27.3368 C   0  0  0  0  0  0  0  0  0  0  0  0
  -12.0641   -6.2311   27.9492 C   0  0  0  0  0  0  0  0  0  0  0  0
  -12.7491   -9.8175   26.3291 C   0  0  0  0  0  0  0  0  0  0  0  0
  -13.0815  -13.4741   27.8259 N   0  0  0  0  0  0  0  0  0  0  0  0
  -13.6421  -13.5819   29.0816 C   0  0  0  0  0  0  0  0  0  0  0  0
  -13.1020  -14.7151   29.6379 C   0  0  0  0  0  0  0  0  0  0  0  0
  -12.3896  -15.4201   28.7141 N   0  0  0  0  0  0  0  0  0  0  0  0
  -12.4673  -14.7258   27.5993 C   0  0  0  0  0  0  0  0  0  0  0  0
  -11.9816  -15.0773   26.3778 N   0  0  0  0  0  0  0  0  0  0  0  0
  -11.6382  -14.3704   24.4742 H   0  0  0  0  0  0  0  0  0  0  0  0
  -12.2834  -12.0552   24.8714 H   0  0  0  0  0  0  0  0  0  0  0  0
  -14.7730  -10.1948   28.4023 H   0  0  0  0  0  0  0  0  0  0  0  0
  -13.4852  -10.9734   29.3350 H   0  0  0  0  0  0  0  0  0  0  0  0
  -11.8965   -9.2399   28.9028 H   0  0  0  0  0  0  0  0  0  0  0  0
  -13.3992   -8.3867   29.2995 H   0  0  0  0  0  0  0  0  0  0  0  0
  -13.9413   -8.0945   26.9574 H   0  0  0  0  0  0  0  0  0  0  0  0
  -11.7393   -7.1275   24.8230 H   0  0  0  0  0  0  0  0  0  0  0  0
  -13.2386   -6.4765   25.4819 H   0  0  0  0  0  0  0  0  0  0  0  0
  -12.2539   -4.4312   25.4961 H   0  0  0  0  0  0  0  0  0  0  0  0
  -10.6227   -5.0665   25.2826 H   0  0  0  0  0  0  0  0  0  0  0  0
  -11.6600   -4.0929   27.7254 H   0  0  0  0  0  0  0  0  0  0  0  0
  -10.2346   -5.1160   27.5338 H   0  0  0  0  0  0  0  0  0  0  0  0
  -11.6488   -6.5208   28.9152 H   0  0  0  0  0  0  0  0  0  0  0  0
  -13.1163   -5.9542   28.0953 H   0  0  0  0  0  0  0  0  0  0  0  0
  -13.2998   -9.7614   25.3845 H   0  0  0  0  0  0  0  0  0  0  0  0
  -11.6948   -9.9824   26.1174 H   0  0  0  0  0  0  0  0  0  0  0  0
  -14.3044  -12.8391   29.4895 H   0  0  0  0  0  0  0  0  0  0  0  0
  -13.2156  -15.0731   30.6517 H   0  0  0  0  0  0  0  0  0  0  0  0
  1  2  1  0
  2  3  2  0
  3  4  1  0
  4  5  1  0
  5  6  1  0
  6  7  1  0
  7  8  1  0
  8  9  1  0
  9 10  1  0
 10 11  1  0
 11 12  1  0
  7 13  1  0
  3 14  1  0
 14 15  1  0
 15 16  2  0
 16 17  1  0
 17 18  2  0
 18 19  1  0
 19  1  2  0
 13  4  1  0
 18 14  1  0
 12  8  1  0
  1 20  1  0
  2 21  1  0
  5 22  1  0
  5 23  1  0
  6 24  1  0
  6 25  1  0
  7 26  1  0
  9 27  1  0
  9 28  1  0
 10 29  1  0
 10 30  1  0
 11 31  1  0
 11 32  1  0
 12 33  1  0
 12 34  1  0
 13 35  1  0
 13 36  1  0
 15 37  1  0
 16 38  1  0
M  END
>  <Energy>  (856) 
94.347959283741062

>  <compound_id>  (856) 
8759

>  <target_id>  (856) 
1

>  <reference_id>  (856) 
53

>  <inspiration_ids>  (856) 
[53, 107]

>  <energy_score>  (856) 
-32.86166444455739

>  <distance_score>  (856) 
14.492641085986456

>  <path>  (856) 
/opt/xchem-fragalysis-2/maxwin/BulkDock/SCRATCH/511013/C8759-P53/C8759-P53.minimised.mol

>  <scratch_subdir>  (856) 
/opt/xchem-fragalysis-2/maxwin/BulkDock/SCRATCH/511013/C8759-P53

>  <fragmenstein_runtime>  (856) 
14.328031778335571

>  <fragmenstein_outcome>  (856) 
too moved

>  <fragmenstein_mode>  (856) 
expansion

>  <fragmenstein_error>  (856) 


$$$$
C8759-P107
     RDKit          3D

 38 41  0  0  0  0  0  0  0  0999 V2000
   -9.5568  -20.5974   27.6896 C   0  0  0  0  0  0  0  0  0  0  0  0
   -9.0356  -18.6413   27.9565 C   0  0  0  0  0  0  0  0  0  0  0  0
  -10.1034  -17.9892   28.7984 C   0  0  0  0  0  0  0  0  0  0  0  0
   -8.8724  -16.5431   28.8842 N   0  0  0  0  0  0  0  0  0  0  0  0
   -7.5191  -16.5172   29.6714 C   0  0  0  0  0  0  0  0  0  0  0  0
   -6.4908  -15.4027   29.1613 C   0  0  0  0  0  0  0  0  0  0  0  0
   -6.8936  -13.6733   28.9081 C   0  0  0  0  0  0  0  0  0  0  0  0
   -5.9445  -11.8194   28.8691 N   0  0  0  0  0  0  0  0  0  0  0  0
   -6.1098  -10.7475   30.4558 C   0  0  0  0  0  0  0  0  0  0  0  0
   -5.8413   -8.9486   30.4754 C   0  0  0  0  0  0  0  0  0  0  0  0
   -5.9801   -8.5240   29.0892 C   0  0  0  0  0  0  0  0  0  0  0  0
   -6.5976   -9.8978   28.7277 C   0  0  0  0  0  0  0  0  0  0  0  0
   -8.5454  -14.7279   28.3843 C   0  0  0  0  0  0  0  0  0  0  0  0
  -10.5133  -19.9244   29.5010 N   0  0  0  0  0  0  0  0  0  0  0  0
  -10.6596  -20.6931   30.9857 C   0  0  0  0  0  0  0  0  0  0  0  0
  -11.5997  -21.6878   30.9047 C   0  0  0  0  0  0  0  0  0  0  0  0
  -12.0209  -21.7772   29.6414 N   0  0  0  0  0  0  0  0  0  0  0  0
  -11.1096  -21.1268   28.9771 C   0  0  0  0  0  0  0  0  0  0  0  0
  -10.2611  -21.6326   28.1473 N   0  0  0  0  0  0  0  0  0  0  0  0
  -10.0705  -20.7062   26.7452 H   0  0  0  0  0  0  0  0  0  0  0  0
   -8.1017  -18.2019   27.6029 H   0  0  0  0  0  0  0  0  0  0  0  0
   -7.6637  -16.2458   30.7230 H   0  0  0  0  0  0  0  0  0  0  0  0
   -7.0299  -17.4933   29.6056 H   0  0  0  0  0  0  0  0  0  0  0  0
   -5.7428  -15.4695   29.9490 H   0  0  0  0  0  0  0  0  0  0  0  0
   -6.2111  -15.8468   28.2306 H   0  0  0  0  0  0  0  0  0  0  0  0
   -6.7923  -13.7753   30.0156 H   0  0  0  0  0  0  0  0  0  0  0  0
   -7.1676  -10.5718   30.5163 H   0  0  0  0  0  0  0  0  0  0  0  0
   -5.6229  -11.3133   31.2690 H   0  0  0  0  0  0  0  0  0  0  0  0
   -6.1446   -8.1817   31.0544 H   0  0  0  0  0  0  0  0  0  0  0  0
   -4.9203   -8.7452   31.1563 H   0  0  0  0  0  0  0  0  0  0  0  0
   -5.0691   -7.9408   29.0718 H   0  0  0  0  0  0  0  0  0  0  0  0
   -5.5098   -8.4245   28.0953 H   0  0  0  0  0  0  0  0  0  0  0  0
   -7.6515   -9.7137   29.0285 H   0  0  0  0  0  0  0  0  0  0  0  0
   -6.5732   -9.6059   27.6244 H   0  0  0  0  0  0  0  0  0  0  0  0
   -8.4992  -14.8044   27.2931 H   0  0  0  0  0  0  0  0  0  0  0  0
   -9.4516  -14.2706   28.7393 H   0  0  0  0  0  0  0  0  0  0  0  0
  -10.2063  -20.2445   31.8577 H   0  0  0  0  0  0  0  0  0  0  0  0
  -12.0261  -22.2761   31.7080 H   0  0  0  0  0  0  0  0  0  0  0  0
  1  2  1  0
  2  3  2  0
  3  4  1  0
  4  5  1  0
  5  6  1  0
  6  7  1  0
  7  8  1  0
  8  9  1  0
  9 10  1  0
 10 11  1  0
 11 12  1  0
  7 13  1  0
  3 14  1  0
 14 15  1  0
 15 16  2  0
 16 17  1  0
 17 18  2  0
 18 19  1  0
 19  1  2  0
 13  4  1  0
 18 14  1  0
 12  8  1  0
  1 20  1  0
  2 21  1  0
  5 22  1  0
  5 23  1  0
  6 24  1  0
  6 25  1  0
  7 26  1  0
  9 27  1  0
  9 28  1  0
 10 29  1  0
 10 30  1  0
 11 31  1  0
 11 32  1  0
 12 33  1  0
 12 34  1  0
 13 35  1  0
 13 36  1  0
 15 37  1  0
 16 38  1  0
M  END
>  <Energy>  (857) 
1398.2624246549278

>  <compound_id>  (857) 
8759

>  <target_id>  (857) 
1

>  <reference_id>  (857) 
107

>  <inspiration_ids>  (857) 
[53, 107]

>  <energy_score>  (857) 
1271.052800926628

>  <distance_score>  (857) 
12.0621746291349

>  <path>  (857) 
/opt/xchem-fragalysis-2/maxwin/BulkDock/SCRATCH/511013/C8759-P107/C8759-P107.minimised.mol

>  <scratch_subdir>  (857) 
/opt/xchem-fragalysis-2/maxwin/BulkDock/SCRATCH/511013/C8759-P107

>  <fragmenstein_runtime>  (857) 
12.286081075668335

>  <fragmenstein_outcome>  (857) 
too moved

>  <fragmenstein_mode>  (857) 
expansion

>  <fragmenstein_error>  (857) 


$$$$
C8760-P53
     RDKit          3D

 47 50  0  0  0  0  0  0  0  0999 V2000
   -6.5618  -13.8140   31.5238 C   0  0  0  0  0  0  0  0  0  0  0  0
   -5.9584  -14.3198   30.3551 C   0  0  0  0  0  0  0  0  0  0  0  0
   -5.1083  -15.5412   30.6199 C   0  0  0  0  0  0  0  0  0  0  0  0
   -6.3174  -13.6938   29.1135 C   0  0  0  0  0  0  0  0  0  0  0  0
   -5.2078  -12.0122   29.2175 C   0  0  0  0  0  0  0  0  0  0  0  0
   -6.3952  -10.5891   29.0865 C   0  0  0  0  0  0  0  0  0  0  0  0
   -6.3778   -8.6137   28.9474 N   0  0  0  0  0  0  0  0  0  0  0  0
   -5.3290   -7.6279   28.6403 C   0  0  0  0  0  0  0  0  0  0  0  0
   -5.9859   -5.5341   28.8211 C   0  0  0  0  0  0  0  0  0  0  0  0
   -5.7448   -5.0385   30.1280 C   0  0  0  0  0  0  0  0  0  0  0  0
   -6.1112   -6.6747   29.1700 C   0  0  0  0  0  0  0  0  0  0  0  0
   -6.4653  -12.3130   27.7504 C   0  0  0  0  0  0  0  0  0  0  0  0
   -7.3523  -13.5105   28.0537 N   0  0  0  0  0  0  0  0  0  0  0  0
   -8.5594  -14.2553   27.1502 C   0  0  0  0  0  0  0  0  0  0  0  0
   -8.3676  -14.9204   25.9812 C   0  0  0  0  0  0  0  0  0  0  0  0
   -9.3533  -15.7975   25.2957 C   0  0  0  0  0  0  0  0  0  0  0  0
  -10.4999  -16.1325   25.7640 N   0  0  0  0  0  0  0  0  0  0  0  0
  -10.8860  -15.3180   26.7758 C   0  0  0  0  0  0  0  0  0  0  0  0
  -12.1182  -15.1216   27.2005 N   0  0  0  0  0  0  0  0  0  0  0  0
  -12.2391  -13.7889   27.0099 C   0  0  0  0  0  0  0  0  0  0  0  0
  -11.0042  -13.2718   26.6723 C   0  0  0  0  0  0  0  0  0  0  0  0
  -10.0719  -14.1895   27.1866 N   0  0  0  0  0  0  0  0  0  0  0  0
   -7.4198  -14.4405   31.7596 H   0  0  0  0  0  0  0  0  0  0  0  0
   -5.7138  -14.0798   32.0932 H   0  0  0  0  0  0  0  0  0  0  0  0
   -6.6435  -12.7506   31.7677 H   0  0  0  0  0  0  0  0  0  0  0  0
   -5.0694  -13.7915   30.3334 H   0  0  0  0  0  0  0  0  0  0  0  0
   -5.2926  -16.2869   29.8573 H   0  0  0  0  0  0  0  0  0  0  0  0
   -4.0266  -15.3725   30.6928 H   0  0  0  0  0  0  0  0  0  0  0  0
   -5.3609  -15.8529   31.6203 H   0  0  0  0  0  0  0  0  0  0  0  0
   -6.1024  -14.5882   28.6113 H   0  0  0  0  0  0  0  0  0  0  0  0
   -4.4602  -11.8501   28.3913 H   0  0  0  0  0  0  0  0  0  0  0  0
   -4.2069  -11.9948   29.6615 H   0  0  0  0  0  0  0  0  0  0  0  0
   -6.9293  -10.4553   30.0062 H   0  0  0  0  0  0  0  0  0  0  0  0
   -5.0454   -7.9104   27.6093 H   0  0  0  0  0  0  0  0  0  0  0  0
   -4.3132   -7.6672   29.0620 H   0  0  0  0  0  0  0  0  0  0  0  0
   -5.5065   -4.6060   28.4421 H   0  0  0  0  0  0  0  0  0  0  0  0
   -6.9579   -5.2025   28.2126 H   0  0  0  0  0  0  0  0  0  0  0  0
   -6.1905   -4.0201   30.0864 H   0  0  0  0  0  0  0  0  0  0  0  0
   -5.9445   -5.3978   31.0945 H   0  0  0  0  0  0  0  0  0  0  0  0
   -5.8525   -6.2558   27.5991 H   0  0  0  0  0  0  0  0  0  0  0  0
   -6.6312   -6.5398   30.1638 H   0  0  0  0  0  0  0  0  0  0  0  0
   -6.8703  -12.2833   26.6826 H   0  0  0  0  0  0  0  0  0  0  0  0
   -5.5802  -12.1344   27.1407 H   0  0  0  0  0  0  0  0  0  0  0  0
   -7.4897  -14.7567   25.4155 H   0  0  0  0  0  0  0  0  0  0  0  0
   -9.0016  -16.2522   24.3539 H   0  0  0  0  0  0  0  0  0  0  0  0
  -13.2052  -13.3030   26.9787 H   0  0  0  0  0  0  0  0  0  0  0  0
  -10.7153  -12.3710   26.1638 H   0  0  0  0  0  0  0  0  0  0  0  0
  1  2  1  0
  2  3  1  0
  2  4  1  0
  4  5  1  0
  5  6  1  0
  6  7  1  0
  7  8  1  0
  8  9  1  0
  9 10  1  0
 10 11  1  0
  6 12  1  0
 12 13  1  0
 13 14  1  0
 14 15  2  0
 15 16  1  0
 16 17  2  0
 17 18  1  0
 18 19  2  0
 19 20  1  0
 20 21  2  0
 21 22  1  0
 13  4  1  0
 22 14  1  0
 11  7  1  0
 22 18  1  0
  1 23  1  0
  1 24  1  0
  1 25  1  0
  2 26  1  0
  3 27  1  0
  3 28  1  0
  3 29  1  0
  4 30  1  0
  5 31  1  0
  5 32  1  0
  6 33  1  0
  8 34  1  0
  8 35  1  0
  9 36  1  0
  9 37  1  0
 10 38  1  0
 10 39  1  0
 11 40  1  0
 11 41  1  0
 12 42  1  0
 12 43  1  0
 15 44  1  0
 16 45  1  0
 20 46  1  0
 21 47  1  0
M  END
>  <Energy>  (858) 
1711.9114142359099

>  <compound_id>  (858) 
8760

>  <target_id>  (858) 
1

>  <reference_id>  (858) 
53

>  <inspiration_ids>  (858) 
[53, 107]

>  <energy_score>  (858) 
1567.2864551412947

>  <distance_score>  (858) 
10.131399113235911

>  <path>  (858) 
/opt/xchem-fragalysis-2/maxwin/BulkDock/SCRATCH/511013/C8760-P53/C8760-P53.minimised.mol

>  <scratch_subdir>  (858) 
/opt/xchem-fragalysis-2/maxwin/BulkDock/SCRATCH/511013/C8760-P53

>  <fragmenstein_runtime>  (858) 
18.11928415298462

>  <fragmenstein_outcome>  (858) 
too moved

>  <fragmenstein_mode>  (858) 
expansion

>  <fragmenstein_error>  (858) 


$$$$
C8760-P107
     RDKit          3D

 47 50  0  0  0  0  0  0  0  0999 V2000
   -4.9493  -13.2299   30.0484 C   0  0  0  0  0  0  0  0  0  0  0  0
   -5.9841  -14.5130   29.9916 C   0  0  0  0  0  0  0  0  0  0  0  0
   -5.4023  -15.9544   30.2461 C   0  0  0  0  0  0  0  0  0  0  0  0
   -6.7901  -15.1660   28.5002 C   0  0  0  0  0  0  0  0  0  0  0  0
   -7.1389  -13.8208   27.1692 C   0  0  0  0  0  0  0  0  0  0  0  0
   -6.8058  -13.0482   28.2964 C   0  0  0  0  0  0  0  0  0  0  0  0
   -6.1708  -11.2302   28.9301 N   0  0  0  0  0  0  0  0  0  0  0  0
   -6.6220   -9.4929   28.0609 C   0  0  0  0  0  0  0  0  0  0  0  0
   -5.5764   -8.4864   28.3046 C   0  0  0  0  0  0  0  0  0  0  0  0
   -5.9498   -8.8019   29.6365 C   0  0  0  0  0  0  0  0  0  0  0  0
   -6.5785  -10.2074   29.9867 C   0  0  0  0  0  0  0  0  0  0  0  0
   -8.1801  -14.6262   28.2850 C   0  0  0  0  0  0  0  0  0  0  0  0
   -7.9559  -16.6744   28.2116 N   0  0  0  0  0  0  0  0  0  0  0  0
   -8.5353  -18.6191   28.4614 C   0  0  0  0  0  0  0  0  0  0  0  0
   -9.2390  -18.4946   27.4468 C   0  0  0  0  0  0  0  0  0  0  0  0
   -9.6488  -20.5435   27.2750 C   0  0  0  0  0  0  0  0  0  0  0  0
  -10.7352  -21.2942   27.2360 N   0  0  0  0  0  0  0  0  0  0  0  0
  -10.7703  -21.3623   28.5139 C   0  0  0  0  0  0  0  0  0  0  0  0
  -11.5393  -22.1422   29.2112 N   0  0  0  0  0  0  0  0  0  0  0  0
  -11.3997  -21.7976   30.4696 C   0  0  0  0  0  0  0  0  0  0  0  0
  -10.4910  -20.7899   30.5726 C   0  0  0  0  0  0  0  0  0  0  0  0
   -9.8472  -20.1944   29.1066 N   0  0  0  0  0  0  0  0  0  0  0  0
   -5.1550  -12.5723   30.8816 H   0  0  0  0  0  0  0  0  0  0  0  0
   -3.9268  -13.5525   29.9574 H   0  0  0  0  0  0  0  0  0  0  0  0
   -4.7457  -12.4835   29.3088 H   0  0  0  0  0  0  0  0  0  0  0  0
   -6.6834  -14.2030   30.7804 H   0  0  0  0  0  0  0  0  0  0  0  0
   -5.6217  -16.8259   29.6214 H   0  0  0  0  0  0  0  0  0  0  0  0
   -5.6314  -16.3207   31.2656 H   0  0  0  0  0  0  0  0  0  0  0  0
   -4.3329  -15.9662   29.9490 H   0  0  0  0  0  0  0  0  0  0  0  0
   -5.9525  -15.7039   28.4783 H   0  0  0  0  0  0  0  0  0  0  0  0
   -8.0775  -13.3206   26.9531 H   0  0  0  0  0  0  0  0  0  0  0  0
   -6.6910  -13.8906   26.2059 H   0  0  0  0  0  0  0  0  0  0  0  0
   -6.2703  -12.6442   27.4015 H   0  0  0  0  0  0  0  0  0  0  0  0
   -7.6670   -9.2797   28.3810 H   0  0  0  0  0  0  0  0  0  0  0  0
   -6.7803   -9.5984   26.9776 H   0  0  0  0  0  0  0  0  0  0  0  0
   -4.6206   -7.9771   28.3122 H   0  0  0  0  0  0  0  0  0  0  0  0
   -5.5625   -8.3319   27.2589 H   0  0  0  0  0  0  0  0  0  0  0  0
   -5.4415   -8.6135   30.5996 H   0  0  0  0  0  0  0  0  0  0  0  0
   -6.0619   -7.7623   29.2566 H   0  0  0  0  0  0  0  0  0  0  0  0
   -6.0854  -10.6941   30.8320 H   0  0  0  0  0  0  0  0  0  0  0  0
   -7.6432  -10.0876   30.0994 H   0  0  0  0  0  0  0  0  0  0  0  0
   -8.7243  -14.3012   29.2068 H   0  0  0  0  0  0  0  0  0  0  0  0
   -9.0003  -14.5133   27.4733 H   0  0  0  0  0  0  0  0  0  0  0  0
   -9.3594  -17.6513   26.7551 H   0  0  0  0  0  0  0  0  0  0  0  0
   -8.4832  -21.0130   27.4661 H   0  0  0  0  0  0  0  0  0  0  0  0
  -11.9335  -22.2931   31.2716 H   0  0  0  0  0  0  0  0  0  0  0  0
  -10.1899  -20.3403   31.5091 H   0  0  0  0  0  0  0  0  0  0  0  0
  1  2  1  0
  2  3  1  0
  2  4  1  0
  4  5  1  0
  5  6  1  0
  6  7  1  0
  7  8  1  0
  8  9  1  0
  9 10  1  0
 10 11  1  0
  6 12  1  0
 12 13  1  0
 13 14  1  0
 14 15  2  0
 15 16  1  0
 16 17  2  0
 17 18  1  0
 18 19  2  0
 19 20  1  0
 20 21  2  0
 21 22  1  0
 13  4  1  0
 22 14  1  0
 11  7  1  0
 22 18  1  0
  1 23  1  0
  1 24  1  0
  1 25  1  0
  2 26  1  0
  3 27  1  0
  3 28  1  0
  3 29  1  0
  4 30  1  0
  5 31  1  0
  5 32  1  0
  6 33  1  0
  8 34  1  0
  8 35  1  0
  9 36  1  0
  9 37  1  0
 10 38  1  0
 10 39  1  0
 11 40  1  0
 11 41  1  0
 12 42  1  0
 12 43  1  0
 15 44  1  0
 16 45  1  0
 20 46  1  0
 21 47  1  0
M  END
>  <Energy>  (859) 
2153.7548957753588

>  <compound_id>  (859) 
8760

>  <target_id>  (859) 
1

>  <reference_id>  (859) 
107

>  <inspiration_ids>  (859) 
[53, 107]

>  <energy_score>  (859) 
2009.129936680742

>  <distance_score>  (859) 
8.635491446098111

>  <path>  (859) 
/opt/xchem-fragalysis-2/maxwin/BulkDock/SCRATCH/511013/C8760-P107/C8760-P107.minimised.mol

>  <scratch_subdir>  (859) 
/opt/xchem-fragalysis-2/maxwin/BulkDock/SCRATCH/511013/C8760-P107

>  <fragmenstein_runtime>  (859) 
21.025002002716064

>  <fragmenstein_outcome>  (859) 
too moved

>  <fragmenstein_mode>  (859) 
expansion

>  <fragmenstein_error>  (859) 


$$$$
C8762-P53
     RDKit          3D

 39 42  0  0  0  0  0  0  0  0999 V2000
    1.0645   -5.9350   30.3445 C   0  0  0  0  0  0  0  0  0  0  0  0
    0.5597   -6.9467   31.2060 O   0  0  0  0  0  0  0  0  0  0  0  0
    0.1258   -8.0746   30.6165 C   0  0  0  0  0  0  0  0  0  0  0  0
   -0.5897   -8.9373   31.3279 C   0  0  0  0  0  0  0  0  0  0  0  0
   -1.3537   -9.9484   30.6123 C   0  0  0  0  0  0  0  0  0  0  0  0
   -1.3662  -10.4248   29.2193 C   0  0  0  0  0  0  0  0  0  0  0  0
   -2.3769  -11.7611   28.1880 C   0  0  0  0  0  0  0  0  0  0  0  0
   -3.1464  -12.5949   29.1764 C   0  0  0  0  0  0  0  0  0  0  0  0
   -2.7213  -14.4670   29.5459 C   0  0  0  0  0  0  0  0  0  0  0  0
   -1.9672  -14.9634   28.0389 N   0  0  0  0  0  0  0  0  0  0  0  0
   -2.2445  -16.4823   27.4750 C   0  0  0  0  0  0  0  0  0  0  0  0
   -1.2289  -17.1664   26.9013 C   0  0  0  0  0  0  0  0  0  0  0  0
   -1.4758  -18.4911   26.2698 C   0  0  0  0  0  0  0  0  0  0  0  0
   -2.5570  -19.1928   26.2821 N   0  0  0  0  0  0  0  0  0  0  0  0
   -3.5623  -18.6969   27.0389 C   0  0  0  0  0  0  0  0  0  0  0  0
   -4.6871  -19.3283   27.3346 N   0  0  0  0  0  0  0  0  0  0  0  0
   -5.2917  -18.5906   28.2913 C   0  0  0  0  0  0  0  0  0  0  0  0
   -4.5664  -17.4541   28.5349 C   0  0  0  0  0  0  0  0  0  0  0  0
   -3.4631  -17.4194   27.6630 N   0  0  0  0  0  0  0  0  0  0  0  0
   -2.0623  -13.4044   26.9962 C   0  0  0  0  0  0  0  0  0  0  0  0
   -0.5023   -9.5671   28.6302 N   0  0  0  0  0  0  0  0  0  0  0  0
   -0.1379   -8.3814   29.3237 C   0  0  0  0  0  0  0  0  0  0  0  0
    1.7922   -6.3267   29.6275 H   0  0  0  0  0  0  0  0  0  0  0  0
    1.5772   -5.1939   30.9653 H   0  0  0  0  0  0  0  0  0  0  0  0
    0.2403   -5.4267   29.8363 H   0  0  0  0  0  0  0  0  0  0  0  0
   -0.8069   -8.7255   32.3729 H   0  0  0  0  0  0  0  0  0  0  0  0
   -2.2777   -9.8204   31.1692 H   0  0  0  0  0  0  0  0  0  0  0  0
   -2.6771  -11.3433   27.2603 H   0  0  0  0  0  0  0  0  0  0  0  0
   -3.3300  -11.8855   29.9032 H   0  0  0  0  0  0  0  0  0  0  0  0
   -2.2415  -12.9034   28.8122 H   0  0  0  0  0  0  0  0  0  0  0  0
   -2.1665  -14.8398   30.3939 H   0  0  0  0  0  0  0  0  0  0  0  0
   -3.5293  -15.1070   29.9243 H   0  0  0  0  0  0  0  0  0  0  0  0
   -0.2100  -16.8176   26.8707 H   0  0  0  0  0  0  0  0  0  0  0  0
   -0.6157  -18.8832   25.7003 H   0  0  0  0  0  0  0  0  0  0  0  0
   -6.2091  -18.8927   28.7730 H   0  0  0  0  0  0  0  0  0  0  0  0
   -4.7142  -16.7082   29.2953 H   0  0  0  0  0  0  0  0  0  0  0  0
   -2.8650  -13.4167   26.3025 H   0  0  0  0  0  0  0  0  0  0  0  0
   -1.1814  -13.3177   26.3855 H   0  0  0  0  0  0  0  0  0  0  0  0
   -0.8819   -7.6183   29.0059 H   0  0  0  0  0  0  0  0  0  0  0  0
  1  2  1  0
  2  3  1  0
  3  4  2  0
  4  5  1  0
  5  6  2  0
  6  7  1  0
  7  8  1  0
  8  9  1  0
  9 10  1  0
 10 11  1  0
 11 12  2  0
 12 13  1  0
 13 14  2  0
 14 15  1  0
 15 16  2  0
 16 17  1  0
 17 18  2  0
 18 19  1  0
 10 20  1  0
  6 21  1  0
 21 22  2  0
 22  3  1  0
 20  7  1  0
 19 11  1  0
 19 15  1  0
  1 23  1  0
  1 24  1  0
  1 25  1  0
  4 26  1  0
  5 27  1  0
  7 28  1  0
  8 29  1  0
  8 30  1  0
  9 31  1  0
  9 32  1  0
 12 33  1  0
 13 34  1  0
 17 35  1  0
 18 36  1  0
 20 37  1  0
 20 38  1  0
 22 39  1  0
M  END
>  <Energy>  (860) 
595.27521734625157

>  <compound_id>  (860) 
8762

>  <target_id>  (860) 
1

>  <reference_id>  (860) 
53

>  <inspiration_ids>  (860) 
[53, 107]

>  <energy_score>  (860) 
456.4685557720027

>  <distance_score>  (860) 
12.798965259696368

>  <path>  (860) 
/opt/xchem-fragalysis-2/maxwin/BulkDock/SCRATCH/511013/C8762-P53/C8762-P53.minimised.mol

>  <scratch_subdir>  (860) 
/opt/xchem-fragalysis-2/maxwin/BulkDock/SCRATCH/511013/C8762-P53

>  <fragmenstein_runtime>  (860) 
11.44196081161499

>  <fragmenstein_outcome>  (860) 
too moved

>  <fragmenstein_mode>  (860) 
expansion

>  <fragmenstein_error>  (860) 


$$$$
C8762-P107
     RDKit          3D

 39 42  0  0  0  0  0  0  0  0999 V2000
   -1.6281   -8.0264   31.9229 C   0  0  0  0  0  0  0  0  0  0  0  0
   -2.5197   -8.9476   32.5344 O   0  0  0  0  0  0  0  0  0  0  0  0
   -3.1912   -9.8361   31.7768 C   0  0  0  0  0  0  0  0  0  0  0  0
   -2.7027  -10.7727   30.7483 C   0  0  0  0  0  0  0  0  0  0  0  0
   -3.6450  -11.9950   30.0562 C   0  0  0  0  0  0  0  0  0  0  0  0
   -4.9920  -12.3637   30.4607 C   0  0  0  0  0  0  0  0  0  0  0  0
   -5.9755  -13.9547   29.9574 C   0  0  0  0  0  0  0  0  0  0  0  0
   -6.6361  -15.1807   30.7812 C   0  0  0  0  0  0  0  0  0  0  0  0
   -6.7913  -16.4728   29.9371 C   0  0  0  0  0  0  0  0  0  0  0  0
   -7.5661  -16.0420   28.8116 N   0  0  0  0  0  0  0  0  0  0  0  0
   -8.1719  -16.8757   27.7043 C   0  0  0  0  0  0  0  0  0  0  0  0
   -8.7736  -16.0954   26.7429 C   0  0  0  0  0  0  0  0  0  0  0  0
  -10.1433  -15.6811   27.1809 C   0  0  0  0  0  0  0  0  0  0  0  0
  -10.8275  -16.2627   28.0984 N   0  0  0  0  0  0  0  0  0  0  0  0
  -10.2459  -17.4042   28.5213 C   0  0  0  0  0  0  0  0  0  0  0  0
  -10.7660  -18.3481   29.2535 N   0  0  0  0  0  0  0  0  0  0  0  0
  -10.3776  -20.2206   29.3130 C   0  0  0  0  0  0  0  0  0  0  0  0
   -9.1044  -19.7223   28.2111 C   0  0  0  0  0  0  0  0  0  0  0  0
   -9.0284  -17.9653   28.0576 N   0  0  0  0  0  0  0  0  0  0  0  0
   -7.3023  -14.5334   28.7647 C   0  0  0  0  0  0  0  0  0  0  0  0
   -5.4518  -11.3324   31.4155 N   0  0  0  0  0  0  0  0  0  0  0  0
   -4.5561  -10.1186   32.0914 C   0  0  0  0  0  0  0  0  0  0  0  0
   -0.8568   -7.7678   32.6532 H   0  0  0  0  0  0  0  0  0  0  0  0
   -2.1635   -7.1106   31.6794 H   0  0  0  0  0  0  0  0  0  0  0  0
   -1.1420   -8.3857   31.0169 H   0  0  0  0  0  0  0  0  0  0  0  0
   -1.6769  -10.7202   30.3804 H   0  0  0  0  0  0  0  0  0  0  0  0
   -3.1310  -12.5616   29.3218 H   0  0  0  0  0  0  0  0  0  0  0  0
   -6.2239  -13.2647   29.1833 H   0  0  0  0  0  0  0  0  0  0  0  0
   -7.5954  -14.8926   31.2236 H   0  0  0  0  0  0  0  0  0  0  0  0
   -6.0923  -15.6804   31.5674 H   0  0  0  0  0  0  0  0  0  0  0  0
   -7.2494  -17.2578   30.5208 H   0  0  0  0  0  0  0  0  0  0  0  0
   -5.8021  -16.8578   29.6630 H   0  0  0  0  0  0  0  0  0  0  0  0
   -8.3546  -15.1853   26.3298 H   0  0  0  0  0  0  0  0  0  0  0  0
  -10.5307  -14.7604   26.7124 H   0  0  0  0  0  0  0  0  0  0  0  0
  -11.1781  -20.9605   29.2769 H   0  0  0  0  0  0  0  0  0  0  0  0
   -9.4501  -20.5261   27.5060 H   0  0  0  0  0  0  0  0  0  0  0  0
   -7.0762  -14.1879   27.7522 H   0  0  0  0  0  0  0  0  0  0  0  0
   -8.2829  -14.1579   29.0214 H   0  0  0  0  0  0  0  0  0  0  0  0
   -5.0564   -9.6251   32.9131 H   0  0  0  0  0  0  0  0  0  0  0  0
  1  2  1  0
  2  3  1  0
  3  4  2  0
  4  5  1  0
  5  6  2  0
  6  7  1  0
  7  8  1  0
  8  9  1  0
  9 10  1  0
 10 11  1  0
 11 12  2  0
 12 13  1  0
 13 14  2  0
 14 15  1  0
 15 16  2  0
 16 17  1  0
 17 18  2  0
 18 19  1  0
 10 20  1  0
  6 21  1  0
 21 22  2  0
 22  3  1  0
 20  7  1  0
 19 11  1  0
 19 15  1  0
  1 23  1  0
  1 24  1  0
  1 25  1  0
  4 26  1  0
  5 27  1  0
  7 28  1  0
  8 29  1  0
  8 30  1  0
  9 31  1  0
  9 32  1  0
 12 33  1  0
 13 34  1  0
 17 35  1  0
 18 36  1  0
 20 37  1  0
 20 38  1  0
 22 39  1  0
M  END
>  <Energy>  (861) 
673.3724337482696

>  <compound_id>  (861) 
8762

>  <target_id>  (861) 
1

>  <reference_id>  (861) 
107

>  <inspiration_ids>  (861) 
[53, 107]

>  <energy_score>  (861) 
534.5657721740247

>  <distance_score>  (861) 
13.169232156919751

>  <path>  (861) 
/opt/xchem-fragalysis-2/maxwin/BulkDock/SCRATCH/511013/C8762-P107/C8762-P107.minimised.mol

>  <scratch_subdir>  (861) 
/opt/xchem-fragalysis-2/maxwin/BulkDock/SCRATCH/511013/C8762-P107

>  <fragmenstein_runtime>  (861) 
10.1229989528656

>  <fragmenstein_outcome>  (861) 
too moved

>  <fragmenstein_mode>  (861) 
expansion

>  <fragmenstein_error>  (861) 


$$$$
C8782-P53
     RDKit          3D

 39 42  0  0  0  0  0  0  0  0999 V2000
   -6.3780  -11.6346   26.1737 C   0  0  0  0  0  0  0  0  0  0  0  0
   -6.2833  -12.0834   28.2601 C   0  0  0  0  0  0  0  0  0  0  0  0
   -6.5422   -9.9856   28.9248 C   0  0  0  0  0  0  0  0  0  0  0  0
   -5.7773   -7.9514   28.8391 C   0  0  0  0  0  0  0  0  0  0  0  0
   -6.1669   -6.3629   29.7038 C   0  0  0  0  0  0  0  0  0  0  0  0
   -5.8231   -4.5535   30.0728 C   0  0  0  0  0  0  0  0  0  0  0  0
   -6.0367   -3.7214   29.0804 C   0  0  0  0  0  0  0  0  0  0  0  0
   -6.7937   -4.5085   28.4178 C   0  0  0  0  0  0  0  0  0  0  0  0
   -6.1536   -6.1105   28.6397 C   0  0  0  0  0  0  0  0  0  0  0  0
   -5.5004  -11.7437   28.4104 C   0  0  0  0  0  0  0  0  0  0  0  0
   -6.6878  -13.1241   27.4132 C   0  0  0  0  0  0  0  0  0  0  0  0
   -7.1243  -13.7847   28.4870 N   0  0  0  0  0  0  0  0  0  0  0  0
   -8.1414  -14.8441   27.8637 C   0  0  0  0  0  0  0  0  0  0  0  0
   -9.0910  -14.5414   27.0099 C   0  0  0  0  0  0  0  0  0  0  0  0
  -10.2360  -15.4976   26.8213 C   0  0  0  0  0  0  0  0  0  0  0  0
  -10.0734  -16.7448   26.6724 N   0  0  0  0  0  0  0  0  0  0  0  0
   -8.9719  -17.2329   27.2962 C   0  0  0  0  0  0  0  0  0  0  0  0
   -8.9551  -18.2639   28.1480 N   0  0  0  0  0  0  0  0  0  0  0  0
   -7.6998  -18.7021   28.2470 C   0  0  0  0  0  0  0  0  0  0  0  0
   -6.9540  -17.6636   27.9635 C   0  0  0  0  0  0  0  0  0  0  0  0
   -7.9135  -16.4983   27.7042 N   0  0  0  0  0  0  0  0  0  0  0  0
   -6.2418  -10.5874   26.0294 H   0  0  0  0  0  0  0  0  0  0  0  0
   -7.4149  -11.5037   25.8374 H   0  0  0  0  0  0  0  0  0  0  0  0
   -6.1431  -12.1348   25.2292 H   0  0  0  0  0  0  0  0  0  0  0  0
   -5.8314  -13.0644   29.3075 H   0  0  0  0  0  0  0  0  0  0  0  0
   -6.9070  -10.0811   29.9193 H   0  0  0  0  0  0  0  0  0  0  0  0
   -6.5304   -6.4763   30.8883 H   0  0  0  0  0  0  0  0  0  0  0  0
   -5.6504   -4.1623   31.0660 H   0  0  0  0  0  0  0  0  0  0  0  0
   -5.2118   -3.2423   28.5630 H   0  0  0  0  0  0  0  0  0  0  0  0
   -7.6954   -4.3057   27.8404 H   0  0  0  0  0  0  0  0  0  0  0  0
   -5.9409   -5.8671   27.5119 H   0  0  0  0  0  0  0  0  0  0  0  0
   -4.5755  -11.7623   27.5627 H   0  0  0  0  0  0  0  0  0  0  0  0
   -4.6818  -11.9344   29.2692 H   0  0  0  0  0  0  0  0  0  0  0  0
   -6.5022  -13.6448   26.5197 H   0  0  0  0  0  0  0  0  0  0  0  0
   -7.6767  -12.8175   27.0490 H   0  0  0  0  0  0  0  0  0  0  0  0
   -8.5744  -14.6749   26.0431 H   0  0  0  0  0  0  0  0  0  0  0  0
  -11.2480  -15.0599   26.7431 H   0  0  0  0  0  0  0  0  0  0  0  0
   -7.3550  -19.6567   28.5058 H   0  0  0  0  0  0  0  0  0  0  0  0
   -5.9621  -17.7210   28.4151 H   0  0  0  0  0  0  0  0  0  0  0  0
  1  2  1  0
  2  3  1  0
  3  4  1  0
  4  5  2  0
  5  6  1  0
  6  7  2  0
  7  8  1  0
  8  9  2  0
  3 10  1  0
 10 11  1  0
 11 12  1  0
 12 13  1  0
 13 14  2  0
 14 15  1  0
 15 16  2  0
 16 17  1  0
 17 18  2  0
 18 19  1  0
 19 20  2  0
 20 21  1  0
 12  2  1  0
 21 13  1  0
  9  4  1  0
 21 17  1  0
  1 22  1  0
  1 23  1  0
  1 24  1  0
  2 25  1  0
  3 26  1  0
  5 27  1  0
  6 28  1  0
  7 29  1  0
  8 30  1  0
  9 31  1  0
 10 32  1  0
 10 33  1  0
 11 34  1  0
 11 35  1  0
 14 36  1  0
 15 37  1  0
 19 38  1  0
 20 39  1  0
M  END
>  <Energy>  (862) 
2171.4585761418225

>  <compound_id>  (862) 
8782

>  <target_id>  (862) 
1

>  <reference_id>  (862) 
53

>  <inspiration_ids>  (862) 
[53, 107]

>  <energy_score>  (862) 
2039.1030056570912

>  <distance_score>  (862) 
9.12937104814605

>  <path>  (862) 
/opt/xchem-fragalysis-2/maxwin/BulkDock/SCRATCH/511013/C8782-P53/C8782-P53.minimised.mol

>  <scratch_subdir>  (862) 
/opt/xchem-fragalysis-2/maxwin/BulkDock/SCRATCH/511013/C8782-P53

>  <fragmenstein_runtime>  (862) 
18.047866106033325

>  <fragmenstein_outcome>  (862) 
too moved

>  <fragmenstein_mode>  (862) 
expansion

>  <fragmenstein_error>  (862) 


$$$$
C8782-P107
     RDKit          3D

 39 42  0  0  0  0  0  0  0  0999 V2000
   -5.4160  -12.4042   29.1022 C   0  0  0  0  0  0  0  0  0  0  0  0
   -6.6016  -12.9309   27.5383 C   0  0  0  0  0  0  0  0  0  0  0  0
   -6.2001  -10.7102   26.6870 C   0  0  0  0  0  0  0  0  0  0  0  0
   -5.8434   -8.5230   27.3812 C   0  0  0  0  0  0  0  0  0  0  0  0
   -5.8373   -8.1718   28.8582 C   0  0  0  0  0  0  0  0  0  0  0  0
   -6.1746   -6.3866   29.4317 C   0  0  0  0  0  0  0  0  0  0  0  0
   -5.9203   -4.8494   29.2681 C   0  0  0  0  0  0  0  0  0  0  0  0
   -6.4428   -5.1173   28.1745 C   0  0  0  0  0  0  0  0  0  0  0  0
   -5.8940   -6.3329   27.3859 C   0  0  0  0  0  0  0  0  0  0  0  0
   -7.1149  -12.3485   26.1405 C   0  0  0  0  0  0  0  0  0  0  0  0
   -8.0952  -14.0408   26.7220 C   0  0  0  0  0  0  0  0  0  0  0  0
   -7.6466  -14.9599   27.8572 N   0  0  0  0  0  0  0  0  0  0  0  0
   -8.1271  -17.0992   27.8082 C   0  0  0  0  0  0  0  0  0  0  0  0
   -9.2444  -18.1915   27.1430 C   0  0  0  0  0  0  0  0  0  0  0  0
   -9.8304  -20.3465   26.9448 C   0  0  0  0  0  0  0  0  0  0  0  0
  -10.8227  -21.1213   27.2612 N   0  0  0  0  0  0  0  0  0  0  0  0
   -9.6958  -20.7971   27.9707 C   0  0  0  0  0  0  0  0  0  0  0  0
   -9.6648  -22.0518   28.5156 N   0  0  0  0  0  0  0  0  0  0  0  0
  -10.5403  -21.6158   29.3352 C   0  0  0  0  0  0  0  0  0  0  0  0
  -10.0535  -20.2884   29.2845 C   0  0  0  0  0  0  0  0  0  0  0  0
   -8.6914  -19.0910   28.3003 N   0  0  0  0  0  0  0  0  0  0  0  0
   -5.5845  -11.4619   29.5783 H   0  0  0  0  0  0  0  0  0  0  0  0
   -4.3474  -12.2747   28.8289 H   0  0  0  0  0  0  0  0  0  0  0  0
   -5.4459  -13.2283   29.8505 H   0  0  0  0  0  0  0  0  0  0  0  0
   -7.2334  -13.0278   28.3488 H   0  0  0  0  0  0  0  0  0  0  0  0
   -6.9928  -10.2914   25.9980 H   0  0  0  0  0  0  0  0  0  0  0  0
   -6.2414   -9.0045   29.4513 H   0  0  0  0  0  0  0  0  0  0  0  0
   -6.5766   -6.2646   30.5560 H   0  0  0  0  0  0  0  0  0  0  0  0
   -6.1472   -4.0355   29.9424 H   0  0  0  0  0  0  0  0  0  0  0  0
   -7.4144   -4.6432   27.8855 H   0  0  0  0  0  0  0  0  0  0  0  0
   -6.7950   -6.1163   26.5333 H   0  0  0  0  0  0  0  0  0  0  0  0
   -7.9920  -11.6894   25.9136 H   0  0  0  0  0  0  0  0  0  0  0  0
   -6.4737  -12.5180   25.2804 H   0  0  0  0  0  0  0  0  0  0  0  0
   -8.1136  -14.7300   25.8643 H   0  0  0  0  0  0  0  0  0  0  0  0
   -9.0820  -13.7190   27.0715 H   0  0  0  0  0  0  0  0  0  0  0  0
   -9.7777  -17.4473   26.4742 H   0  0  0  0  0  0  0  0  0  0  0  0
  -10.5362  -20.6959   25.9844 H   0  0  0  0  0  0  0  0  0  0  0  0
  -11.2153  -22.1382   30.0007 H   0  0  0  0  0  0  0  0  0  0  0  0
  -10.4034  -20.0391   30.2869 H   0  0  0  0  0  0  0  0  0  0  0  0
  1  2  1  0
  2  3  1  0
  3  4  1  0
  4  5  2  0
  5  6  1  0
  6  7  2  0
  7  8  1  0
  8  9  2  0
  3 10  1  0
 10 11  1  0
 11 12  1  0
 12 13  1  0
 13 14  2  0
 14 15  1  0
 15 16  2  0
 16 17  1  0
 17 18  2  0
 18 19  1  0
 19 20  2  0
 20 21  1  0
 12  2  1  0
 21 13  1  0
  9  4  1  0
 21 17  1  0
  1 22  1  0
  1 23  1  0
  1 24  1  0
  2 25  1  0
  3 26  1  0
  5 27  1  0
  6 28  1  0
  7 29  1  0
  8 30  1  0
  9 31  1  0
 10 32  1  0
 10 33  1  0
 11 34  1  0
 11 35  1  0
 14 36  1  0
 15 37  1  0
 19 38  1  0
 20 39  1  0
M  END
>  <Energy>  (863) 
4066.6581143114395

>  <compound_id>  (863) 
8782

>  <target_id>  (863) 
1

>  <reference_id>  (863) 
107

>  <inspiration_ids>  (863) 
[53, 107]

>  <energy_score>  (863) 
3934.302543826723

>  <distance_score>  (863) 
7.9961530009517015

>  <path>  (863) 
/opt/xchem-fragalysis-2/maxwin/BulkDock/SCRATCH/511013/C8782-P107/C8782-P107.minimised.mol

>  <scratch_subdir>  (863) 
/opt/xchem-fragalysis-2/maxwin/BulkDock/SCRATCH/511013/C8782-P107

>  <fragmenstein_runtime>  (863) 
18.89626669883728

>  <fragmenstein_outcome>  (863) 
too moved

>  <fragmenstein_mode>  (863) 
expansion

>  <fragmenstein_error>  (863) 


$$$$
C8666-P53
     RDKit          3D

 36 39  0  0  0  0  0  0  0  0999 V2000
   -5.8876   -4.5430   29.1281 C   0  0  0  0  0  0  0  0  0  0  0  0
   -6.1645   -5.7490   28.4734 C   0  0  0  0  0  0  0  0  0  0  0  0
   -5.8089   -7.4944   29.0346 N   0  0  0  0  0  0  0  0  0  0  0  0
   -6.5530   -9.4136   28.8352 C   0  0  0  0  0  0  0  0  0  0  0  0
   -6.0417  -11.5794   28.6443 C   0  0  0  0  0  0  0  0  0  0  0  0
   -5.5302  -11.9389   27.1578 C   0  0  0  0  0  0  0  0  0  0  0  0
   -6.4161  -13.1278   27.0831 C   0  0  0  0  0  0  0  0  0  0  0  0
   -6.3979  -14.0304   28.5478 C   0  0  0  0  0  0  0  0  0  0  0  0
   -7.3341  -13.1996   28.3375 N   0  0  0  0  0  0  0  0  0  0  0  0
   -8.6562  -13.9339   27.4175 C   0  0  0  0  0  0  0  0  0  0  0  0
   -8.3687  -14.8064   26.4224 C   0  0  0  0  0  0  0  0  0  0  0  0
   -8.6296  -16.1312   26.9551 C   0  0  0  0  0  0  0  0  0  0  0  0
   -9.7330  -16.6838   26.7200 N   0  0  0  0  0  0  0  0  0  0  0  0
  -10.5407  -15.6431   26.6288 C   0  0  0  0  0  0  0  0  0  0  0  0
  -11.8005  -15.7383   26.5361 N   0  0  0  0  0  0  0  0  0  0  0  0
  -11.8281  -15.6828   27.8455 C   0  0  0  0  0  0  0  0  0  0  0  0
  -11.3409  -14.3535   28.1089 C   0  0  0  0  0  0  0  0  0  0  0  0
  -10.1724  -14.3363   27.4236 N   0  0  0  0  0  0  0  0  0  0  0  0
   -6.3613   -6.2545   30.3735 C   0  0  0  0  0  0  0  0  0  0  0  0
   -5.8432   -4.8919   30.3991 N   0  0  0  0  0  0  0  0  0  0  0  0
   -5.7635   -3.5541   28.7474 H   0  0  0  0  0  0  0  0  0  0  0  0
   -6.2109   -5.7520   27.4180 H   0  0  0  0  0  0  0  0  0  0  0  0
   -6.8963   -9.5557   29.8264 H   0  0  0  0  0  0  0  0  0  0  0  0
   -7.3362   -9.1192   28.1601 H   0  0  0  0  0  0  0  0  0  0  0  0
   -5.2148  -11.8853   29.3120 H   0  0  0  0  0  0  0  0  0  0  0  0
   -5.9968  -11.3908   26.2940 H   0  0  0  0  0  0  0  0  0  0  0  0
   -4.4126  -12.0083   27.1330 H   0  0  0  0  0  0  0  0  0  0  0  0
   -6.5978  -13.6680   26.1945 H   0  0  0  0  0  0  0  0  0  0  0  0
   -7.2600  -12.5752   26.6281 H   0  0  0  0  0  0  0  0  0  0  0  0
   -6.4070  -15.0738   28.6126 H   0  0  0  0  0  0  0  0  0  0  0  0
   -5.9924  -13.7435   29.5314 H   0  0  0  0  0  0  0  0  0  0  0  0
   -7.7050  -14.8456   25.5899 H   0  0  0  0  0  0  0  0  0  0  0  0
   -7.9187  -16.6145   27.6157 H   0  0  0  0  0  0  0  0  0  0  0  0
  -12.5287  -16.2569   28.4569 H   0  0  0  0  0  0  0  0  0  0  0  0
  -11.6180  -13.7971   28.9485 H   0  0  0  0  0  0  0  0  0  0  0  0
   -6.5776   -6.7184   31.3687 H   0  0  0  0  0  0  0  0  0  0  0  0
  1  2  2  0
  2  3  1  0
  3  4  1  0
  4  5  1  0
  5  6  1  0
  6  7  1  0
  7  8  1  0
  8  9  1  0
  9 10  1  0
 10 11  2  0
 11 12  1  0
 12 13  2  0
 13 14  1  0
 14 15  2  0
 15 16  1  0
 16 17  2  0
 17 18  1  0
  3 19  1  0
 19 20  2  0
 20  1  1  0
  9  5  1  0
 18 10  1  0
 18 14  1  0
  1 21  1  0
  2 22  1  0
  4 23  1  0
  4 24  1  0
  5 25  1  0
  6 26  1  0
  6 27  1  0
  7 28  1  0
  7 29  1  0
  8 30  1  0
  8 31  1  0
 11 32  1  0
 12 33  1  0
 16 34  1  0
 17 35  1  0
 19 36  1  0
M  END
>  <Energy>  (864) 
1237.2970190692592

>  <compound_id>  (864) 
8666

>  <target_id>  (864) 
1

>  <reference_id>  (864) 
53

>  <inspiration_ids>  (864) 
[53, 107]

>  <energy_score>  (864) 
1128.0607773662023

>  <distance_score>  (864) 
9.497598894130425

>  <path>  (864) 
/opt/xchem-fragalysis-2/maxwin/BulkDock/SCRATCH/511013/C8666-P53/C8666-P53.minimised.mol

>  <scratch_subdir>  (864) 
/opt/xchem-fragalysis-2/maxwin/BulkDock/SCRATCH/511013/C8666-P53

>  <fragmenstein_runtime>  (864) 
14.086616277694702

>  <fragmenstein_outcome>  (864) 
too moved

>  <fragmenstein_mode>  (864) 
expansion

>  <fragmenstein_error>  (864) 


$$$$
C8666-P107
     RDKit          3D

 36 39  0  0  0  0  0  0  0  0999 V2000
   -6.0012   -8.6950   29.1897 C   0  0  0  0  0  0  0  0  0  0  0  0
   -6.6319   -9.6892   28.6111 C   0  0  0  0  0  0  0  0  0  0  0  0
   -6.0021  -11.4761   29.0682 N   0  0  0  0  0  0  0  0  0  0  0  0
   -6.8339  -13.2232   28.3594 C   0  0  0  0  0  0  0  0  0  0  0  0
   -8.1434  -14.3782   27.1818 C   0  0  0  0  0  0  0  0  0  0  0  0
   -9.3960  -13.7221   27.5701 C   0  0  0  0  0  0  0  0  0  0  0  0
  -10.8454  -14.0878   27.5347 C   0  0  0  0  0  0  0  0  0  0  0  0
  -10.8798  -15.3792   26.9178 C   0  0  0  0  0  0  0  0  0  0  0  0
   -9.4371  -15.7292   26.5973 N   0  0  0  0  0  0  0  0  0  0  0  0
   -9.9166  -17.2428   26.1266 C   0  0  0  0  0  0  0  0  0  0  0  0
   -9.3638  -18.4247   27.2364 C   0  0  0  0  0  0  0  0  0  0  0  0
  -10.0587  -20.4994   26.9261 C   0  0  0  0  0  0  0  0  0  0  0  0
  -11.2868  -20.7444   25.7172 N   0  0  0  0  0  0  0  0  0  0  0  0
  -11.7391  -19.6040   24.3844 C   0  0  0  0  0  0  0  0  0  0  0  0
  -12.3471  -19.5323   23.2314 N   0  0  0  0  0  0  0  0  0  0  0  0
  -12.5041  -18.1655   22.9202 C   0  0  0  0  0  0  0  0  0  0  0  0
  -11.9889  -17.1771   23.7723 C   0  0  0  0  0  0  0  0  0  0  0  0
  -11.1814  -17.7423   24.7540 N   0  0  0  0  0  0  0  0  0  0  0  0
   -6.5649  -10.3372   30.2183 C   0  0  0  0  0  0  0  0  0  0  0  0
   -6.0668   -9.1144   30.4123 N   0  0  0  0  0  0  0  0  0  0  0  0
   -5.4707   -7.8565   28.8134 H   0  0  0  0  0  0  0  0  0  0  0  0
   -6.7289   -9.5017   27.5189 H   0  0  0  0  0  0  0  0  0  0  0  0
   -6.2071  -13.8403   29.0636 H   0  0  0  0  0  0  0  0  0  0  0  0
   -7.3844  -13.6613   29.1933 H   0  0  0  0  0  0  0  0  0  0  0  0
   -7.8833  -15.1612   27.8988 H   0  0  0  0  0  0  0  0  0  0  0  0
   -9.3716  -12.9089   26.8857 H   0  0  0  0  0  0  0  0  0  0  0  0
   -9.2185  -13.7245   28.6194 H   0  0  0  0  0  0  0  0  0  0  0  0
  -11.2728  -14.1767   28.5346 H   0  0  0  0  0  0  0  0  0  0  0  0
  -11.4395  -13.3469   26.9832 H   0  0  0  0  0  0  0  0  0  0  0  0
  -11.5769  -15.4023   26.0723 H   0  0  0  0  0  0  0  0  0  0  0  0
  -11.3694  -16.1315   27.5334 H   0  0  0  0  0  0  0  0  0  0  0  0
   -8.5304  -18.2923   27.9450 H   0  0  0  0  0  0  0  0  0  0  0  0
  -10.1792  -21.1680   27.8401 H   0  0  0  0  0  0  0  0  0  0  0  0
  -13.0840  -17.9324   22.0321 H   0  0  0  0  0  0  0  0  0  0  0  0
  -12.1485  -16.1150   23.7127 H   0  0  0  0  0  0  0  0  0  0  0  0
   -7.6467  -10.3709   30.3743 H   0  0  0  0  0  0  0  0  0  0  0  0
  1  2  2  0
  2  3  1  0
  3  4  1  0
  4  5  1  0
  5  6  1  0
  6  7  1  0
  7  8  1  0
  8  9  1  0
  9 10  1  0
 10 11  2  0
 11 12  1  0
 12 13  2  0
 13 14  1  0
 14 15  2  0
 15 16  1  0
 16 17  2  0
 17 18  1  0
  3 19  1  0
 19 20  2  0
 20  1  1  0
  9  5  1  0
 18 10  1  0
 18 14  1  0
  1 21  1  0
  2 22  1  0
  4 23  1  0
  4 24  1  0
  5 25  1  0
  6 26  1  0
  6 27  1  0
  7 28  1  0
  7 29  1  0
  8 30  1  0
  8 31  1  0
 11 32  1  0
 12 33  1  0
 16 34  1  0
 17 35  1  0
 19 36  1  0
M  END
>  <Energy>  (865) 
1438.013130317252

>  <compound_id>  (865) 
8666

>  <target_id>  (865) 
1

>  <reference_id>  (865) 
107

>  <inspiration_ids>  (865) 
[53, 107]

>  <energy_score>  (865) 
1328.7768886142082

>  <distance_score>  (865) 
10.122451160475753

>  <path>  (865) 
/opt/xchem-fragalysis-2/maxwin/BulkDock/SCRATCH/511013/C8666-P107/C8666-P107.minimised.mol

>  <scratch_subdir>  (865) 
/opt/xchem-fragalysis-2/maxwin/BulkDock/SCRATCH/511013/C8666-P107

>  <fragmenstein_runtime>  (865) 
16.413264989852905

>  <fragmenstein_outcome>  (865) 
too moved

>  <fragmenstein_mode>  (865) 
expansion

>  <fragmenstein_error>  (865) 


$$$$
C8788-P53
     RDKit          3D

 41 44  0  0  0  0  0  0  0  0999 V2000
   -5.6840   -7.8403   29.0891 O   0  0  0  0  0  0  0  0  0  0  0  0
   -4.9110   -7.8989   28.0620 C   0  0  0  0  0  0  0  0  0  0  0  0
   -6.3626   -9.1774   27.2352 C   0  0  0  0  0  0  0  0  0  0  0  0
   -6.5712  -10.8007   25.8795 C   0  0  0  0  0  0  0  0  0  0  0  0
   -6.5364  -11.8551   24.4697 C   0  0  0  0  0  0  0  0  0  0  0  0
   -7.5866  -11.4411   23.3662 C   0  0  0  0  0  0  0  0  0  0  0  0
   -8.3629  -10.3363   24.0694 C   0  0  0  0  0  0  0  0  0  0  0  0
   -8.3764  -10.8894   25.4626 N   0  0  0  0  0  0  0  0  0  0  0  0
   -9.4310  -12.1180   25.4318 C   0  0  0  0  0  0  0  0  0  0  0  0
  -10.6373  -11.8456   24.8528 C   0  0  0  0  0  0  0  0  0  0  0  0
  -11.6767  -12.8947   24.7011 C   0  0  0  0  0  0  0  0  0  0  0  0
  -11.6148  -14.1036   25.1316 N   0  0  0  0  0  0  0  0  0  0  0  0
  -10.4887  -14.3903   25.8265 C   0  0  0  0  0  0  0  0  0  0  0  0
  -10.2583  -15.5325   26.4331 N   0  0  0  0  0  0  0  0  0  0  0  0
   -9.0932  -15.3426   27.0802 C   0  0  0  0  0  0  0  0  0  0  0  0
   -8.5830  -14.0839   26.8523 C   0  0  0  0  0  0  0  0  0  0  0  0
   -9.4224  -13.4507   25.9935 N   0  0  0  0  0  0  0  0  0  0  0  0
   -3.3829   -7.4005   29.3183 C   0  0  0  0  0  0  0  0  0  0  0  0
   -3.0553   -7.8440   31.0367 C   0  0  0  0  0  0  0  0  0  0  0  0
   -1.9336   -7.7455   31.8954 C   0  0  0  0  0  0  0  0  0  0  0  0
   -0.8791   -7.0746   31.4031 C   0  0  0  0  0  0  0  0  0  0  0  0
   -0.9551   -6.7350   30.0630 C   0  0  0  0  0  0  0  0  0  0  0  0
   -2.0626   -7.0554   29.0114 C   0  0  0  0  0  0  0  0  0  0  0  0
   -6.9018   -9.3483   28.2003 H   0  0  0  0  0  0  0  0  0  0  0  0
   -7.2057   -8.6675   26.7011 H   0  0  0  0  0  0  0  0  0  0  0  0
   -6.2353  -11.6566   26.5122 H   0  0  0  0  0  0  0  0  0  0  0  0
   -6.9158  -12.8190   24.8192 H   0  0  0  0  0  0  0  0  0  0  0  0
   -5.5450  -12.0474   24.0401 H   0  0  0  0  0  0  0  0  0  0  0  0
   -8.2091  -12.3056   23.1066 H   0  0  0  0  0  0  0  0  0  0  0  0
   -7.1405  -11.1081   22.4218 H   0  0  0  0  0  0  0  0  0  0  0  0
   -9.3307  -10.1671   23.5964 H   0  0  0  0  0  0  0  0  0  0  0  0
   -7.8978   -9.3496   24.0852 H   0  0  0  0  0  0  0  0  0  0  0  0
  -10.9336  -10.8754   24.4831 H   0  0  0  0  0  0  0  0  0  0  0  0
  -12.5744  -12.5765   24.1445 H   0  0  0  0  0  0  0  0  0  0  0  0
   -8.6666  -16.1410   27.6640 H   0  0  0  0  0  0  0  0  0  0  0  0
   -7.7105  -13.5705   27.2183 H   0  0  0  0  0  0  0  0  0  0  0  0
   -3.8867   -8.4319   31.4794 H   0  0  0  0  0  0  0  0  0  0  0  0
   -1.9666   -8.1306   32.9088 H   0  0  0  0  0  0  0  0  0  0  0  0
   -0.0225   -6.8252   32.0178 H   0  0  0  0  0  0  0  0  0  0  0  0
   -0.1241   -6.0498   29.8520 H   0  0  0  0  0  0  0  0  0  0  0  0
   -2.0681   -6.8370   27.9683 H   0  0  0  0  0  0  0  0  0  0  0  0
  1  2  2  0
  2  3  1  0
  3  4  1  0
  4  5  1  0
  5  6  1  0
  6  7  1  0
  7  8  1  0
  8  9  1  0
  9 10  2  0
 10 11  1  0
 11 12  2  0
 12 13  1  0
 13 14  2  0
 14 15  1  0
 15 16  2  0
 16 17  1  0
  2 18  1  0
 18 19  2  0
 19 20  1  0
 20 21  2  0
 21 22  1  0
 22 23  2  0
  8  4  1  0
 17  9  1  0
 23 18  1  0
 17 13  1  0
  3 24  1  0
  3 25  1  0
  4 26  1  0
  5 27  1  0
  5 28  1  0
  6 29  1  0
  6 30  1  0
  7 31  1  0
  7 32  1  0
 10 33  1  0
 11 34  1  0
 15 35  1  0
 16 36  1  0
 19 37  1  0
 20 38  1  0
 21 39  1  0
 22 40  1  0
 23 41  1  0
M  END
>  <Energy>  (866) 
725.11372693197723

>  <compound_id>  (866) 
8788

>  <target_id>  (866) 
1

>  <reference_id>  (866) 
53

>  <inspiration_ids>  (866) 
[53, 107]

>  <energy_score>  (866) 
600.6850092045173

>  <distance_score>  (866) 
12.662172828246492

>  <path>  (866) 
/opt/xchem-fragalysis-2/maxwin/BulkDock/SCRATCH/511013/C8788-P53/C8788-P53.minimised.mol

>  <scratch_subdir>  (866) 
/opt/xchem-fragalysis-2/maxwin/BulkDock/SCRATCH/511013/C8788-P53

>  <fragmenstein_runtime>  (866) 
13.983505964279175

>  <fragmenstein_outcome>  (866) 
too moved

>  <fragmenstein_mode>  (866) 
expansion

>  <fragmenstein_error>  (866) 


$$$$
C8788-P107
     RDKit          3D

 41 44  0  0  0  0  0  0  0  0999 V2000
   -0.9523  -10.4612   29.4177 O   0  0  0  0  0  0  0  0  0  0  0  0
   -1.9488  -10.6284   30.1570 C   0  0  0  0  0  0  0  0  0  0  0  0
   -3.3481  -11.8335   29.5408 C   0  0  0  0  0  0  0  0  0  0  0  0
   -5.2193  -12.1271   29.0246 C   0  0  0  0  0  0  0  0  0  0  0  0
   -5.2138  -13.0761   30.1485 C   0  0  0  0  0  0  0  0  0  0  0  0
   -6.1839  -14.1267   30.0739 C   0  0  0  0  0  0  0  0  0  0  0  0
   -6.9549  -14.0814   28.7740 C   0  0  0  0  0  0  0  0  0  0  0  0
   -6.5881  -13.0075   27.9492 N   0  0  0  0  0  0  0  0  0  0  0  0
   -7.4000  -13.2381   26.6047 C   0  0  0  0  0  0  0  0  0  0  0  0
   -7.2714  -12.5859   25.4359 C   0  0  0  0  0  0  0  0  0  0  0  0
   -7.9237  -13.1303   24.2140 C   0  0  0  0  0  0  0  0  0  0  0  0
   -8.6887  -14.1650   24.1099 N   0  0  0  0  0  0  0  0  0  0  0  0
   -9.0232  -14.7482   25.2831 C   0  0  0  0  0  0  0  0  0  0  0  0
   -9.8298  -15.7846   25.4495 N   0  0  0  0  0  0  0  0  0  0  0  0
  -10.0943  -15.8164   26.7705 C   0  0  0  0  0  0  0  0  0  0  0  0
   -9.4099  -14.8312   27.4144 C   0  0  0  0  0  0  0  0  0  0  0  0
   -8.5343  -14.2485   26.5117 N   0  0  0  0  0  0  0  0  0  0  0  0
   -1.8401   -9.2489   31.2862 C   0  0  0  0  0  0  0  0  0  0  0  0
   -0.9696   -8.1493   30.7659 C   0  0  0  0  0  0  0  0  0  0  0  0
   -0.6652   -6.9510   31.4186 C   0  0  0  0  0  0  0  0  0  0  0  0
   -1.1594   -6.7878   32.6870 C   0  0  0  0  0  0  0  0  0  0  0  0
   -2.0117   -7.7716   33.2043 C   0  0  0  0  0  0  0  0  0  0  0  0
   -2.4387   -8.9192   32.4724 C   0  0  0  0  0  0  0  0  0  0  0  0
   -3.6740  -11.6924   30.5589 H   0  0  0  0  0  0  0  0  0  0  0  0
   -2.8745  -12.7830   29.4749 H   0  0  0  0  0  0  0  0  0  0  0  0
   -5.7468  -11.2829   29.4536 H   0  0  0  0  0  0  0  0  0  0  0  0
   -4.3103  -13.6088   30.0535 H   0  0  0  0  0  0  0  0  0  0  0  0
   -5.3145  -12.4612   31.0360 H   0  0  0  0  0  0  0  0  0  0  0  0
   -6.8259  -14.0265   30.9516 H   0  0  0  0  0  0  0  0  0  0  0  0
   -5.7235  -15.1118   30.1844 H   0  0  0  0  0  0  0  0  0  0  0  0
   -6.9639  -15.0049   28.2471 H   0  0  0  0  0  0  0  0  0  0  0  0
   -7.9986  -13.9800   28.9853 H   0  0  0  0  0  0  0  0  0  0  0  0
   -6.6503  -11.7338   25.3023 H   0  0  0  0  0  0  0  0  0  0  0  0
   -7.6628  -12.5908   23.2876 H   0  0  0  0  0  0  0  0  0  0  0  0
  -10.8171  -16.4728   27.2191 H   0  0  0  0  0  0  0  0  0  0  0  0
   -9.5651  -14.4977   28.4187 H   0  0  0  0  0  0  0  0  0  0  0  0
   -0.4900   -8.2922   29.7933 H   0  0  0  0  0  0  0  0  0  0  0  0
    0.0247   -6.2418   30.9753 H   0  0  0  0  0  0  0  0  0  0  0  0
   -0.8714   -5.9341   33.2909 H   0  0  0  0  0  0  0  0  0  0  0  0
   -2.3922   -7.6428   34.2186 H   0  0  0  0  0  0  0  0  0  0  0  0
   -3.2274   -9.4964   32.8968 H   0  0  0  0  0  0  0  0  0  0  0  0
  1  2  2  0
  2  3  1  0
  3  4  1  0
  4  5  1  0
  5  6  1  0
  6  7  1  0
  7  8  1  0
  8  9  1  0
  9 10  2  0
 10 11  1  0
 11 12  2  0
 12 13  1  0
 13 14  2  0
 14 15  1  0
 15 16  2  0
 16 17  1  0
  2 18  1  0
 18 19  2  0
 19 20  1  0
 20 21  2  0
 21 22  1  0
 22 23  2  0
  8  4  1  0
 17  9  1  0
 23 18  1  0
 17 13  1  0
  3 24  1  0
  3 25  1  0
  4 26  1  0
  5 27  1  0
  5 28  1  0
  6 29  1  0
  6 30  1  0
  7 31  1  0
  7 32  1  0
 10 33  1  0
 11 34  1  0
 15 35  1  0
 16 36  1  0
 19 37  1  0
 20 38  1  0
 21 39  1  0
 22 40  1  0
 23 41  1  0
M  END
>  <Energy>  (867) 
496.46378545381009

>  <compound_id>  (867) 
8788

>  <target_id>  (867) 
1

>  <reference_id>  (867) 
107

>  <inspiration_ids>  (867) 
[53, 107]

>  <energy_score>  (867) 
372.03506772635114

>  <distance_score>  (867) 
12.94880549070018

>  <path>  (867) 
/opt/xchem-fragalysis-2/maxwin/BulkDock/SCRATCH/511013/C8788-P107/C8788-P107.minimised.mol

>  <scratch_subdir>  (867) 
/opt/xchem-fragalysis-2/maxwin/BulkDock/SCRATCH/511013/C8788-P107

>  <fragmenstein_runtime>  (867) 
11.973891019821167

>  <fragmenstein_outcome>  (867) 
too moved

>  <fragmenstein_mode>  (867) 
expansion

>  <fragmenstein_error>  (867) 


$$$$
C8774-P53
     RDKit          3D

 37 39  0  0  0  0  0  0  0  0999 V2000
   -8.3972  -10.7869   25.7751 F   0  0  0  0  0  0  0  0  0  0  0  0
   -7.3343   -9.9221   25.8822 C   0  0  0  0  0  0  0  0  0  0  0  0
   -6.3904  -10.8912   25.7502 F   0  0  0  0  0  0  0  0  0  0  0  0
   -7.2740   -9.2143   27.0431 F   0  0  0  0  0  0  0  0  0  0  0  0
   -7.1499   -8.5742   24.8454 C   0  0  0  0  0  0  0  0  0  0  0  0
   -6.4815   -6.7024   25.1712 N   0  0  0  0  0  0  0  0  0  0  0  0
   -5.9217   -6.1072   26.4015 C   0  0  0  0  0  0  0  0  0  0  0  0
   -4.9240   -5.0398   26.3038 C   0  0  0  0  0  0  0  0  0  0  0  0
   -5.5153   -4.1658   25.3256 C   0  0  0  0  0  0  0  0  0  0  0  0
   -4.5183   -2.9262   25.1270 C   0  0  0  0  0  0  0  0  0  0  0  0
   -3.2010   -2.1926   25.8671 N   0  0  0  0  0  0  0  0  0  0  0  0
   -2.6549   -0.8414   26.3851 C   0  0  0  0  0  0  0  0  0  0  0  0
   -3.1147    0.4152   26.1536 C   0  0  0  0  0  0  0  0  0  0  0  0
   -2.3986    1.6149   26.6573 C   0  0  0  0  0  0  0  0  0  0  0  0
   -1.3193    1.6095   27.3571 N   0  0  0  0  0  0  0  0  0  0  0  0
   -0.8400    0.3807   27.6698 C   0  0  0  0  0  0  0  0  0  0  0  0
    0.2255    0.1361   28.4054 N   0  0  0  0  0  0  0  0  0  0  0  0
    0.3187   -1.2110   28.4898 C   0  0  0  0  0  0  0  0  0  0  0  0
   -0.7251   -1.8121   27.8342 C   0  0  0  0  0  0  0  0  0  0  0  0
   -1.4631   -0.8128   27.2326 N   0  0  0  0  0  0  0  0  0  0  0  0
   -6.2860   -5.3550   24.2831 C   0  0  0  0  0  0  0  0  0  0  0  0
   -8.0990   -8.2216   24.0497 H   0  0  0  0  0  0  0  0  0  0  0  0
   -7.1421   -9.5497   24.2771 H   0  0  0  0  0  0  0  0  0  0  0  0
   -6.7465   -5.5241   26.8545 H   0  0  0  0  0  0  0  0  0  0  0  0
   -5.3352   -6.7594   27.0621 H   0  0  0  0  0  0  0  0  0  0  0  0
   -3.9516   -5.3977   25.9642 H   0  0  0  0  0  0  0  0  0  0  0  0
   -4.9333   -4.5771   27.2944 H   0  0  0  0  0  0  0  0  0  0  0  0
   -6.4299   -3.7158   25.7563 H   0  0  0  0  0  0  0  0  0  0  0  0
   -4.2233   -3.0207   24.0917 H   0  0  0  0  0  0  0  0  0  0  0  0
   -5.2733   -2.2789   25.5301 H   0  0  0  0  0  0  0  0  0  0  0  0
   -2.5123   -2.2897   25.0917 H   0  0  0  0  0  0  0  0  0  0  0  0
   -4.0310    0.6694   25.6535 H   0  0  0  0  0  0  0  0  0  0  0  0
   -2.8566    2.5812   26.3834 H   0  0  0  0  0  0  0  0  0  0  0  0
    1.1209   -1.6880   29.0365 H   0  0  0  0  0  0  0  0  0  0  0  0
   -0.9588   -2.8529   27.7220 H   0  0  0  0  0  0  0  0  0  0  0  0
   -7.2741   -4.9801   24.0003 H   0  0  0  0  0  0  0  0  0  0  0  0
   -5.6481   -5.5052   23.4059 H   0  0  0  0  0  0  0  0  0  0  0  0
  1  2  1  0
  2  3  1  0
  2  4  1  0
  2  5  1  0
  5  6  1  0
  6  7  1  0
  7  8  1  0
  8  9  1  0
  9 10  1  0
 10 11  1  0
 11 12  1  0
 12 13  2  0
 13 14  1  0
 14 15  2  0
 15 16  1  0
 16 17  2  0
 17 18  1  0
 18 19  2  0
 19 20  1  0
  9 21  1  0
 21  6  1  0
 20 12  1  0
 20 16  1  0
  5 22  1  0
  5 23  1  0
  7 24  1  0
  7 25  1  0
  8 26  1  0
  8 27  1  0
  9 28  1  0
 10 29  1  0
 10 30  1  0
 11 31  1  0
 13 32  1  0
 14 33  1  0
 18 34  1  0
 19 35  1  0
 21 36  1  0
 21 37  1  0
M  END
>  <Energy>  (868) 
499.41920415055318

>  <compound_id>  (868) 
8774

>  <target_id>  (868) 
1

>  <reference_id>  (868) 
53

>  <inspiration_ids>  (868) 
[53, 107]

>  <energy_score>  (868) 
342.44356591607504

>  <distance_score>  (868) 
9.75740541412762

>  <path>  (868) 
/opt/xchem-fragalysis-2/maxwin/BulkDock/SCRATCH/511013/C8774-P53/C8774-P53.minimised.mol

>  <scratch_subdir>  (868) 
/opt/xchem-fragalysis-2/maxwin/BulkDock/SCRATCH/511013/C8774-P53

>  <fragmenstein_runtime>  (868) 
14.572875738143921

>  <fragmenstein_outcome>  (868) 
too moved

>  <fragmenstein_mode>  (868) 
expansion

>  <fragmenstein_error>  (868) 


$$$$
C8774-P107
     RDKit          3D

 37 39  0  0  0  0  0  0  0  0999 V2000
   -6.1035   -9.1490   31.6424 F   0  0  0  0  0  0  0  0  0  0  0  0
   -5.1192   -8.4040   32.2241 C   0  0  0  0  0  0  0  0  0  0  0  0
   -4.0252   -9.2032   32.2411 F   0  0  0  0  0  0  0  0  0  0  0  0
   -5.5282   -8.2469   33.4957 F   0  0  0  0  0  0  0  0  0  0  0  0
   -4.8468   -6.9945   31.4286 C   0  0  0  0  0  0  0  0  0  0  0  0
   -3.6904   -6.0004   31.6521 N   0  0  0  0  0  0  0  0  0  0  0  0
   -4.0723   -4.8608   32.5099 C   0  0  0  0  0  0  0  0  0  0  0  0
   -2.9961   -3.7963   32.2390 C   0  0  0  0  0  0  0  0  0  0  0  0
   -2.8097   -3.8403   30.7263 C   0  0  0  0  0  0  0  0  0  0  0  0
   -1.4095   -3.3537   30.2217 C   0  0  0  0  0  0  0  0  0  0  0  0
   -1.3053   -1.8814   30.0255 N   0  0  0  0  0  0  0  0  0  0  0  0
   -0.2329   -1.2390   29.3404 C   0  0  0  0  0  0  0  0  0  0  0  0
    0.5368   -1.8418   28.4117 C   0  0  0  0  0  0  0  0  0  0  0  0
    1.6309   -1.0473   27.7858 C   0  0  0  0  0  0  0  0  0  0  0  0
    1.9258    0.1840   28.0416 N   0  0  0  0  0  0  0  0  0  0  0  0
    1.1518    0.7928   28.9771 C   0  0  0  0  0  0  0  0  0  0  0  0
    1.2618    2.0253   29.4265 N   0  0  0  0  0  0  0  0  0  0  0  0
    0.2762    2.1806   30.3506 C   0  0  0  0  0  0  0  0  0  0  0  0
   -0.4647    1.0293   30.4788 C   0  0  0  0  0  0  0  0  0  0  0  0
    0.0962    0.1208   29.6098 N   0  0  0  0  0  0  0  0  0  0  0  0
   -3.1864   -5.3346   30.4060 C   0  0  0  0  0  0  0  0  0  0  0  0
   -5.7807   -6.4245   31.4864 H   0  0  0  0  0  0  0  0  0  0  0  0
   -4.7634   -7.3033   30.3822 H   0  0  0  0  0  0  0  0  0  0  0  0
   -4.0933   -5.1483   33.5653 H   0  0  0  0  0  0  0  0  0  0  0  0
   -5.0544   -4.4574   32.2328 H   0  0  0  0  0  0  0  0  0  0  0  0
   -2.0684   -4.0670   32.7576 H   0  0  0  0  0  0  0  0  0  0  0  0
   -3.3062   -2.8059   32.5859 H   0  0  0  0  0  0  0  0  0  0  0  0
   -3.5845   -3.2112   30.2714 H   0  0  0  0  0  0  0  0  0  0  0  0
   -0.6287   -3.6718   30.9222 H   0  0  0  0  0  0  0  0  0  0  0  0
   -1.2031   -3.8500   29.2691 H   0  0  0  0  0  0  0  0  0  0  0  0
   -1.5545   -1.3744   30.8742 H   0  0  0  0  0  0  0  0  0  0  0  0
    0.4280   -2.8629   28.0818 H   0  0  0  0  0  0  0  0  0  0  0  0
    2.2340   -1.5932   27.0402 H   0  0  0  0  0  0  0  0  0  0  0  0
    0.1511    3.1192   30.8750 H   0  0  0  0  0  0  0  0  0  0  0  0
   -1.3143    0.7891   31.0966 H   0  0  0  0  0  0  0  0  0  0  0  0
   -3.9616   -5.3379   29.6307 H   0  0  0  0  0  0  0  0  0  0  0  0
   -2.3231   -5.8929   30.0300 H   0  0  0  0  0  0  0  0  0  0  0  0
  1  2  1  0
  2  3  1  0
  2  4  1  0
  2  5  1  0
  5  6  1  0
  6  7  1  0
  7  8  1  0
  8  9  1  0
  9 10  1  0
 10 11  1  0
 11 12  1  0
 12 13  2  0
 13 14  1  0
 14 15  2  0
 15 16  1  0
 16 17  2  0
 17 18  1  0
 18 19  2  0
 19 20  1  0
  9 21  1  0
 21  6  1  0
 20 12  1  0
 20 16  1  0
  5 22  1  0
  5 23  1  0
  7 24  1  0
  7 25  1  0
  8 26  1  0
  8 27  1  0
  9 28  1  0
 10 29  1  0
 10 30  1  0
 11 31  1  0
 13 32  1  0
 14 33  1  0
 18 34  1  0
 19 35  1  0
 21 36  1  0
 21 37  1  0
M  END
>  <Energy>  (869) 
134.66468668065099

>  <compound_id>  (869) 
8774

>  <target_id>  (869) 
1

>  <reference_id>  (869) 
107

>  <inspiration_ids>  (869) 
[53, 107]

>  <energy_score>  (869) 
-22.310951553829568

>  <distance_score>  (869) 
10.244769592929345

>  <path>  (869) 
/opt/xchem-fragalysis-2/maxwin/BulkDock/SCRATCH/511013/C8774-P107/C8774-P107.minimised.mol

>  <scratch_subdir>  (869) 
/opt/xchem-fragalysis-2/maxwin/BulkDock/SCRATCH/511013/C8774-P107

>  <fragmenstein_runtime>  (869) 
16.939375638961792

>  <fragmenstein_outcome>  (869) 
too moved

>  <fragmenstein_mode>  (869) 
expansion

>  <fragmenstein_error>  (869) 


$$$$
C8791-P53
     RDKit          3D

 36 39  0  0  0  0  0  0  0  0999 V2000
  -11.7604  -15.2944   28.2188 C   0  0  0  0  0  0  0  0  0  0  0  0
  -10.4311  -14.7889   27.9589 C   0  0  0  0  0  0  0  0  0  0  0  0
   -9.2795  -15.4871   28.1056 C   0  0  0  0  0  0  0  0  0  0  0  0
   -8.0319  -14.3565   28.1708 N   0  0  0  0  0  0  0  0  0  0  0  0
   -7.9613  -13.5186   27.0672 C   0  0  0  0  0  0  0  0  0  0  0  0
   -6.6647  -12.6086   27.0633 C   0  0  0  0  0  0  0  0  0  0  0  0
   -5.9685  -11.6648   28.6173 C   0  0  0  0  0  0  0  0  0  0  0  0
   -6.4847   -9.4826   28.5979 C   0  0  0  0  0  0  0  0  0  0  0  0
   -5.3898   -7.7934   27.7377 C   0  0  0  0  0  0  0  0  0  0  0  0
   -6.0642   -6.4516   29.0159 C   0  0  0  0  0  0  0  0  0  0  0  0
   -5.4741   -7.9053   29.1318 C   0  0  0  0  0  0  0  0  0  0  0  0
   -6.6631  -13.5992   29.0612 C   0  0  0  0  0  0  0  0  0  0  0  0
   -9.6881  -17.1028   28.2598 N   0  0  0  0  0  0  0  0  0  0  0  0
   -9.1177  -18.7171   28.2553 C   0  0  0  0  0  0  0  0  0  0  0  0
  -10.1978  -19.9746   29.2360 C   0  0  0  0  0  0  0  0  0  0  0  0
  -11.0934  -18.4341   29.4923 N   0  0  0  0  0  0  0  0  0  0  0  0
  -10.9697  -17.2799   28.8481 C   0  0  0  0  0  0  0  0  0  0  0  0
  -12.0077  -16.4379   28.7106 N   0  0  0  0  0  0  0  0  0  0  0  0
  -12.5877  -14.5884   28.0400 H   0  0  0  0  0  0  0  0  0  0  0  0
  -10.4762  -13.7461   27.7680 H   0  0  0  0  0  0  0  0  0  0  0  0
   -7.9359  -14.2237   26.2198 H   0  0  0  0  0  0  0  0  0  0  0  0
   -8.8972  -13.0098   27.0558 H   0  0  0  0  0  0  0  0  0  0  0  0
   -6.5685  -12.0236   26.1314 H   0  0  0  0  0  0  0  0  0  0  0  0
   -6.1231  -13.4661   27.0372 H   0  0  0  0  0  0  0  0  0  0  0  0
   -4.9290  -11.8206   28.9728 H   0  0  0  0  0  0  0  0  0  0  0  0
   -7.5425   -9.3813   28.8267 H   0  0  0  0  0  0  0  0  0  0  0  0
   -5.8179   -6.3152   27.4720 H   0  0  0  0  0  0  0  0  0  0  0  0
   -5.5037   -6.2751   27.3775 H   0  0  0  0  0  0  0  0  0  0  0  0
   -5.6430   -5.4763   29.4594 H   0  0  0  0  0  0  0  0  0  0  0  0
   -6.6906   -5.5968   28.4332 H   0  0  0  0  0  0  0  0  0  0  0  0
   -6.0972   -6.9908   29.5833 H   0  0  0  0  0  0  0  0  0  0  0  0
   -4.3529   -7.7514   29.1865 H   0  0  0  0  0  0  0  0  0  0  0  0
   -6.0807  -14.4417   28.8662 H   0  0  0  0  0  0  0  0  0  0  0  0
   -6.6732  -13.7865   30.1638 H   0  0  0  0  0  0  0  0  0  0  0  0
   -8.0267  -18.6440   28.3933 H   0  0  0  0  0  0  0  0  0  0  0  0
  -10.7589  -20.9133   29.0213 H   0  0  0  0  0  0  0  0  0  0  0  0
  1  2  1  0
  2  3  2  0
  3  4  1  0
  4  5  1  0
  5  6  1  0
  6  7  1  0
  7  8  1  0
  8  9  1  0
  9 10  1  0
 10 11  1  0
  7 12  1  0
  3 13  1  0
 13 14  1  0
 14 15  2  0
 15 16  1  0
 16 17  2  0
 17 18  1  0
 18  1  2  0
 12  4  1  0
 17 13  1  0
 11  8  1  0
  1 19  1  0
  2 20  1  0
  5 21  1  0
  5 22  1  0
  6 23  1  0
  6 24  1  0
  7 25  1  0
  8 26  1  0
  9 27  1  0
  9 28  1  0
 10 29  1  0
 10 30  1  0
 11 31  1  0
 11 32  1  0
 12 33  1  0
 12 34  1  0
 14 35  1  0
 15 36  1  0
M  END
>  <Energy>  (870) 
1695.9747894018033

>  <compound_id>  (870) 
8791

>  <target_id>  (870) 
1

>  <reference_id>  (870) 
53

>  <inspiration_ids>  (870) 
[53, 107]

>  <energy_score>  (870) 
1587.4734302263169

>  <distance_score>  (870) 
9.181809464421928

>  <path>  (870) 
/opt/xchem-fragalysis-2/maxwin/BulkDock/SCRATCH/511013/C8791-P53/C8791-P53.minimised.mol

>  <scratch_subdir>  (870) 
/opt/xchem-fragalysis-2/maxwin/BulkDock/SCRATCH/511013/C8791-P53

>  <fragmenstein_runtime>  (870) 
35.78554391860962

>  <fragmenstein_outcome>  (870) 
too moved

>  <fragmenstein_mode>  (870) 
expansion

>  <fragmenstein_error>  (870) 


$$$$
C8791-P107
     RDKit          3D

 36 39  0  0  0  0  0  0  0  0999 V2000
   -7.6107  -17.1612   27.7269 C   0  0  0  0  0  0  0  0  0  0  0  0
   -8.6780  -16.2658   27.1211 C   0  0  0  0  0  0  0  0  0  0  0  0
   -8.9460  -16.0467   28.4212 C   0  0  0  0  0  0  0  0  0  0  0  0
   -7.6459  -14.4567   28.6282 N   0  0  0  0  0  0  0  0  0  0  0  0
   -6.2756  -13.9499   29.8816 C   0  0  0  0  0  0  0  0  0  0  0  0
   -5.2382  -12.1944   29.8088 C   0  0  0  0  0  0  0  0  0  0  0  0
   -6.3904  -10.5911   29.2974 C   0  0  0  0  0  0  0  0  0  0  0  0
   -6.0665   -8.3461   29.2116 C   0  0  0  0  0  0  0  0  0  0  0  0
   -6.5289   -6.3970   30.2950 C   0  0  0  0  0  0  0  0  0  0  0  0
   -5.8398   -5.0444   29.6152 C   0  0  0  0  0  0  0  0  0  0  0  0
   -6.2411   -6.2011   28.7625 C   0  0  0  0  0  0  0  0  0  0  0  0
   -6.6798  -12.6385   28.2770 C   0  0  0  0  0  0  0  0  0  0  0  0
   -9.8341  -17.8942   28.6831 N   0  0  0  0  0  0  0  0  0  0  0  0
  -10.4551  -19.8325   29.3598 C   0  0  0  0  0  0  0  0  0  0  0  0
  -10.3622  -20.9843   28.6062 C   0  0  0  0  0  0  0  0  0  0  0  0
   -9.3685  -20.3722   27.8298 N   0  0  0  0  0  0  0  0  0  0  0  0
   -8.7241  -18.8363   28.0860 C   0  0  0  0  0  0  0  0  0  0  0  0
   -7.4828  -18.4046   27.9773 N   0  0  0  0  0  0  0  0  0  0  0  0
   -6.8652  -16.6367   28.3057 H   0  0  0  0  0  0  0  0  0  0  0  0
   -9.2713  -16.8475   26.4329 H   0  0  0  0  0  0  0  0  0  0  0  0
   -6.7805  -13.8782   30.8500 H   0  0  0  0  0  0  0  0  0  0  0  0
   -5.6699  -14.8280   30.0154 H   0  0  0  0  0  0  0  0  0  0  0  0
   -5.0020  -11.9856   30.8478 H   0  0  0  0  0  0  0  0  0  0  0  0
   -4.3095  -12.2826   29.2462 H   0  0  0  0  0  0  0  0  0  0  0  0
   -6.9424  -10.4037   30.2087 H   0  0  0  0  0  0  0  0  0  0  0  0
   -5.4390   -8.4082   28.3214 H   0  0  0  0  0  0  0  0  0  0  0  0
   -7.2597   -6.2954   31.1239 H   0  0  0  0  0  0  0  0  0  0  0  0
   -6.3148   -6.4890   31.4912 H   0  0  0  0  0  0  0  0  0  0  0  0
   -6.1513   -4.1890   28.9523 H   0  0  0  0  0  0  0  0  0  0  0  0
   -5.9717   -4.3086   30.4181 H   0  0  0  0  0  0  0  0  0  0  0  0
   -6.0289   -5.8006   27.6832 H   0  0  0  0  0  0  0  0  0  0  0  0
   -7.1142   -5.6228   28.1427 H   0  0  0  0  0  0  0  0  0  0  0  0
   -7.3669  -12.8092   27.3526 H   0  0  0  0  0  0  0  0  0  0  0  0
   -6.0219  -12.5666   27.3622 H   0  0  0  0  0  0  0  0  0  0  0  0
  -10.5301  -20.0828   30.4679 H   0  0  0  0  0  0  0  0  0  0  0  0
  -10.6255  -22.0272   28.6320 H   0  0  0  0  0  0  0  0  0  0  0  0
  1  2  1  0
  2  3  2  0
  3  4  1  0
  4  5  1  0
  5  6  1  0
  6  7  1  0
  7  8  1  0
  8  9  1  0
  9 10  1  0
 10 11  1  0
  7 12  1  0
  3 13  1  0
 13 14  1  0
 14 15  2  0
 15 16  1  0
 16 17  2  0
 17 18  1  0
 18  1  2  0
 12  4  1  0
 17 13  1  0
 11  8  1  0
  1 19  1  0
  2 20  1  0
  5 21  1  0
  5 22  1  0
  6 23  1  0
  6 24  1  0
  7 25  1  0
  8 26  1  0
  9 27  1  0
  9 28  1  0
 10 29  1  0
 10 30  1  0
 11 31  1  0
 11 32  1  0
 12 33  1  0
 12 34  1  0
 14 35  1  0
 15 36  1  0
M  END
>  <Energy>  (871) 
2448.2059949748914

>  <compound_id>  (871) 
8791

>  <target_id>  (871) 
1

>  <reference_id>  (871) 
107

>  <inspiration_ids>  (871) 
[53, 107]

>  <energy_score>  (871) 
2339.704635799427

>  <distance_score>  (871) 
8.485680710504711

>  <path>  (871) 
/opt/xchem-fragalysis-2/maxwin/BulkDock/SCRATCH/511013/C8791-P107/C8791-P107.minimised.mol

>  <scratch_subdir>  (871) 
/opt/xchem-fragalysis-2/maxwin/BulkDock/SCRATCH/511013/C8791-P107

>  <fragmenstein_runtime>  (871) 
33.23422455787659

>  <fragmenstein_outcome>  (871) 
too moved

>  <fragmenstein_mode>  (871) 
expansion

>  <fragmenstein_error>  (871) 


$$$$
C8788-P53
     RDKit          3D

 41 44  0  0  0  0  0  0  0  0999 V2000
   -5.6840   -7.8403   29.0891 O   0  0  0  0  0  0  0  0  0  0  0  0
   -4.9110   -7.8989   28.0620 C   0  0  0  0  0  0  0  0  0  0  0  0
   -6.3626   -9.1774   27.2352 C   0  0  0  0  0  0  0  0  0  0  0  0
   -6.5712  -10.8007   25.8795 C   0  0  0  0  0  0  0  0  0  0  0  0
   -6.5364  -11.8551   24.4697 C   0  0  0  0  0  0  0  0  0  0  0  0
   -7.5866  -11.4411   23.3662 C   0  0  0  0  0  0  0  0  0  0  0  0
   -8.3629  -10.3363   24.0694 C   0  0  0  0  0  0  0  0  0  0  0  0
   -8.3764  -10.8894   25.4626 N   0  0  0  0  0  0  0  0  0  0  0  0
   -9.4310  -12.1180   25.4318 C   0  0  0  0  0  0  0  0  0  0  0  0
  -10.6373  -11.8456   24.8528 C   0  0  0  0  0  0  0  0  0  0  0  0
  -11.6767  -12.8947   24.7011 C   0  0  0  0  0  0  0  0  0  0  0  0
  -11.6148  -14.1036   25.1316 N   0  0  0  0  0  0  0  0  0  0  0  0
  -10.4887  -14.3903   25.8265 C   0  0  0  0  0  0  0  0  0  0  0  0
  -10.2583  -15.5325   26.4331 N   0  0  0  0  0  0  0  0  0  0  0  0
   -9.0932  -15.3426   27.0802 C   0  0  0  0  0  0  0  0  0  0  0  0
   -8.5830  -14.0839   26.8523 C   0  0  0  0  0  0  0  0  0  0  0  0
   -9.4224  -13.4507   25.9935 N   0  0  0  0  0  0  0  0  0  0  0  0
   -3.3829   -7.4005   29.3183 C   0  0  0  0  0  0  0  0  0  0  0  0
   -3.0553   -7.8440   31.0367 C   0  0  0  0  0  0  0  0  0  0  0  0
   -1.9336   -7.7455   31.8954 C   0  0  0  0  0  0  0  0  0  0  0  0
   -0.8791   -7.0746   31.4031 C   0  0  0  0  0  0  0  0  0  0  0  0
   -0.9551   -6.7350   30.0630 C   0  0  0  0  0  0  0  0  0  0  0  0
   -2.0626   -7.0554   29.0114 C   0  0  0  0  0  0  0  0  0  0  0  0
   -6.9018   -9.3483   28.2003 H   0  0  0  0  0  0  0  0  0  0  0  0
   -7.2057   -8.6675   26.7011 H   0  0  0  0  0  0  0  0  0  0  0  0
   -6.2353  -11.6566   26.5122 H   0  0  0  0  0  0  0  0  0  0  0  0
   -6.9158  -12.8190   24.8192 H   0  0  0  0  0  0  0  0  0  0  0  0
   -5.5450  -12.0474   24.0401 H   0  0  0  0  0  0  0  0  0  0  0  0
   -8.2091  -12.3056   23.1066 H   0  0  0  0  0  0  0  0  0  0  0  0
   -7.1405  -11.1081   22.4218 H   0  0  0  0  0  0  0  0  0  0  0  0
   -9.3307  -10.1671   23.5964 H   0  0  0  0  0  0  0  0  0  0  0  0
   -7.8978   -9.3496   24.0852 H   0  0  0  0  0  0  0  0  0  0  0  0
  -10.9336  -10.8754   24.4831 H   0  0  0  0  0  0  0  0  0  0  0  0
  -12.5744  -12.5765   24.1445 H   0  0  0  0  0  0  0  0  0  0  0  0
   -8.6666  -16.1410   27.6640 H   0  0  0  0  0  0  0  0  0  0  0  0
   -7.7105  -13.5705   27.2183 H   0  0  0  0  0  0  0  0  0  0  0  0
   -3.8867   -8.4319   31.4794 H   0  0  0  0  0  0  0  0  0  0  0  0
   -1.9666   -8.1306   32.9088 H   0  0  0  0  0  0  0  0  0  0  0  0
   -0.0225   -6.8252   32.0178 H   0  0  0  0  0  0  0  0  0  0  0  0
   -0.1241   -6.0498   29.8520 H   0  0  0  0  0  0  0  0  0  0  0  0
   -2.0681   -6.8370   27.9683 H   0  0  0  0  0  0  0  0  0  0  0  0
  1  2  2  0
  2  3  1  0
  3  4  1  0
  4  5  1  0
  5  6  1  0
  6  7  1  0
  7  8  1  0
  8  9  1  0
  9 10  2  0
 10 11  1  0
 11 12  2  0
 12 13  1  0
 13 14  2  0
 14 15  1  0
 15 16  2  0
 16 17  1  0
  2 18  1  0
 18 19  2  0
 19 20  1  0
 20 21  2  0
 21 22  1  0
 22 23  2  0
  8  4  1  0
 17  9  1  0
 23 18  1  0
 17 13  1  0
  3 24  1  0
  3 25  1  0
  4 26  1  0
  5 27  1  0
  5 28  1  0
  6 29  1  0
  6 30  1  0
  7 31  1  0
  7 32  1  0
 10 33  1  0
 11 34  1  0
 15 35  1  0
 16 36  1  0
 19 37  1  0
 20 38  1  0
 21 39  1  0
 22 40  1  0
 23 41  1  0
M  END
>  <Energy>  (872) 
725.11372693197723

>  <compound_id>  (872) 
8788

>  <target_id>  (872) 
1

>  <reference_id>  (872) 
53

>  <inspiration_ids>  (872) 
[53, 107]

>  <energy_score>  (872) 
600.6850092045173

>  <distance_score>  (872) 
12.662172828246492

>  <path>  (872) 
/opt/xchem-fragalysis-2/maxwin/BulkDock/SCRATCH/511013/C8788-P53/C8788-P53.minimised.mol

>  <scratch_subdir>  (872) 
/opt/xchem-fragalysis-2/maxwin/BulkDock/SCRATCH/511013/C8788-P53

>  <fragmenstein_runtime>  (872) 
13.931107759475708

>  <fragmenstein_outcome>  (872) 
too moved

>  <fragmenstein_mode>  (872) 
expansion

>  <fragmenstein_error>  (872) 


$$$$
C8788-P107
     RDKit          3D

 41 44  0  0  0  0  0  0  0  0999 V2000
   -0.9523  -10.4612   29.4177 O   0  0  0  0  0  0  0  0  0  0  0  0
   -1.9488  -10.6284   30.1570 C   0  0  0  0  0  0  0  0  0  0  0  0
   -3.3481  -11.8335   29.5408 C   0  0  0  0  0  0  0  0  0  0  0  0
   -5.2193  -12.1271   29.0246 C   0  0  0  0  0  0  0  0  0  0  0  0
   -5.2138  -13.0761   30.1485 C   0  0  0  0  0  0  0  0  0  0  0  0
   -6.1839  -14.1267   30.0739 C   0  0  0  0  0  0  0  0  0  0  0  0
   -6.9549  -14.0814   28.7740 C   0  0  0  0  0  0  0  0  0  0  0  0
   -6.5881  -13.0075   27.9492 N   0  0  0  0  0  0  0  0  0  0  0  0
   -7.4000  -13.2381   26.6047 C   0  0  0  0  0  0  0  0  0  0  0  0
   -7.2714  -12.5859   25.4359 C   0  0  0  0  0  0  0  0  0  0  0  0
   -7.9237  -13.1303   24.2140 C   0  0  0  0  0  0  0  0  0  0  0  0
   -8.6887  -14.1650   24.1099 N   0  0  0  0  0  0  0  0  0  0  0  0
   -9.0232  -14.7482   25.2831 C   0  0  0  0  0  0  0  0  0  0  0  0
   -9.8298  -15.7846   25.4495 N   0  0  0  0  0  0  0  0  0  0  0  0
  -10.0943  -15.8164   26.7705 C   0  0  0  0  0  0  0  0  0  0  0  0
   -9.4099  -14.8312   27.4144 C   0  0  0  0  0  0  0  0  0  0  0  0
   -8.5343  -14.2485   26.5117 N   0  0  0  0  0  0  0  0  0  0  0  0
   -1.8401   -9.2489   31.2862 C   0  0  0  0  0  0  0  0  0  0  0  0
   -0.9696   -8.1493   30.7659 C   0  0  0  0  0  0  0  0  0  0  0  0
   -0.6652   -6.9510   31.4186 C   0  0  0  0  0  0  0  0  0  0  0  0
   -1.1594   -6.7878   32.6870 C   0  0  0  0  0  0  0  0  0  0  0  0
   -2.0117   -7.7716   33.2043 C   0  0  0  0  0  0  0  0  0  0  0  0
   -2.4387   -8.9192   32.4724 C   0  0  0  0  0  0  0  0  0  0  0  0
   -3.6740  -11.6924   30.5589 H   0  0  0  0  0  0  0  0  0  0  0  0
   -2.8745  -12.7830   29.4749 H   0  0  0  0  0  0  0  0  0  0  0  0
   -5.7468  -11.2829   29.4536 H   0  0  0  0  0  0  0  0  0  0  0  0
   -4.3103  -13.6088   30.0535 H   0  0  0  0  0  0  0  0  0  0  0  0
   -5.3145  -12.4612   31.0360 H   0  0  0  0  0  0  0  0  0  0  0  0
   -6.8259  -14.0265   30.9516 H   0  0  0  0  0  0  0  0  0  0  0  0
   -5.7235  -15.1118   30.1844 H   0  0  0  0  0  0  0  0  0  0  0  0
   -6.9639  -15.0049   28.2471 H   0  0  0  0  0  0  0  0  0  0  0  0
   -7.9986  -13.9800   28.9853 H   0  0  0  0  0  0  0  0  0  0  0  0
   -6.6503  -11.7338   25.3023 H   0  0  0  0  0  0  0  0  0  0  0  0
   -7.6628  -12.5908   23.2876 H   0  0  0  0  0  0  0  0  0  0  0  0
  -10.8171  -16.4728   27.2191 H   0  0  0  0  0  0  0  0  0  0  0  0
   -9.5651  -14.4977   28.4187 H   0  0  0  0  0  0  0  0  0  0  0  0
   -0.4900   -8.2922   29.7933 H   0  0  0  0  0  0  0  0  0  0  0  0
    0.0247   -6.2418   30.9753 H   0  0  0  0  0  0  0  0  0  0  0  0
   -0.8714   -5.9341   33.2909 H   0  0  0  0  0  0  0  0  0  0  0  0
   -2.3922   -7.6428   34.2186 H   0  0  0  0  0  0  0  0  0  0  0  0
   -3.2274   -9.4964   32.8968 H   0  0  0  0  0  0  0  0  0  0  0  0
  1  2  2  0
  2  3  1  0
  3  4  1  0
  4  5  1  0
  5  6  1  0
  6  7  1  0
  7  8  1  0
  8  9  1  0
  9 10  2  0
 10 11  1  0
 11 12  2  0
 12 13  1  0
 13 14  2  0
 14 15  1  0
 15 16  2  0
 16 17  1  0
  2 18  1  0
 18 19  2  0
 19 20  1  0
 20 21  2  0
 21 22  1  0
 22 23  2  0
  8  4  1  0
 17  9  1  0
 23 18  1  0
 17 13  1  0
  3 24  1  0
  3 25  1  0
  4 26  1  0
  5 27  1  0
  5 28  1  0
  6 29  1  0
  6 30  1  0
  7 31  1  0
  7 32  1  0
 10 33  1  0
 11 34  1  0
 15 35  1  0
 16 36  1  0
 19 37  1  0
 20 38  1  0
 21 39  1  0
 22 40  1  0
 23 41  1  0
M  END
>  <Energy>  (873) 
496.46378545381009

>  <compound_id>  (873) 
8788

>  <target_id>  (873) 
1

>  <reference_id>  (873) 
107

>  <inspiration_ids>  (873) 
[53, 107]

>  <energy_score>  (873) 
372.03506772635114

>  <distance_score>  (873) 
12.94880549070018

>  <path>  (873) 
/opt/xchem-fragalysis-2/maxwin/BulkDock/SCRATCH/511013/C8788-P107/C8788-P107.minimised.mol

>  <scratch_subdir>  (873) 
/opt/xchem-fragalysis-2/maxwin/BulkDock/SCRATCH/511013/C8788-P107

>  <fragmenstein_runtime>  (873) 
12.14246678352356

>  <fragmenstein_outcome>  (873) 
too moved

>  <fragmenstein_mode>  (873) 
expansion

>  <fragmenstein_error>  (873) 


$$$$
C8796-P53
     RDKit          3D

 39 41  0  0  0  0  0  0  0  0999 V2000
   -6.7540  -14.1576   28.8592 O   0  0  0  0  0  0  0  0  0  0  0  0
   -7.0597  -13.9525   27.7246 C   0  0  0  0  0  0  0  0  0  0  0  0
   -7.9660  -15.0150   26.8161 N   0  0  0  0  0  0  0  0  0  0  0  0
   -8.8011  -16.5971   27.2637 C   0  0  0  0  0  0  0  0  0  0  0  0
   -8.6276  -18.4407   28.1108 C   0  0  0  0  0  0  0  0  0  0  0  0
   -7.0868  -18.0638   27.1541 C   0  0  0  0  0  0  0  0  0  0  0  0
   -6.5587  -19.4121   26.6936 C   0  0  0  0  0  0  0  0  0  0  0  0
   -7.7264  -20.7255   27.5990 C   0  0  0  0  0  0  0  0  0  0  0  0
   -9.4878  -20.3243   27.7921 N   0  0  0  0  0  0  0  0  0  0  0  0
  -10.6496  -20.8810   29.0629 C   0  0  0  0  0  0  0  0  0  0  0  0
  -10.4629  -21.5226   30.0525 O   0  0  0  0  0  0  0  0  0  0  0  0
  -12.1686  -20.6425   28.8760 C   0  0  0  0  0  0  0  0  0  0  0  0
  -12.8842  -20.9957   29.9911 O   0  0  0  0  0  0  0  0  0  0  0  0
   -6.3152  -12.2348   27.1478 C   0  0  0  0  0  0  0  0  0  0  0  0
   -5.8196  -11.6846   28.6111 C   0  0  0  0  0  0  0  0  0  0  0  0
   -6.5442  -10.4583   29.2851 C   0  0  0  0  0  0  0  0  0  0  0  0
   -6.7738   -9.3051   28.5748 N   0  0  0  0  0  0  0  0  0  0  0  0
   -6.0112   -8.2690   29.1139 C   0  0  0  0  0  0  0  0  0  0  0  0
   -5.1147   -7.9401   28.2096 C   0  0  0  0  0  0  0  0  0  0  0  0
   -5.5712   -8.3146   27.0797 N   0  0  0  0  0  0  0  0  0  0  0  0
   -6.4819   -9.3773   27.1755 C   0  0  0  0  0  0  0  0  0  0  0  0
   -6.3675  -10.9437   26.2092 N   0  0  0  0  0  0  0  0  0  0  0  0
   -8.1642  -14.5843   25.9205 H   0  0  0  0  0  0  0  0  0  0  0  0
   -8.0864  -16.3990   28.0633 H   0  0  0  0  0  0  0  0  0  0  0  0
   -8.8811  -16.8416   26.2162 H   0  0  0  0  0  0  0  0  0  0  0  0
   -9.6087  -18.1266   27.8821 H   0  0  0  0  0  0  0  0  0  0  0  0
   -7.0907  -17.3957   26.2830 H   0  0  0  0  0  0  0  0  0  0  0  0
   -6.3850  -17.5395   27.8340 H   0  0  0  0  0  0  0  0  0  0  0  0
   -5.5000  -19.6272   26.9393 H   0  0  0  0  0  0  0  0  0  0  0  0
   -6.5079  -19.1439   25.6563 H   0  0  0  0  0  0  0  0  0  0  0  0
   -7.7711  -21.6540   27.0401 H   0  0  0  0  0  0  0  0  0  0  0  0
   -7.2878  -21.5297   28.1969 H   0  0  0  0  0  0  0  0  0  0  0  0
  -12.4793  -21.2094   28.0018 H   0  0  0  0  0  0  0  0  0  0  0  0
  -12.4855  -19.6251   28.9829 H   0  0  0  0  0  0  0  0  0  0  0  0
  -12.6057  -21.9105   30.1880 H   0  0  0  0  0  0  0  0  0  0  0  0
   -5.2287  -12.2787   29.2938 H   0  0  0  0  0  0  0  0  0  0  0  0
   -6.5991  -10.3756   30.3346 H   0  0  0  0  0  0  0  0  0  0  0  0
   -5.8570   -8.3781   30.1476 H   0  0  0  0  0  0  0  0  0  0  0  0
   -4.0693   -7.6711   28.2643 H   0  0  0  0  0  0  0  0  0  0  0  0
  1  2  2  0
  2  3  1  0
  3  4  1  0
  4  5  1  0
  5  6  1  0
  6  7  1  0
  7  8  1  0
  8  9  1  0
  9 10  1  0
 10 11  2  0
 10 12  1  0
 12 13  1  0
  2 14  1  0
 14 15  1  0
 15 16  2  0
 16 17  1  0
 17 18  1  0
 18 19  2  0
 19 20  1  0
 20 21  2  0
 21 22  1  0
  9  5  1  0
 22 14  2  0
 21 17  1  0
  3 23  1  0
  4 24  1  0
  4 25  1  0
  5 26  1  0
  6 27  1  0
  6 28  1  0
  7 29  1  0
  7 30  1  0
  8 31  1  0
  8 32  1  0
 12 33  1  0
 12 34  1  0
 13 35  1  0
 15 36  1  0
 16 37  1  0
 18 38  1  0
 19 39  1  0
M  END
>  <Energy>  (874) 
1066.7580660577023

>  <compound_id>  (874) 
8796

>  <target_id>  (874) 
1

>  <reference_id>  (874) 
53

>  <inspiration_ids>  (874) 
[53, 107]

>  <energy_score>  (874) 
932.3997780041111

>  <distance_score>  (874) 
12.702033925238602

>  <path>  (874) 
/opt/xchem-fragalysis-2/maxwin/BulkDock/SCRATCH/511013/C8796-P53/C8796-P53.minimised.mol

>  <scratch_subdir>  (874) 
/opt/xchem-fragalysis-2/maxwin/BulkDock/SCRATCH/511013/C8796-P53

>  <fragmenstein_runtime>  (874) 
19.558253049850464

>  <fragmenstein_outcome>  (874) 
too moved

>  <fragmenstein_mode>  (874) 
expansion

>  <fragmenstein_error>  (874) 


$$$$
C8796-P107
     RDKit          3D

 39 41  0  0  0  0  0  0  0  0999 V2000
   -1.0322   -8.0657   33.0975 O   0  0  0  0  0  0  0  0  0  0  0  0
   -1.7602   -7.7351   32.2011 C   0  0  0  0  0  0  0  0  0  0  0  0
   -3.0142   -8.3532   31.6983 N   0  0  0  0  0  0  0  0  0  0  0  0
   -3.7934   -9.4958   32.2061 C   0  0  0  0  0  0  0  0  0  0  0  0
   -5.0025  -10.8292   31.8528 C   0  0  0  0  0  0  0  0  0  0  0  0
   -5.1982  -12.5567   31.1729 C   0  0  0  0  0  0  0  0  0  0  0  0
   -4.8598  -13.0870   29.9398 C   0  0  0  0  0  0  0  0  0  0  0  0
   -5.1755  -11.7479   29.9240 C   0  0  0  0  0  0  0  0  0  0  0  0
   -6.1933  -11.0472   31.3834 N   0  0  0  0  0  0  0  0  0  0  0  0
   -7.2300  -11.9210   32.6610 C   0  0  0  0  0  0  0  0  0  0  0  0
   -7.3918  -13.1417   32.8645 O   0  0  0  0  0  0  0  0  0  0  0  0
   -7.9825  -11.0885   33.7919 C   0  0  0  0  0  0  0  0  0  0  0  0
   -8.5701  -12.0696   34.7061 O   0  0  0  0  0  0  0  0  0  0  0  0
   -1.2146   -6.4259   31.5224 C   0  0  0  0  0  0  0  0  0  0  0  0
   -1.1635   -5.2056   32.4288 C   0  0  0  0  0  0  0  0  0  0  0  0
   -0.6775   -4.0665   31.9072 C   0  0  0  0  0  0  0  0  0  0  0  0
   -0.2000   -4.0729   30.6096 N   0  0  0  0  0  0  0  0  0  0  0  0
    0.3095   -3.0507   29.8570 C   0  0  0  0  0  0  0  0  0  0  0  0
    0.6679   -3.6330   28.6662 C   0  0  0  0  0  0  0  0  0  0  0  0
    0.3818   -4.9808   28.6764 N   0  0  0  0  0  0  0  0  0  0  0  0
   -0.1747   -5.2404   29.8433 C   0  0  0  0  0  0  0  0  0  0  0  0
   -0.7108   -6.4324   30.3134 N   0  0  0  0  0  0  0  0  0  0  0  0
   -3.4119   -7.7618   30.9828 H   0  0  0  0  0  0  0  0  0  0  0  0
   -2.8955  -10.0079   32.5382 H   0  0  0  0  0  0  0  0  0  0  0  0
   -4.2450   -9.0292   33.0959 H   0  0  0  0  0  0  0  0  0  0  0  0
   -5.4170  -10.6426   32.8581 H   0  0  0  0  0  0  0  0  0  0  0  0
   -5.8978  -13.4844   31.0997 H   0  0  0  0  0  0  0  0  0  0  0  0
   -6.2352  -12.7525   31.4261 H   0  0  0  0  0  0  0  0  0  0  0  0
   -3.8136  -13.3011   29.7723 H   0  0  0  0  0  0  0  0  0  0  0  0
   -5.6455  -13.8102   29.6203 H   0  0  0  0  0  0  0  0  0  0  0  0
   -5.7082  -11.7053   28.9706 H   0  0  0  0  0  0  0  0  0  0  0  0
   -4.0478  -11.5609   29.9891 H   0  0  0  0  0  0  0  0  0  0  0  0
   -8.8693  -10.5788   33.4109 H   0  0  0  0  0  0  0  0  0  0  0  0
   -7.2882  -10.5198   34.4119 H   0  0  0  0  0  0  0  0  0  0  0  0
   -8.4355  -12.9423   34.2747 H   0  0  0  0  0  0  0  0  0  0  0  0
   -1.5033   -5.3072   33.4521 H   0  0  0  0  0  0  0  0  0  0  0  0
   -0.6032   -3.1398   32.4626 H   0  0  0  0  0  0  0  0  0  0  0  0
    0.3869   -2.0352   30.2165 H   0  0  0  0  0  0  0  0  0  0  0  0
    1.1247   -3.1601   27.8042 H   0  0  0  0  0  0  0  0  0  0  0  0
  1  2  2  0
  2  3  1  0
  3  4  1  0
  4  5  1  0
  5  6  1  0
  6  7  1  0
  7  8  1  0
  8  9  1  0
  9 10  1  0
 10 11  2  0
 10 12  1  0
 12 13  1  0
  2 14  1  0
 14 15  1  0
 15 16  2  0
 16 17  1  0
 17 18  1  0
 18 19  2  0
 19 20  1  0
 20 21  2  0
 21 22  1  0
  9  5  1  0
 22 14  2  0
 21 17  1  0
  3 23  1  0
  4 24  1  0
  4 25  1  0
  5 26  1  0
  6 27  1  0
  6 28  1  0
  7 29  1  0
  7 30  1  0
  8 31  1  0
  8 32  1  0
 12 33  1  0
 12 34  1  0
 13 35  1  0
 15 36  1  0
 16 37  1  0
 18 38  1  0
 19 39  1  0
M  END
>  <Energy>  (875) 
767.45177586527006

>  <compound_id>  (875) 
8796

>  <target_id>  (875) 
1

>  <reference_id>  (875) 
107

>  <inspiration_ids>  (875) 
[53, 107]

>  <energy_score>  (875) 
633.0934878116765

>  <distance_score>  (875) 
12.05561974677471

>  <path>  (875) 
/opt/xchem-fragalysis-2/maxwin/BulkDock/SCRATCH/511013/C8796-P107/C8796-P107.minimised.mol

>  <scratch_subdir>  (875) 
/opt/xchem-fragalysis-2/maxwin/BulkDock/SCRATCH/511013/C8796-P107

>  <fragmenstein_runtime>  (875) 
13.168187141418457

>  <fragmenstein_outcome>  (875) 
too moved

>  <fragmenstein_mode>  (875) 
expansion

>  <fragmenstein_error>  (875) 


$$$$
C8797-P53
     RDKit          3D

 42 44  0  0  0  0  0  0  0  0999 V2000
   -3.5305   -9.6484   23.1003 C   0  0  0  0  0  0  0  0  0  0  0  0
   -3.8963  -10.7055   24.1212 N   0  0  0  0  0  0  0  0  0  0  0  0
   -2.6977   -9.0163   25.0991 C   0  0  0  0  0  0  0  0  0  0  0  0
   -2.0019   -7.7740   26.7840 C   0  0  0  0  0  0  0  0  0  0  0  0
   -2.8510   -7.1719   28.1111 C   0  0  0  0  0  0  0  0  0  0  0  0
   -2.1841   -7.1772   29.8333 C   0  0  0  0  0  0  0  0  0  0  0  0
   -1.1078   -6.7926   29.0514 C   0  0  0  0  0  0  0  0  0  0  0  0
   -0.7986   -8.4506   28.3821 N   0  0  0  0  0  0  0  0  0  0  0  0
    0.7153   -8.7459   28.4599 C   0  0  0  0  0  0  0  0  0  0  0  0
    1.5948   -8.5628   27.6498 O   0  0  0  0  0  0  0  0  0  0  0  0
    0.9441   -9.2645   29.9319 C   0  0  0  0  0  0  0  0  0  0  0  0
   -0.0979   -9.9807   30.5523 O   0  0  0  0  0  0  0  0  0  0  0  0
   -5.7517  -11.5310   24.6037 C   0  0  0  0  0  0  0  0  0  0  0  0
   -6.6207  -10.9747   24.0209 O   0  0  0  0  0  0  0  0  0  0  0  0
   -6.6269  -12.9353   25.8550 C   0  0  0  0  0  0  0  0  0  0  0  0
   -7.4147  -14.6062   25.3429 C   0  0  0  0  0  0  0  0  0  0  0  0
   -8.1234  -15.4020   26.1368 C   0  0  0  0  0  0  0  0  0  0  0  0
   -8.0056  -15.1633   27.4585 N   0  0  0  0  0  0  0  0  0  0  0  0
   -8.2999  -16.0480   28.4608 C   0  0  0  0  0  0  0  0  0  0  0  0
   -7.4915  -15.6592   29.4914 C   0  0  0  0  0  0  0  0  0  0  0  0
   -6.8703  -14.4891   29.1797 N   0  0  0  0  0  0  0  0  0  0  0  0
   -7.2238  -14.1271   27.9438 C   0  0  0  0  0  0  0  0  0  0  0  0
   -6.7228  -13.0082   27.1962 N   0  0  0  0  0  0  0  0  0  0  0  0
   -3.8476  -10.0435   22.1340 H   0  0  0  0  0  0  0  0  0  0  0  0
   -2.6406   -9.9144   23.2536 H   0  0  0  0  0  0  0  0  0  0  0  0
   -3.8764   -8.6520   22.8161 H   0  0  0  0  0  0  0  0  0  0  0  0
   -2.1372   -9.7212   25.9322 H   0  0  0  0  0  0  0  0  0  0  0  0
   -1.8642   -9.6012   24.6865 H   0  0  0  0  0  0  0  0  0  0  0  0
   -2.0074   -6.8469   26.1935 H   0  0  0  0  0  0  0  0  0  0  0  0
   -2.4494   -7.9235   28.5522 H   0  0  0  0  0  0  0  0  0  0  0  0
   -3.9073   -7.5029   28.0116 H   0  0  0  0  0  0  0  0  0  0  0  0
   -1.6478   -7.9796   30.3849 H   0  0  0  0  0  0  0  0  0  0  0  0
   -2.5914   -6.7341   30.7459 H   0  0  0  0  0  0  0  0  0  0  0  0
   -0.2445   -6.6622   29.7356 H   0  0  0  0  0  0  0  0  0  0  0  0
   -1.2193   -5.7789   28.6306 H   0  0  0  0  0  0  0  0  0  0  0  0
    1.8707   -9.8277   30.0397 H   0  0  0  0  0  0  0  0  0  0  0  0
    1.1001   -8.3602   30.5322 H   0  0  0  0  0  0  0  0  0  0  0  0
   -0.8796   -9.8420   29.9833 H   0  0  0  0  0  0  0  0  0  0  0  0
   -7.3009  -14.9329   24.2995 H   0  0  0  0  0  0  0  0  0  0  0  0
   -8.6085  -16.3059   25.8066 H   0  0  0  0  0  0  0  0  0  0  0  0
   -8.9222  -16.9142   28.3012 H   0  0  0  0  0  0  0  0  0  0  0  0
   -7.3000  -16.1423   30.4391 H   0  0  0  0  0  0  0  0  0  0  0  0
  1  2  1  0
  2  3  1  0
  3  4  1  0
  4  5  1  0
  5  6  1  0
  6  7  1  0
  7  8  1  0
  8  9  1  0
  9 10  2  0
  9 11  1  0
 11 12  1  0
  2 13  1  0
 13 14  2  0
 13 15  1  0
 15 16  1  0
 16 17  2  0
 17 18  1  0
 18 19  1  0
 19 20  2  0
 20 21  1  0
 21 22  2  0
 22 23  1  0
  8  4  1  0
 23 15  2  0
 22 18  1  0
  1 24  1  0
  1 25  1  0
  1 26  1  0
  3 27  1  0
  3 28  1  0
  4 29  1  0
  5 30  1  0
  5 31  1  0
  6 32  1  0
  6 33  1  0
  7 34  1  0
  7 35  1  0
 11 36  1  0
 11 37  1  0
 12 38  1  0
 16 39  1  0
 17 40  1  0
 19 41  1  0
 20 42  1  0
M  END
>  <Energy>  (876) 
1529.8477121060753

>  <compound_id>  (876) 
8797

>  <target_id>  (876) 
1

>  <reference_id>  (876) 
53

>  <inspiration_ids>  (876) 
[53, 107]

>  <energy_score>  (876) 
1369.8994030240606

>  <distance_score>  (876) 
12.017547642994304

>  <path>  (876) 
/opt/xchem-fragalysis-2/maxwin/BulkDock/SCRATCH/511013/C8797-P53/C8797-P53.minimised.mol

>  <scratch_subdir>  (876) 
/opt/xchem-fragalysis-2/maxwin/BulkDock/SCRATCH/511013/C8797-P53

>  <fragmenstein_runtime>  (876) 
16.751941204071045

>  <fragmenstein_outcome>  (876) 
too moved

>  <fragmenstein_mode>  (876) 
expansion

>  <fragmenstein_error>  (876) 


$$$$
C8797-P107
     RDKit          3D

 42 44  0  0  0  0  0  0  0  0999 V2000
   -1.4018   -8.7094   25.6732 C   0  0  0  0  0  0  0  0  0  0  0  0
   -2.3947  -10.1315   26.5816 N   0  0  0  0  0  0  0  0  0  0  0  0
   -0.8742   -9.9443   27.7160 C   0  0  0  0  0  0  0  0  0  0  0  0
   -0.5395   -8.3728   28.5291 C   0  0  0  0  0  0  0  0  0  0  0  0
   -0.9010   -6.9789   27.9984 C   0  0  0  0  0  0  0  0  0  0  0  0
   -0.3195   -6.1632   29.0646 C   0  0  0  0  0  0  0  0  0  0  0  0
   -0.5128   -7.1427   30.1922 C   0  0  0  0  0  0  0  0  0  0  0  0
   -0.9523   -8.6087   30.0683 N   0  0  0  0  0  0  0  0  0  0  0  0
   -0.3223   -9.4014   31.1040 C   0  0  0  0  0  0  0  0  0  0  0  0
    0.7174  -10.0085   31.1016 O   0  0  0  0  0  0  0  0  0  0  0  0
   -1.1860   -9.3660   32.3849 C   0  0  0  0  0  0  0  0  0  0  0  0
   -2.5866   -9.3357   32.1886 O   0  0  0  0  0  0  0  0  0  0  0  0
   -2.7821  -11.7683   26.1883 C   0  0  0  0  0  0  0  0  0  0  0  0
   -2.4388  -12.4384   25.2975 O   0  0  0  0  0  0  0  0  0  0  0  0
   -4.1524  -12.1813   27.6323 C   0  0  0  0  0  0  0  0  0  0  0  0
   -6.0453  -12.5292   27.1989 C   0  0  0  0  0  0  0  0  0  0  0  0
   -6.8339  -13.5185   27.9652 C   0  0  0  0  0  0  0  0  0  0  0  0
   -6.2768  -13.8633   29.3882 N   0  0  0  0  0  0  0  0  0  0  0  0
   -6.6217  -14.8012   30.3399 C   0  0  0  0  0  0  0  0  0  0  0  0
   -5.7997  -14.5570   31.4196 C   0  0  0  0  0  0  0  0  0  0  0  0
   -4.8668  -13.5348   31.2120 N   0  0  0  0  0  0  0  0  0  0  0  0
   -4.9883  -13.0799   29.9657 C   0  0  0  0  0  0  0  0  0  0  0  0
   -3.9545  -12.3333   29.0875 N   0  0  0  0  0  0  0  0  0  0  0  0
   -0.4280   -8.4217   26.0827 H   0  0  0  0  0  0  0  0  0  0  0  0
   -1.9158   -7.7870   26.0217 H   0  0  0  0  0  0  0  0  0  0  0  0
   -1.7254   -8.3795   24.6921 H   0  0  0  0  0  0  0  0  0  0  0  0
    0.0578  -10.3955   27.4330 H   0  0  0  0  0  0  0  0  0  0  0  0
   -1.1600  -10.4890   28.6178 H   0  0  0  0  0  0  0  0  0  0  0  0
    0.4830   -8.4770   28.2495 H   0  0  0  0  0  0  0  0  0  0  0  0
   -0.4466   -6.6864   27.0509 H   0  0  0  0  0  0  0  0  0  0  0  0
   -1.9730   -6.8337   27.9595 H   0  0  0  0  0  0  0  0  0  0  0  0
   -0.7898   -5.1902   29.2113 H   0  0  0  0  0  0  0  0  0  0  0  0
    0.7286   -5.9261   28.8977 H   0  0  0  0  0  0  0  0  0  0  0  0
   -1.3294   -6.7400   30.8110 H   0  0  0  0  0  0  0  0  0  0  0  0
    0.3228   -7.0621   30.9011 H   0  0  0  0  0  0  0  0  0  0  0  0
   -0.9461  -10.2469   32.9900 H   0  0  0  0  0  0  0  0  0  0  0  0
   -0.9003   -8.4760   32.9545 H   0  0  0  0  0  0  0  0  0  0  0  0
   -2.8281  -10.2270   31.8607 H   0  0  0  0  0  0  0  0  0  0  0  0
   -6.4057  -12.2220   26.2176 H   0  0  0  0  0  0  0  0  0  0  0  0
   -7.7646  -13.9840   27.6765 H   0  0  0  0  0  0  0  0  0  0  0  0
   -7.4170  -15.5077   30.1702 H   0  0  0  0  0  0  0  0  0  0  0  0
   -5.8092  -15.0822   32.3671 H   0  0  0  0  0  0  0  0  0  0  0  0
  1  2  1  0
  2  3  1  0
  3  4  1  0
  4  5  1  0
  5  6  1  0
  6  7  1  0
  7  8  1  0
  8  9  1  0
  9 10  2  0
  9 11  1  0
 11 12  1  0
  2 13  1  0
 13 14  2  0
 13 15  1  0
 15 16  1  0
 16 17  2  0
 17 18  1  0
 18 19  1  0
 19 20  2  0
 20 21  1  0
 21 22  2  0
 22 23  1  0
  8  4  1  0
 23 15  2  0
 22 18  1  0
  1 24  1  0
  1 25  1  0
  1 26  1  0
  3 27  1  0
  3 28  1  0
  4 29  1  0
  5 30  1  0
  5 31  1  0
  6 32  1  0
  6 33  1  0
  7 34  1  0
  7 35  1  0
 11 36  1  0
 11 37  1  0
 12 38  1  0
 16 39  1  0
 17 40  1  0
 19 41  1  0
 20 42  1  0
M  END
>  <Energy>  (877) 
613.10157624672422

>  <compound_id>  (877) 
8797

>  <target_id>  (877) 
1

>  <reference_id>  (877) 
107

>  <inspiration_ids>  (877) 
[53, 107]

>  <energy_score>  (877) 
453.1532671647032

>  <distance_score>  (877) 
12.630562828198963

>  <path>  (877) 
/opt/xchem-fragalysis-2/maxwin/BulkDock/SCRATCH/511013/C8797-P107/C8797-P107.minimised.mol

>  <scratch_subdir>  (877) 
/opt/xchem-fragalysis-2/maxwin/BulkDock/SCRATCH/511013/C8797-P107

>  <fragmenstein_runtime>  (877) 
14.164777278900146

>  <fragmenstein_outcome>  (877) 
too moved

>  <fragmenstein_mode>  (877) 
expansion

>  <fragmenstein_error>  (877) 


$$$$
C8798-P53
     RDKit          3D

 40 43  0  0  0  0  0  0  0  0999 V2000
  -11.3775  -12.1415   25.0402 C   0  0  0  0  0  0  0  0  0  0  0  0
  -11.3420  -11.4075   23.8903 C   0  0  0  0  0  0  0  0  0  0  0  0
  -10.1596  -10.6917   23.9101 N   0  0  0  0  0  0  0  0  0  0  0  0
   -9.7854   -9.5439   23.0886 C   0  0  0  0  0  0  0  0  0  0  0  0
   -8.6103   -8.7236   23.3335 C   0  0  0  0  0  0  0  0  0  0  0  0
   -7.2292   -8.9817   24.8366 C   0  0  0  0  0  0  0  0  0  0  0  0
   -6.1068   -7.5515   25.4699 N   0  0  0  0  0  0  0  0  0  0  0  0
   -5.1714   -6.9265   23.6877 C   0  0  0  0  0  0  0  0  0  0  0  0
   -3.3554   -6.1115   23.9111 C   0  0  0  0  0  0  0  0  0  0  0  0
   -2.8196   -6.9966   25.8198 C   0  0  0  0  0  0  0  0  0  0  0  0
   -4.3881   -7.8181   26.9241 C   0  0  0  0  0  0  0  0  0  0  0  0
   -2.7192   -7.0063   28.0640 C   0  0  0  0  0  0  0  0  0  0  0  0
   -1.9706   -7.2869   29.7905 C   0  0  0  0  0  0  0  0  0  0  0  0
   -0.5177   -7.7090   29.9057 C   0  0  0  0  0  0  0  0  0  0  0  0
    0.3712   -6.6109   29.6571 O   0  0  0  0  0  0  0  0  0  0  0  0
   -0.2513   -5.3381   29.3823 C   0  0  0  0  0  0  0  0  0  0  0  0
   -1.5707   -5.3423   28.2816 C   0  0  0  0  0  0  0  0  0  0  0  0
   -7.6749  -10.4752   25.4130 N   0  0  0  0  0  0  0  0  0  0  0  0
   -9.4003  -11.0458   25.1704 C   0  0  0  0  0  0  0  0  0  0  0  0
  -10.2192  -11.9651   25.7537 N   0  0  0  0  0  0  0  0  0  0  0  0
  -12.1530  -12.8105   25.3888 H   0  0  0  0  0  0  0  0  0  0  0  0
  -12.0535  -11.2831   23.0879 H   0  0  0  0  0  0  0  0  0  0  0  0
  -10.5398   -9.2898   22.3504 H   0  0  0  0  0  0  0  0  0  0  0  0
   -8.5063   -7.8430   22.7286 H   0  0  0  0  0  0  0  0  0  0  0  0
   -4.7677   -7.7718   23.0348 H   0  0  0  0  0  0  0  0  0  0  0  0
   -5.6222   -6.5654   22.7245 H   0  0  0  0  0  0  0  0  0  0  0  0
   -3.4113   -6.6681   22.9695 H   0  0  0  0  0  0  0  0  0  0  0  0
   -2.2638   -6.1674   23.7408 H   0  0  0  0  0  0  0  0  0  0  0  0
   -2.1564   -6.2659   26.2099 H   0  0  0  0  0  0  0  0  0  0  0  0
   -2.4178   -7.9501   25.7804 H   0  0  0  0  0  0  0  0  0  0  0  0
   -4.9775   -7.8373   27.8443 H   0  0  0  0  0  0  0  0  0  0  0  0
   -1.9486   -7.5801   27.6386 H   0  0  0  0  0  0  0  0  0  0  0  0
   -2.6153   -7.6032   30.6250 H   0  0  0  0  0  0  0  0  0  0  0  0
   -1.8040   -6.4236   30.4207 H   0  0  0  0  0  0  0  0  0  0  0  0
   -0.3167   -8.0408   30.9317 H   0  0  0  0  0  0  0  0  0  0  0  0
   -0.2755   -8.5691   29.2729 H   0  0  0  0  0  0  0  0  0  0  0  0
    0.5204   -4.6674   28.9792 H   0  0  0  0  0  0  0  0  0  0  0  0
   -0.5446   -4.8770   30.3361 H   0  0  0  0  0  0  0  0  0  0  0  0
   -1.2843   -4.8230   27.3462 H   0  0  0  0  0  0  0  0  0  0  0  0
   -1.8809   -4.3418   28.6820 H   0  0  0  0  0  0  0  0  0  0  0  0
  1  2  2  0
  2  3  1  0
  3  4  1  0
  4  5  2  0
  5  6  1  0
  6  7  1  0
  7  8  1  0
  8  9  1  0
  9 10  1  0
 10 11  1  0
 11 12  1  0
 12 13  1  0
 13 14  1  0
 14 15  1  0
 15 16  1  0
 16 17  1  0
  6 18  2  0
 18 19  1  0
 19 20  2  0
 20  1  1  0
 19  3  1  0
 11  7  1  0
 17 12  1  0
  1 21  1  0
  2 22  1  0
  4 23  1  0
  5 24  1  0
  8 25  1  0
  8 26  1  0
  9 27  1  0
  9 28  1  0
 10 29  1  0
 10 30  1  0
 11 31  1  0
 12 32  1  0
 13 33  1  0
 13 34  1  0
 14 35  1  0
 14 36  1  0
 16 37  1  0
 16 38  1  0
 17 39  1  0
 17 40  1  0
M  END
>  <Energy>  (878) 
1410.9913938309064

>  <compound_id>  (878) 
8798

>  <target_id>  (878) 
1

>  <reference_id>  (878) 
53

>  <inspiration_ids>  (878) 
[53, 107]

>  <energy_score>  (878) 
1349.1418325795696

>  <distance_score>  (878) 
14.14534642798897

>  <path>  (878) 
/opt/xchem-fragalysis-2/maxwin/BulkDock/SCRATCH/511013/C8798-P53/C8798-P53.minimised.mol

>  <scratch_subdir>  (878) 
/opt/xchem-fragalysis-2/maxwin/BulkDock/SCRATCH/511013/C8798-P53

>  <fragmenstein_runtime>  (878) 
10.152155876159668

>  <fragmenstein_outcome>  (878) 
too moved

>  <fragmenstein_mode>  (878) 
expansion

>  <fragmenstein_error>  (878) 


$$$$
C8798-P107
     RDKit          3D

 40 43  0  0  0  0  0  0  0  0999 V2000
   -5.4887  -11.6179   31.4885 C   0  0  0  0  0  0  0  0  0  0  0  0
   -4.9257  -12.2352   30.3448 C   0  0  0  0  0  0  0  0  0  0  0  0
   -5.6216  -11.6631   29.1411 N   0  0  0  0  0  0  0  0  0  0  0  0
   -5.7076  -11.6638   27.5182 C   0  0  0  0  0  0  0  0  0  0  0  0
   -6.0913   -9.9922   27.0963 C   0  0  0  0  0  0  0  0  0  0  0  0
   -5.2040   -8.3847   27.9295 C   0  0  0  0  0  0  0  0  0  0  0  0
   -3.5675   -7.3866   27.6161 N   0  0  0  0  0  0  0  0  0  0  0  0
   -2.3317   -7.4672   26.1895 C   0  0  0  0  0  0  0  0  0  0  0  0
   -1.3890   -6.3746   25.9705 C   0  0  0  0  0  0  0  0  0  0  0  0
   -1.1083   -5.9893   27.3840 C   0  0  0  0  0  0  0  0  0  0  0  0
   -1.8950   -6.9721   28.4562 C   0  0  0  0  0  0  0  0  0  0  0  0
   -1.0579   -6.4865   29.8274 C   0  0  0  0  0  0  0  0  0  0  0  0
    0.5270   -6.6332   29.7204 C   0  0  0  0  0  0  0  0  0  0  0  0
    1.2395   -6.3151   31.0417 C   0  0  0  0  0  0  0  0  0  0  0  0
    0.4198   -5.4689   31.8376 O   0  0  0  0  0  0  0  0  0  0  0  0
   -0.7620   -6.1489   32.2785 C   0  0  0  0  0  0  0  0  0  0  0  0
   -1.3806   -7.0600   31.1955 C   0  0  0  0  0  0  0  0  0  0  0  0
   -5.9658   -8.6393   29.2038 N   0  0  0  0  0  0  0  0  0  0  0  0
   -6.3757  -10.1665   29.8064 C   0  0  0  0  0  0  0  0  0  0  0  0
   -6.3944  -10.4782   31.1791 N   0  0  0  0  0  0  0  0  0  0  0  0
   -5.2785  -11.8280   32.5293 H   0  0  0  0  0  0  0  0  0  0  0  0
   -4.1008  -12.9078   30.2373 H   0  0  0  0  0  0  0  0  0  0  0  0
   -6.0939  -12.5492   27.0273 H   0  0  0  0  0  0  0  0  0  0  0  0
   -6.6032  -10.1766   26.1305 H   0  0  0  0  0  0  0  0  0  0  0  0
   -2.3519   -8.4270   25.6400 H   0  0  0  0  0  0  0  0  0  0  0  0
   -1.3276   -7.9248   26.4899 H   0  0  0  0  0  0  0  0  0  0  0  0
   -0.4471   -6.7377   25.5228 H   0  0  0  0  0  0  0  0  0  0  0  0
   -1.6674   -5.7732   25.1287 H   0  0  0  0  0  0  0  0  0  0  0  0
   -1.2043   -4.9381   27.6379 H   0  0  0  0  0  0  0  0  0  0  0  0
   -0.0356   -6.1659   27.4593 H   0  0  0  0  0  0  0  0  0  0  0  0
   -1.3191   -7.9023   28.4132 H   0  0  0  0  0  0  0  0  0  0  0  0
   -1.0423   -5.3853   29.8911 H   0  0  0  0  0  0  0  0  0  0  0  0
    0.8149   -7.6280   29.3632 H   0  0  0  0  0  0  0  0  0  0  0  0
    0.9327   -5.8994   29.0181 H   0  0  0  0  0  0  0  0  0  0  0  0
    2.1893   -5.8048   30.8507 H   0  0  0  0  0  0  0  0  0  0  0  0
    1.4702   -7.2324   31.5968 H   0  0  0  0  0  0  0  0  0  0  0  0
   -1.4740   -5.3740   32.5753 H   0  0  0  0  0  0  0  0  0  0  0  0
   -0.5248   -6.7329   33.1747 H   0  0  0  0  0  0  0  0  0  0  0  0
   -0.9333   -8.0600   31.2801 H   0  0  0  0  0  0  0  0  0  0  0  0
   -2.4369   -7.2135   31.3912 H   0  0  0  0  0  0  0  0  0  0  0  0
  1  2  2  0
  2  3  1  0
  3  4  1  0
  4  5  2  0
  5  6  1  0
  6  7  1  0
  7  8  1  0
  8  9  1  0
  9 10  1  0
 10 11  1  0
 11 12  1  0
 12 13  1  0
 13 14  1  0
 14 15  1  0
 15 16  1  0
 16 17  1  0
  6 18  2  0
 18 19  1  0
 19 20  2  0
 20  1  1  0
 19  3  1  0
 11  7  1  0
 17 12  1  0
  1 21  1  0
  2 22  1  0
  4 23  1  0
  5 24  1  0
  8 25  1  0
  8 26  1  0
  9 27  1  0
  9 28  1  0
 10 29  1  0
 10 30  1  0
 11 31  1  0
 12 32  1  0
 13 33  1  0
 13 34  1  0
 14 35  1  0
 14 36  1  0
 16 37  1  0
 16 38  1  0
 17 39  1  0
 17 40  1  0
M  END
>  <Energy>  (879) 
767.29483176623808

>  <compound_id>  (879) 
8798

>  <target_id>  (879) 
1

>  <reference_id>  (879) 
107

>  <inspiration_ids>  (879) 
[53, 107]

>  <energy_score>  (879) 
705.4452705148819

>  <distance_score>  (879) 
13.763482060757061

>  <path>  (879) 
/opt/xchem-fragalysis-2/maxwin/BulkDock/SCRATCH/511013/C8798-P107/C8798-P107.minimised.mol

>  <scratch_subdir>  (879) 
/opt/xchem-fragalysis-2/maxwin/BulkDock/SCRATCH/511013/C8798-P107

>  <fragmenstein_runtime>  (879) 
9.629164934158325

>  <fragmenstein_outcome>  (879) 
too moved

>  <fragmenstein_mode>  (879) 
expansion

>  <fragmenstein_error>  (879) 


$$$$
C7646-P53
     RDKit          3D

 33 36  0  0  0  0  0  0  0  0999 V2000
  -10.9732   -4.2745   27.7056 C   0  0  0  0  0  0  0  0  0  0  0  0
  -11.6413   -5.4874   28.0096 C   0  0  0  0  0  0  0  0  0  0  0  0
  -11.7914   -6.1606   26.8079 C   0  0  0  0  0  0  0  0  0  0  0  0
  -12.3591   -7.5270   26.3785 C   0  0  0  0  0  0  0  0  0  0  0  0
  -13.8664   -7.5728   26.1104 C   0  0  0  0  0  0  0  0  0  0  0  0
  -14.2035   -9.0886   25.9713 C   0  0  0  0  0  0  0  0  0  0  0  0
  -13.0513   -9.8303   26.5256 N   0  0  0  0  0  0  0  0  0  0  0  0
  -13.2120  -11.1664   26.9695 C   0  0  0  0  0  0  0  0  0  0  0  0
  -12.5557  -12.2731   26.1430 C   0  0  0  0  0  0  0  0  0  0  0  0
  -12.5521  -13.5211   26.6403 C   0  0  0  0  0  0  0  0  0  0  0  0
  -13.1613  -13.7487   27.8598 N   0  0  0  0  0  0  0  0  0  0  0  0
  -13.1149  -14.8453   28.6744 C   0  0  0  0  0  0  0  0  0  0  0  0
  -13.7590  -14.4555   29.8233 C   0  0  0  0  0  0  0  0  0  0  0  0
  -14.2737  -13.1950   29.7015 N   0  0  0  0  0  0  0  0  0  0  0  0
  -13.8597  -12.7457   28.5317 C   0  0  0  0  0  0  0  0  0  0  0  0
  -13.8927  -11.4536   28.0563 N   0  0  0  0  0  0  0  0  0  0  0  0
  -12.2700   -8.8019   27.2896 C   0  0  0  0  0  0  0  0  0  0  0  0
  -11.2378   -5.2823   25.8834 N   0  0  0  0  0  0  0  0  0  0  0  0
  -10.6813   -4.1774   26.4127 N   0  0  0  0  0  0  0  0  0  0  0  0
  -10.6859   -3.4742   28.3757 H   0  0  0  0  0  0  0  0  0  0  0  0
  -11.9696   -5.8227   28.9847 H   0  0  0  0  0  0  0  0  0  0  0  0
  -11.8725   -7.7699   25.4258 H   0  0  0  0  0  0  0  0  0  0  0  0
  -14.4248   -7.1469   26.9536 H   0  0  0  0  0  0  0  0  0  0  0  0
  -14.1520   -7.0152   25.2124 H   0  0  0  0  0  0  0  0  0  0  0  0
  -14.3262   -9.3552   24.9165 H   0  0  0  0  0  0  0  0  0  0  0  0
  -15.1319   -9.3207   26.5042 H   0  0  0  0  0  0  0  0  0  0  0  0
  -12.0726  -11.9917   25.2178 H   0  0  0  0  0  0  0  0  0  0  0  0
  -12.0522  -14.3511   26.1613 H   0  0  0  0  0  0  0  0  0  0  0  0
  -12.5881  -15.7500   28.4156 H   0  0  0  0  0  0  0  0  0  0  0  0
  -13.8677  -15.0030   30.7456 H   0  0  0  0  0  0  0  0  0  0  0  0
  -11.2476   -9.1325   27.4391 H   0  0  0  0  0  0  0  0  0  0  0  0
  -12.7257   -8.6256   28.2718 H   0  0  0  0  0  0  0  0  0  0  0  0
  -11.1795   -5.4017   24.8771 H   0  0  0  0  0  0  0  0  0  0  0  0
  1  2  1  0
  2  3  2  0
  3  4  1  0
  4  5  1  0
  5  6  1  0
  6  7  1  0
  7  8  1  0
  8  9  1  0
  9 10  2  0
 10 11  1  0
 11 12  1  0
 12 13  2  0
 13 14  1  0
 14 15  2  0
 15 16  1  0
  7 17  1  0
  3 18  1  0
 18 19  1  0
 19  1  2  0
 17  4  1  0
 16  8  2  0
 15 11  1  0
  1 20  1  0
  2 21  1  0
  4 22  1  0
  5 23  1  0
  5 24  1  0
  6 25  1  0
  6 26  1  0
  9 27  1  0
 10 28  1  0
 12 29  1  0
 13 30  1  0
 17 31  1  0
 17 32  1  0
 18 33  1  0
M  END
>  <Energy>  (880) 
35.152626537247173

>  <compound_id>  (880) 
7646

>  <target_id>  (880) 
1

>  <reference_id>  (880) 
53

>  <inspiration_ids>  (880) 
[53, 107]

>  <energy_score>  (880) 
-6.689319792710307

>  <distance_score>  (880) 
14.326792320973839

>  <path>  (880) 
/opt/xchem-fragalysis-2/maxwin/BulkDock/SCRATCH/511013/C7646-P53/C7646-P53.minimised.mol

>  <scratch_subdir>  (880) 
/opt/xchem-fragalysis-2/maxwin/BulkDock/SCRATCH/511013/C7646-P53

>  <fragmenstein_runtime>  (880) 
12.15871548652649

>  <fragmenstein_outcome>  (880) 
too moved

>  <fragmenstein_mode>  (880) 
expansion

>  <fragmenstein_error>  (880) 


$$$$
C7646-P107
     RDKit          3D

 33 36  0  0  0  0  0  0  0  0999 V2000
   -0.4465   -8.1811   28.6416 C   0  0  0  0  0  0  0  0  0  0  0  0
   -0.3727   -8.9014   27.4320 C   0  0  0  0  0  0  0  0  0  0  0  0
   -1.0889  -10.2092   27.6449 C   0  0  0  0  0  0  0  0  0  0  0  0
   -2.7067  -11.0446   26.6791 C   0  0  0  0  0  0  0  0  0  0  0  0
   -3.5133  -12.0584   25.9272 C   0  0  0  0  0  0  0  0  0  0  0  0
   -5.2800  -11.8526   27.1180 C   0  0  0  0  0  0  0  0  0  0  0  0
   -5.9686  -12.9489   27.0211 N   0  0  0  0  0  0  0  0  0  0  0  0
   -6.9285  -13.8707   27.9886 C   0  0  0  0  0  0  0  0  0  0  0  0
   -6.5426  -14.2190   29.5089 C   0  0  0  0  0  0  0  0  0  0  0  0
   -7.0526  -15.2694   30.1308 C   0  0  0  0  0  0  0  0  0  0  0  0
   -7.6918  -16.1228   29.3119 N   0  0  0  0  0  0  0  0  0  0  0  0
   -7.2752  -17.4151   29.2679 C   0  0  0  0  0  0  0  0  0  0  0  0
   -7.6966  -17.8304   28.0505 C   0  0  0  0  0  0  0  0  0  0  0  0
   -8.5092  -16.9098   27.4391 N   0  0  0  0  0  0  0  0  0  0  0  0
   -8.2572  -15.7724   28.0842 C   0  0  0  0  0  0  0  0  0  0  0  0
   -7.9858  -14.5323   27.4992 N   0  0  0  0  0  0  0  0  0  0  0  0
   -3.9808  -12.4384   27.3668 C   0  0  0  0  0  0  0  0  0  0  0  0
   -0.8059  -10.2259   29.0541 N   0  0  0  0  0  0  0  0  0  0  0  0
   -0.7246   -8.9975   29.6494 N   0  0  0  0  0  0  0  0  0  0  0  0
   -0.3399   -7.1162   28.8059 H   0  0  0  0  0  0  0  0  0  0  0  0
   -0.3431   -8.3262   26.5063 H   0  0  0  0  0  0  0  0  0  0  0  0
   -3.0201  -11.0439   28.0141 H   0  0  0  0  0  0  0  0  0  0  0  0
   -2.7552  -12.8153   25.6089 H   0  0  0  0  0  0  0  0  0  0  0  0
   -3.8366  -11.9599   24.8477 H   0  0  0  0  0  0  0  0  0  0  0  0
   -5.4001  -11.9349   28.3054 H   0  0  0  0  0  0  0  0  0  0  0  0
   -6.1704  -11.4620   26.4506 H   0  0  0  0  0  0  0  0  0  0  0  0
   -5.7777  -13.6350   29.9984 H   0  0  0  0  0  0  0  0  0  0  0  0
   -6.7457  -15.6254   31.0994 H   0  0  0  0  0  0  0  0  0  0  0  0
   -6.5952  -17.8488   29.9910 H   0  0  0  0  0  0  0  0  0  0  0  0
   -7.2968  -18.7163   27.6030 H   0  0  0  0  0  0  0  0  0  0  0  0
   -3.8116  -12.3525   28.5533 H   0  0  0  0  0  0  0  0  0  0  0  0
   -3.3260  -13.3398   26.8891 H   0  0  0  0  0  0  0  0  0  0  0  0
   -0.9799  -11.0225   29.6584 H   0  0  0  0  0  0  0  0  0  0  0  0
  1  2  1  0
  2  3  2  0
  3  4  1  0
  4  5  1  0
  5  6  1  0
  6  7  1  0
  7  8  1  0
  8  9  1  0
  9 10  2  0
 10 11  1  0
 11 12  1  0
 12 13  2  0
 13 14  1  0
 14 15  2  0
 15 16  1  0
  7 17  1  0
  3 18  1  0
 18 19  1  0
 19  1  2  0
 17  4  1  0
 16  8  2  0
 15 11  1  0
  1 20  1  0
  2 21  1  0
  4 22  1  0
  5 23  1  0
  5 24  1  0
  6 25  1  0
  6 26  1  0
  9 27  1  0
 10 28  1  0
 12 29  1  0
 13 30  1  0
 17 31  1  0
 17 32  1  0
 18 33  1  0
M  END
>  <Energy>  (881) 
989.13430409726311

>  <compound_id>  (881) 
7646

>  <target_id>  (881) 
1

>  <reference_id>  (881) 
107

>  <inspiration_ids>  (881) 
[53, 107]

>  <energy_score>  (881) 
947.292357767306

>  <distance_score>  (881) 
12.003768655384963

>  <path>  (881) 
/opt/xchem-fragalysis-2/maxwin/BulkDock/SCRATCH/511013/C7646-P107/C7646-P107.minimised.mol

>  <scratch_subdir>  (881) 
/opt/xchem-fragalysis-2/maxwin/BulkDock/SCRATCH/511013/C7646-P107

>  <fragmenstein_runtime>  (881) 
8.597970485687256

>  <fragmenstein_outcome>  (881) 
too moved

>  <fragmenstein_mode>  (881) 
expansion

>  <fragmenstein_error>  (881) 


$$$$
C8802-P53
     RDKit          3D

 40 43  0  0  0  0  0  0  0  0999 V2000
   -6.5316   -9.1305   22.7719 O   0  0  0  0  0  0  0  0  0  0  0  0
   -5.5347   -9.6335   22.3110 C   0  0  0  0  0  0  0  0  0  0  0  0
   -4.3528   -8.5822   22.3030 C   0  0  0  0  0  0  0  0  0  0  0  0
   -4.6616   -7.3206   21.5063 C   0  0  0  0  0  0  0  0  0  0  0  0
   -3.8405   -6.2689   21.6607 C   0  0  0  0  0  0  0  0  0  0  0  0
   -2.7442   -6.3969   22.4896 N   0  0  0  0  0  0  0  0  0  0  0  0
   -1.7493   -5.4986   22.7705 C   0  0  0  0  0  0  0  0  0  0  0  0
   -0.8767   -6.1867   23.5750 C   0  0  0  0  0  0  0  0  0  0  0  0
   -1.3523   -7.4378   23.8665 N   0  0  0  0  0  0  0  0  0  0  0  0
   -2.4662   -7.5859   23.1696 C   0  0  0  0  0  0  0  0  0  0  0  0
   -3.2962   -8.6904   23.0747 N   0  0  0  0  0  0  0  0  0  0  0  0
   -5.3292  -10.9494   21.7131 N   0  0  0  0  0  0  0  0  0  0  0  0
   -4.9168  -11.9470   22.7666 C   0  0  0  0  0  0  0  0  0  0  0  0
   -4.7199  -13.3886   22.2750 C   0  0  0  0  0  0  0  0  0  0  0  0
   -5.7703  -13.5070   21.2218 C   0  0  0  0  0  0  0  0  0  0  0  0
   -6.6472  -14.7026   21.2037 N   0  0  0  0  0  0  0  0  0  0  0  0
   -5.9959  -15.9949   20.9548 C   0  0  0  0  0  0  0  0  0  0  0  0
   -6.9784  -17.0757   21.4307 C   0  0  0  0  0  0  0  0  0  0  0  0
   -8.1989  -16.3082   21.8992 C   0  0  0  0  0  0  0  0  0  0  0  0
   -7.6356  -14.9376   22.2418 C   0  0  0  0  0  0  0  0  0  0  0  0
   -6.3429  -12.0756   21.3745 C   0  0  0  0  0  0  0  0  0  0  0  0
   -5.5535   -7.3064   20.8928 H   0  0  0  0  0  0  0  0  0  0  0  0
   -3.9892   -5.3226   21.1573 H   0  0  0  0  0  0  0  0  0  0  0  0
   -1.7196   -4.5074   22.3414 H   0  0  0  0  0  0  0  0  0  0  0  0
    0.0800   -5.8633   23.9551 H   0  0  0  0  0  0  0  0  0  0  0  0
   -3.9621  -11.5893   23.1729 H   0  0  0  0  0  0  0  0  0  0  0  0
   -5.6170  -11.8964   23.6138 H   0  0  0  0  0  0  0  0  0  0  0  0
   -3.7223  -13.5124   21.8371 H   0  0  0  0  0  0  0  0  0  0  0  0
   -4.8195  -14.1326   23.0577 H   0  0  0  0  0  0  0  0  0  0  0  0
   -5.2571  -13.5138   20.2492 H   0  0  0  0  0  0  0  0  0  0  0  0
   -5.7929  -16.1087   19.8844 H   0  0  0  0  0  0  0  0  0  0  0  0
   -5.0426  -16.0896   21.4819 H   0  0  0  0  0  0  0  0  0  0  0  0
   -6.5490  -17.6496   22.2569 H   0  0  0  0  0  0  0  0  0  0  0  0
   -7.2332  -17.7780   20.6306 H   0  0  0  0  0  0  0  0  0  0  0  0
   -8.7008  -16.7823   22.7458 H   0  0  0  0  0  0  0  0  0  0  0  0
   -8.9233  -16.2254   21.0794 H   0  0  0  0  0  0  0  0  0  0  0  0
   -7.1621  -14.9916   23.2202 H   0  0  0  0  0  0  0  0  0  0  0  0
   -8.4287  -14.1892   22.2178 H   0  0  0  0  0  0  0  0  0  0  0  0
   -6.7813  -11.7662   20.4161 H   0  0  0  0  0  0  0  0  0  0  0  0
   -7.1829  -12.0145   22.0792 H   0  0  0  0  0  0  0  0  0  0  0  0
  1  2  2  0
  2  3  1  0
  3  4  1  0
  4  5  2  0
  5  6  1  0
  6  7  1  0
  7  8  2  0
  8  9  1  0
  9 10  2  0
 10 11  1  0
  2 12  1  0
 12 13  1  0
 13 14  1  0
 14 15  1  0
 15 16  1  0
 16 17  1  0
 17 18  1  0
 18 19  1  0
 19 20  1  0
 15 21  1  0
 11  3  2  0
 21 12  1  0
 10  6  1  0
 20 16  1  0
  4 22  1  0
  5 23  1  0
  7 24  1  0
  8 25  1  0
 13 26  1  0
 13 27  1  0
 14 28  1  0
 14 29  1  0
 15 30  1  0
 17 31  1  0
 17 32  1  0
 18 33  1  0
 18 34  1  0
 19 35  1  0
 19 36  1  0
 20 37  1  0
 20 38  1  0
 21 39  1  0
 21 40  1  0
M  END
>  <Energy>  (882) 
155.54728219470667

>  <compound_id>  (882) 
8802

>  <target_id>  (882) 
1

>  <reference_id>  (882) 
53

>  <inspiration_ids>  (882) 
[53, 107]

>  <energy_score>  (882) 
25.766662252854076

>  <distance_score>  (882) 
13.426112632695366

>  <path>  (882) 
/opt/xchem-fragalysis-2/maxwin/BulkDock/SCRATCH/511013/C8802-P53/C8802-P53.minimised.mol

>  <scratch_subdir>  (882) 
/opt/xchem-fragalysis-2/maxwin/BulkDock/SCRATCH/511013/C8802-P53

>  <fragmenstein_runtime>  (882) 
13.26295781135559

>  <fragmenstein_outcome>  (882) 
too moved

>  <fragmenstein_mode>  (882) 
expansion

>  <fragmenstein_error>  (882) 


$$$$
C8802-P107
     RDKit          3D

 40 43  0  0  0  0  0  0  0  0999 V2000
   -7.9671   -4.6238   25.3771 O   0  0  0  0  0  0  0  0  0  0  0  0
   -7.6237   -5.4613   26.1738 C   0  0  0  0  0  0  0  0  0  0  0  0
   -6.3835   -5.0068   27.0209 C   0  0  0  0  0  0  0  0  0  0  0  0
   -6.6542   -4.6285   28.4493 C   0  0  0  0  0  0  0  0  0  0  0  0
   -5.6185   -4.1533   29.1545 C   0  0  0  0  0  0  0  0  0  0  0  0
   -4.3991   -3.9791   28.5347 N   0  0  0  0  0  0  0  0  0  0  0  0
   -3.2246   -3.5080   29.0515 C   0  0  0  0  0  0  0  0  0  0  0  0
   -2.3681   -3.4524   27.9869 C   0  0  0  0  0  0  0  0  0  0  0  0
   -2.9682   -3.9530   26.8511 N   0  0  0  0  0  0  0  0  0  0  0  0
   -4.2030   -4.2812   27.1922 C   0  0  0  0  0  0  0  0  0  0  0  0
   -5.2160   -4.8273   26.4359 N   0  0  0  0  0  0  0  0  0  0  0  0
   -8.1171   -6.8101   26.3952 N   0  0  0  0  0  0  0  0  0  0  0  0
   -9.2239   -6.8041   27.4142 C   0  0  0  0  0  0  0  0  0  0  0  0
   -9.7975   -8.1821   27.7335 C   0  0  0  0  0  0  0  0  0  0  0  0
   -9.7649   -8.8422   26.3862 C   0  0  0  0  0  0  0  0  0  0  0  0
  -11.0394   -9.3820   25.8408 N   0  0  0  0  0  0  0  0  0  0  0  0
  -10.8781  -10.3982   24.7883 C   0  0  0  0  0  0  0  0  0  0  0  0
  -11.6065  -11.6622   25.2334 C   0  0  0  0  0  0  0  0  0  0  0  0
  -12.6886  -11.1259   26.1418 C   0  0  0  0  0  0  0  0  0  0  0  0
  -12.0842   -9.8614   26.7561 C   0  0  0  0  0  0  0  0  0  0  0  0
   -9.1539   -7.6408   25.6150 C   0  0  0  0  0  0  0  0  0  0  0  0
   -7.6461   -4.7283   28.8606 H   0  0  0  0  0  0  0  0  0  0  0  0
   -5.6988   -3.8667   30.1952 H   0  0  0  0  0  0  0  0  0  0  0  0
   -3.1126   -3.2309   30.0894 H   0  0  0  0  0  0  0  0  0  0  0  0
   -1.3445   -3.0974   27.9863 H   0  0  0  0  0  0  0  0  0  0  0  0
  -10.0038   -6.0738   27.1373 H   0  0  0  0  0  0  0  0  0  0  0  0
   -8.8039   -6.4112   28.3447 H   0  0  0  0  0  0  0  0  0  0  0  0
  -10.7834   -8.0764   28.1937 H   0  0  0  0  0  0  0  0  0  0  0  0
   -9.1501   -8.7104   28.4370 H   0  0  0  0  0  0  0  0  0  0  0  0
   -8.9987   -9.6206   26.3930 H   0  0  0  0  0  0  0  0  0  0  0  0
  -11.3558  -10.0115   23.8797 H   0  0  0  0  0  0  0  0  0  0  0  0
   -9.8369  -10.5820   24.5348 H   0  0  0  0  0  0  0  0  0  0  0  0
  -12.0200  -12.2185   24.3867 H   0  0  0  0  0  0  0  0  0  0  0  0
  -10.9430  -12.3363   25.7803 H   0  0  0  0  0  0  0  0  0  0  0  0
  -13.5690  -10.8583   25.5447 H   0  0  0  0  0  0  0  0  0  0  0  0
  -13.0018  -11.8541   26.8949 H   0  0  0  0  0  0  0  0  0  0  0  0
  -12.8580   -9.0930   26.8651 H   0  0  0  0  0  0  0  0  0  0  0  0
  -11.7194  -10.0648   27.7607 H   0  0  0  0  0  0  0  0  0  0  0  0
   -8.6081   -8.0173   24.7393 H   0  0  0  0  0  0  0  0  0  0  0  0
   -9.9161   -6.9671   25.1869 H   0  0  0  0  0  0  0  0  0  0  0  0
  1  2  2  0
  2  3  1  0
  3  4  1  0
  4  5  2  0
  5  6  1  0
  6  7  1  0
  7  8  2  0
  8  9  1  0
  9 10  2  0
 10 11  1  0
  2 12  1  0
 12 13  1  0
 13 14  1  0
 14 15  1  0
 15 16  1  0
 16 17  1  0
 17 18  1  0
 18 19  1  0
 19 20  1  0
 15 21  1  0
 11  3  2  0
 21 12  1  0
 10  6  1  0
 20 16  1  0
  4 22  1  0
  5 23  1  0
  7 24  1  0
  8 25  1  0
 13 26  1  0
 13 27  1  0
 14 28  1  0
 14 29  1  0
 15 30  1  0
 17 31  1  0
 17 32  1  0
 18 33  1  0
 18 34  1  0
 19 35  1  0
 19 36  1  0
 20 37  1  0
 20 38  1  0
 21 39  1  0
 21 40  1  0
M  END
>  <Energy>  (883) 
160.23491792428337

>  <compound_id>  (883) 
8802

>  <target_id>  (883) 
1

>  <reference_id>  (883) 
107

>  <inspiration_ids>  (883) 
[53, 107]

>  <energy_score>  (883) 
30.454297982432706

>  <distance_score>  (883) 
12.987887725880551

>  <path>  (883) 
/opt/xchem-fragalysis-2/maxwin/BulkDock/SCRATCH/511013/C8802-P107/C8802-P107.minimised.mol

>  <scratch_subdir>  (883) 
/opt/xchem-fragalysis-2/maxwin/BulkDock/SCRATCH/511013/C8802-P107

>  <fragmenstein_runtime>  (883) 
17.122808694839478

>  <fragmenstein_outcome>  (883) 
too moved

>  <fragmenstein_mode>  (883) 
expansion

>  <fragmenstein_error>  (883) 


$$$$
C8804-P53
     RDKit          3D

 36 38  0  0  0  0  0  0  0  0999 V2000
   -6.2511  -12.4626   27.8123 C   0  0  0  0  0  0  0  0  0  0  0  0
   -6.8881  -12.4388   26.1780 C   0  0  0  0  0  0  0  0  0  0  0  0
   -7.0891  -11.3223   25.6459 N   0  0  0  0  0  0  0  0  0  0  0  0
   -8.4695  -10.2954   25.3977 C   0  0  0  0  0  0  0  0  0  0  0  0
   -9.6088  -10.4561   25.5950 O   0  0  0  0  0  0  0  0  0  0  0  0
   -8.1321   -8.7809   24.9089 C   0  0  0  0  0  0  0  0  0  0  0  0
   -8.2555   -8.3565   23.4700 C   0  0  0  0  0  0  0  0  0  0  0  0
   -7.9070   -7.0829   23.1744 C   0  0  0  0  0  0  0  0  0  0  0  0
   -7.4965   -6.2147   24.1798 N   0  0  0  0  0  0  0  0  0  0  0  0
   -7.0427   -4.9183   24.1184 C   0  0  0  0  0  0  0  0  0  0  0  0
   -6.7310   -4.5801   25.4129 C   0  0  0  0  0  0  0  0  0  0  0  0
   -6.9747   -5.6369   26.2566 N   0  0  0  0  0  0  0  0  0  0  0  0
   -7.4735   -6.6126   25.5102 C   0  0  0  0  0  0  0  0  0  0  0  0
   -7.8326   -7.8978   25.8574 N   0  0  0  0  0  0  0  0  0  0  0  0
   -7.2363  -13.3321   26.2532 C   0  0  0  0  0  0  0  0  0  0  0  0
   -8.6728  -13.9092   27.1936 C   0  0  0  0  0  0  0  0  0  0  0  0
   -9.0865  -15.3992   26.9414 C   0  0  0  0  0  0  0  0  0  0  0  0
   -8.6719  -15.9185   25.7114 N   0  0  0  0  0  0  0  0  0  0  0  0
   -8.0518  -14.7576   25.1749 C   0  0  0  0  0  0  0  0  0  0  0  0
   -6.4883  -13.4127   28.3547 H   0  0  0  0  0  0  0  0  0  0  0  0
   -5.9003  -11.8164   28.6232 H   0  0  0  0  0  0  0  0  0  0  0  0
   -5.2642  -12.0142   27.4439 H   0  0  0  0  0  0  0  0  0  0  0  0
   -6.0423  -11.7337   26.1774 H   0  0  0  0  0  0  0  0  0  0  0  0
   -6.2833  -12.5848   25.0416 H   0  0  0  0  0  0  0  0  0  0  0  0
   -8.5920   -9.0831   22.7432 H   0  0  0  0  0  0  0  0  0  0  0  0
   -7.9344   -6.6914   22.1650 H   0  0  0  0  0  0  0  0  0  0  0  0
   -6.9826   -4.3738   23.1877 H   0  0  0  0  0  0  0  0  0  0  0  0
   -6.3407   -3.6422   25.7849 H   0  0  0  0  0  0  0  0  0  0  0  0
   -6.3875  -13.8902   26.6447 H   0  0  0  0  0  0  0  0  0  0  0  0
   -8.4468  -13.8472   28.2401 H   0  0  0  0  0  0  0  0  0  0  0  0
   -9.5554  -13.3335   26.9054 H   0  0  0  0  0  0  0  0  0  0  0  0
  -10.1764  -15.4888   26.9868 H   0  0  0  0  0  0  0  0  0  0  0  0
   -8.5730  -16.0669   27.6275 H   0  0  0  0  0  0  0  0  0  0  0  0
   -9.4564  -16.2526   25.1479 H   0  0  0  0  0  0  0  0  0  0  0  0
   -7.5443  -14.9720   24.2484 H   0  0  0  0  0  0  0  0  0  0  0  0
   -9.0646  -14.5104   24.8911 H   0  0  0  0  0  0  0  0  0  0  0  0
  1  2  1  0
  2  3  1  0
  3  4  1  0
  4  5  2  0
  4  6  1  0
  6  7  1  0
  7  8  2  0
  8  9  1  0
  9 10  1  0
 10 11  2  0
 11 12  1  0
 12 13  2  0
 13 14  1  0
  3 15  1  0
 15 16  1  0
 16 17  1  0
 17 18  1  0
 18 19  1  0
 14  6  2  0
 19 15  1  0
 13  9  1  0
  1 20  1  0
  1 21  1  0
  1 22  1  0
  2 23  1  0
  2 24  1  0
  7 25  1  0
  8 26  1  0
 10 27  1  0
 11 28  1  0
 15 29  1  0
 16 30  1  0
 16 31  1  0
 17 32  1  0
 17 33  1  0
 18 34  1  0
 19 35  1  0
 19 36  1  0
M  END
>  <Energy>  (884) 
1119.4073364374467

>  <compound_id>  (884) 
8804

>  <target_id>  (884) 
1

>  <reference_id>  (884) 
53

>  <inspiration_ids>  (884) 
[53, 107]

>  <energy_score>  (884) 
999.2753657849764

>  <distance_score>  (884) 
13.001889611683296

>  <path>  (884) 
/opt/xchem-fragalysis-2/maxwin/BulkDock/SCRATCH/511013/C8804-P53/C8804-P53.minimised.mol

>  <scratch_subdir>  (884) 
/opt/xchem-fragalysis-2/maxwin/BulkDock/SCRATCH/511013/C8804-P53

>  <fragmenstein_runtime>  (884) 
13.225080490112305

>  <fragmenstein_outcome>  (884) 
too moved

>  <fragmenstein_mode>  (884) 
expansion

>  <fragmenstein_error>  (884) 


$$$$
C8804-P107
     RDKit          3D

 36 38  0  0  0  0  0  0  0  0999 V2000
   -7.3391   -4.4325   31.1166 C   0  0  0  0  0  0  0  0  0  0  0  0
   -5.9940   -5.7088   31.2363 C   0  0  0  0  0  0  0  0  0  0  0  0
   -4.8347   -5.1617   30.9657 N   0  0  0  0  0  0  0  0  0  0  0  0
   -4.3585   -3.7307   31.5595 C   0  0  0  0  0  0  0  0  0  0  0  0
   -4.8286   -3.0213   32.3546 O   0  0  0  0  0  0  0  0  0  0  0  0
   -3.0684   -3.1318   30.8567 C   0  0  0  0  0  0  0  0  0  0  0  0
   -2.5121   -3.7682   29.6147 C   0  0  0  0  0  0  0  0  0  0  0  0
   -1.5731   -3.0631   28.9557 C   0  0  0  0  0  0  0  0  0  0  0  0
   -1.1726   -1.8240   29.4335 N   0  0  0  0  0  0  0  0  0  0  0  0
   -0.3150   -0.9016   28.8970 C   0  0  0  0  0  0  0  0  0  0  0  0
   -0.3418    0.1611   29.7680 C   0  0  0  0  0  0  0  0  0  0  0  0
   -1.1735   -0.0989   30.8285 N   0  0  0  0  0  0  0  0  0  0  0  0
   -1.6679   -1.3061   30.6223 C   0  0  0  0  0  0  0  0  0  0  0  0
   -2.6066   -1.9973   31.3427 N   0  0  0  0  0  0  0  0  0  0  0  0
   -6.2889   -6.4471   31.4072 C   0  0  0  0  0  0  0  0  0  0  0  0
   -5.5057   -7.7822   32.1756 C   0  0  0  0  0  0  0  0  0  0  0  0
   -6.5320   -8.9200   32.0872 C   0  0  0  0  0  0  0  0  0  0  0  0
   -7.3310   -8.7110   30.8854 N   0  0  0  0  0  0  0  0  0  0  0  0
   -6.8584   -7.5321   30.1677 C   0  0  0  0  0  0  0  0  0  0  0  0
   -8.1777   -4.8699   30.5633 H   0  0  0  0  0  0  0  0  0  0  0  0
   -6.9500   -3.5446   30.6089 H   0  0  0  0  0  0  0  0  0  0  0  0
   -7.6730   -4.1749   32.1290 H   0  0  0  0  0  0  0  0  0  0  0  0
   -5.8367   -5.0850   32.3350 H   0  0  0  0  0  0  0  0  0  0  0  0
   -6.0656   -5.4187   30.0171 H   0  0  0  0  0  0  0  0  0  0  0  0
   -2.8824   -4.7310   29.2954 H   0  0  0  0  0  0  0  0  0  0  0  0
   -1.1007   -3.4103   28.0494 H   0  0  0  0  0  0  0  0  0  0  0  0
    0.2164   -1.0671   27.9705 H   0  0  0  0  0  0  0  0  0  0  0  0
    0.1962    1.0977   29.6922 H   0  0  0  0  0  0  0  0  0  0  0  0
   -7.1943   -6.3567   32.3084 H   0  0  0  0  0  0  0  0  0  0  0  0
   -4.5841   -8.0000   31.6263 H   0  0  0  0  0  0  0  0  0  0  0  0
   -5.2555   -7.5134   33.2073 H   0  0  0  0  0  0  0  0  0  0  0  0
   -7.2001   -8.8758   32.9543 H   0  0  0  0  0  0  0  0  0  0  0  0
   -6.0519   -9.9008   32.1068 H   0  0  0  0  0  0  0  0  0  0  0  0
   -7.3580   -9.5332   30.2801 H   0  0  0  0  0  0  0  0  0  0  0  0
   -7.6699   -7.0581   29.6061 H   0  0  0  0  0  0  0  0  0  0  0  0
   -6.0282   -7.7584   29.4914 H   0  0  0  0  0  0  0  0  0  0  0  0
  1  2  1  0
  2  3  1  0
  3  4  1  0
  4  5  2  0
  4  6  1  0
  6  7  1  0
  7  8  2  0
  8  9  1  0
  9 10  1  0
 10 11  2  0
 11 12  1  0
 12 13  2  0
 13 14  1  0
  3 15  1  0
 15 16  1  0
 16 17  1  0
 17 18  1  0
 18 19  1  0
 14  6  2  0
 19 15  1  0
 13  9  1  0
  1 20  1  0
  1 21  1  0
  1 22  1  0
  2 23  1  0
  2 24  1  0
  7 25  1  0
  8 26  1  0
 10 27  1  0
 11 28  1  0
 15 29  1  0
 16 30  1  0
 16 31  1  0
 17 32  1  0
 17 33  1  0
 18 34  1  0
 19 35  1  0
 19 36  1  0
M  END
>  <Energy>  (885) 
874.55608596615036

>  <compound_id>  (885) 
8804

>  <target_id>  (885) 
1

>  <reference_id>  (885) 
107

>  <inspiration_ids>  (885) 
[53, 107]

>  <energy_score>  (885) 
754.4241153136819

>  <distance_score>  (885) 
12.814090852380724

>  <path>  (885) 
/opt/xchem-fragalysis-2/maxwin/BulkDock/SCRATCH/511013/C8804-P107/C8804-P107.minimised.mol

>  <scratch_subdir>  (885) 
/opt/xchem-fragalysis-2/maxwin/BulkDock/SCRATCH/511013/C8804-P107

>  <fragmenstein_runtime>  (885) 
13.317416191101074

>  <fragmenstein_outcome>  (885) 
too moved

>  <fragmenstein_mode>  (885) 
expansion

>  <fragmenstein_error>  (885) 


$$$$
C8805-P53
     RDKit          3D

 45 47  0  0  0  0  0  0  0  0999 V2000
   -6.2533  -13.9748   30.0887 C   0  0  0  0  0  0  0  0  0  0  0  0
   -7.2734  -13.7331   28.6975 C   0  0  0  0  0  0  0  0  0  0  0  0
   -6.6282  -13.6746   27.5356 N   0  0  0  0  0  0  0  0  0  0  0  0
   -5.8358  -12.2908   27.0796 C   0  0  0  0  0  0  0  0  0  0  0  0
   -6.2257  -11.3472   26.4345 O   0  0  0  0  0  0  0  0  0  0  0  0
   -3.9505  -11.9976   27.7964 C   0  0  0  0  0  0  0  0  0  0  0  0
   -2.9003  -12.2059   26.7775 C   0  0  0  0  0  0  0  0  0  0  0  0
   -2.0593  -11.2661   27.1318 C   0  0  0  0  0  0  0  0  0  0  0  0
   -1.5441  -10.7110   28.2999 N   0  0  0  0  0  0  0  0  0  0  0  0
   -0.5236   -9.5662   28.6722 C   0  0  0  0  0  0  0  0  0  0  0  0
   -0.5430   -9.4995   30.0073 C   0  0  0  0  0  0  0  0  0  0  0  0
   -1.5487  -10.3388   30.3500 N   0  0  0  0  0  0  0  0  0  0  0  0
   -2.1941  -11.1179   29.3760 C   0  0  0  0  0  0  0  0  0  0  0  0
   -3.4729  -11.8474   29.1262 N   0  0  0  0  0  0  0  0  0  0  0  0
   -8.4232  -14.3238   27.0612 C   0  0  0  0  0  0  0  0  0  0  0  0
   -9.9456  -13.9611   27.4946 C   0  0  0  0  0  0  0  0  0  0  0  0
  -11.1551  -15.1607   27.4341 C   0  0  0  0  0  0  0  0  0  0  0  0
  -10.6973  -16.8745   27.3526 N   0  0  0  0  0  0  0  0  0  0  0  0
  -11.3606  -17.9133   28.8433 C   0  0  0  0  0  0  0  0  0  0  0  0
  -10.6227  -17.9425   29.7194 O   0  0  0  0  0  0  0  0  0  0  0  0
  -12.5115  -18.8700   29.1635 C   0  0  0  0  0  0  0  0  0  0  0  0
  -11.3018  -20.4559   30.6219 S   0  0  0  0  0  0  0  0  0  0  0  0
  -10.4476  -19.3536   32.6419 C   0  0  0  0  0  0  0  0  0  0  0  0
   -9.0728  -16.0699   27.0547 C   0  0  0  0  0  0  0  0  0  0  0  0
   -6.6845  -13.7856   31.0648 H   0  0  0  0  0  0  0  0  0  0  0  0
   -5.4280  -13.3334   29.9179 H   0  0  0  0  0  0  0  0  0  0  0  0
   -5.8063  -14.9690   30.1906 H   0  0  0  0  0  0  0  0  0  0  0  0
   -8.2666  -14.0328   28.9525 H   0  0  0  0  0  0  0  0  0  0  0  0
   -6.8465  -14.6832   28.5234 H   0  0  0  0  0  0  0  0  0  0  0  0
   -3.0968  -12.3696   25.7365 H   0  0  0  0  0  0  0  0  0  0  0  0
   -2.0367  -10.4855   26.4004 H   0  0  0  0  0  0  0  0  0  0  0  0
   -0.0136   -9.0157   27.8917 H   0  0  0  0  0  0  0  0  0  0  0  0
   -0.0108   -8.8828   30.7176 H   0  0  0  0  0  0  0  0  0  0  0  0
   -8.2085  -14.4056   26.0009 H   0  0  0  0  0  0  0  0  0  0  0  0
   -9.9793  -13.7400   28.5171 H   0  0  0  0  0  0  0  0  0  0  0  0
  -10.3997  -13.0723   27.0561 H   0  0  0  0  0  0  0  0  0  0  0  0
  -11.8856  -14.9871   28.2370 H   0  0  0  0  0  0  0  0  0  0  0  0
  -11.7035  -14.9059   26.5259 H   0  0  0  0  0  0  0  0  0  0  0  0
  -12.6434  -17.9211   29.6180 H   0  0  0  0  0  0  0  0  0  0  0  0
  -13.3685  -19.3468   29.6160 H   0  0  0  0  0  0  0  0  0  0  0  0
   -9.6885  -18.6501   32.9897 H   0  0  0  0  0  0  0  0  0  0  0  0
  -11.3443  -19.0194   33.2517 H   0  0  0  0  0  0  0  0  0  0  0  0
   -9.8778  -19.9651   33.4212 H   0  0  0  0  0  0  0  0  0  0  0  0
   -9.0075  -16.3202   25.9873 H   0  0  0  0  0  0  0  0  0  0  0  0
   -8.3571  -16.7234   27.5573 H   0  0  0  0  0  0  0  0  0  0  0  0
  1  2  1  0
  2  3  1  0
  3  4  1  0
  4  5  2  0
  4  6  1  0
  6  7  1  0
  7  8  2  0
  8  9  1  0
  9 10  1  0
 10 11  2  0
 11 12  1  0
 12 13  2  0
 13 14  1  0
  3 15  1  0
 15 16  1  0
 16 17  1  0
 17 18  1  0
 18 19  1  0
 19 20  2  0
 19 21  1  0
 21 22  1  0
 22 23  1  0
 18 24  1  0
 14  6  2  0
 24 15  1  0
 13  9  1  0
  1 25  1  0
  1 26  1  0
  1 27  1  0
  2 28  1  0
  2 29  1  0
  7 30  1  0
  8 31  1  0
 10 32  1  0
 11 33  1  0
 15 34  1  0
 16 35  1  0
 16 36  1  0
 17 37  1  0
 17 38  1  0
 21 39  1  0
 21 40  1  0
 23 41  1  0
 23 42  1  0
 23 43  1  0
 24 44  1  0
 24 45  1  0
M  END
>  <Energy>  (886) 
1109.7767607530395

>  <compound_id>  (886) 
8805

>  <target_id>  (886) 
1

>  <reference_id>  (886) 
53

>  <inspiration_ids>  (886) 
[53, 107]

>  <energy_score>  (886) 
958.7603809270759

>  <distance_score>  (886) 
13.108741539220603

>  <path>  (886) 
/opt/xchem-fragalysis-2/maxwin/BulkDock/SCRATCH/511013/C8805-P53/C8805-P53.minimised.mol

>  <scratch_subdir>  (886) 
/opt/xchem-fragalysis-2/maxwin/BulkDock/SCRATCH/511013/C8805-P53

>  <fragmenstein_runtime>  (886) 
15.276137828826904

>  <fragmenstein_outcome>  (886) 
too moved

>  <fragmenstein_mode>  (886) 
expansion

>  <fragmenstein_error>  (886) 


$$$$
C8805-P107
     RDKit          3D

 45 47  0  0  0  0  0  0  0  0999 V2000
   -3.1484   -8.9679   31.8869 C   0  0  0  0  0  0  0  0  0  0  0  0
   -4.6796   -9.0480   31.8792 C   0  0  0  0  0  0  0  0  0  0  0  0
   -6.0144   -9.1179   30.6014 N   0  0  0  0  0  0  0  0  0  0  0  0
   -5.6206   -7.9622   29.1680 C   0  0  0  0  0  0  0  0  0  0  0  0
   -5.0259   -8.1742   28.1456 O   0  0  0  0  0  0  0  0  0  0  0  0
   -6.1937   -6.0794   29.2124 C   0  0  0  0  0  0  0  0  0  0  0  0
   -5.9572   -4.4061   30.0741 C   0  0  0  0  0  0  0  0  0  0  0  0
   -6.6852   -3.3222   29.7274 C   0  0  0  0  0  0  0  0  0  0  0  0
   -7.2483   -3.2195   28.4869 N   0  0  0  0  0  0  0  0  0  0  0  0
   -8.1219   -2.3118   27.9531 C   0  0  0  0  0  0  0  0  0  0  0  0
   -8.1446   -2.6173   26.6120 C   0  0  0  0  0  0  0  0  0  0  0  0
   -7.3776   -3.7262   26.3601 N   0  0  0  0  0  0  0  0  0  0  0  0
   -6.9823   -4.1657   27.5388 C   0  0  0  0  0  0  0  0  0  0  0  0
   -6.4914   -5.3998   27.8865 N   0  0  0  0  0  0  0  0  0  0  0  0
   -5.7012  -11.0940   30.8062 C   0  0  0  0  0  0  0  0  0  0  0  0
   -4.6104  -11.9429   30.0775 C   0  0  0  0  0  0  0  0  0  0  0  0
   -4.5636  -13.3811   30.1863 C   0  0  0  0  0  0  0  0  0  0  0  0
   -5.7722  -14.2327   30.2046 N   0  0  0  0  0  0  0  0  0  0  0  0
   -5.5256  -15.9063   30.6108 C   0  0  0  0  0  0  0  0  0  0  0  0
   -5.5735  -16.3859   31.7492 O   0  0  0  0  0  0  0  0  0  0  0  0
   -5.0826  -16.9555   29.6448 C   0  0  0  0  0  0  0  0  0  0  0  0
   -4.1063  -18.4104   30.8695 S   0  0  0  0  0  0  0  0  0  0  0  0
   -5.0251  -18.6556   32.4143 C   0  0  0  0  0  0  0  0  0  0  0  0
   -6.2229  -12.9607   31.1574 C   0  0  0  0  0  0  0  0  0  0  0  0
   -2.8187   -8.9286   32.9346 H   0  0  0  0  0  0  0  0  0  0  0  0
   -2.6418   -9.8361   31.4741 H   0  0  0  0  0  0  0  0  0  0  0  0
   -2.7702   -8.0375   31.4584 H   0  0  0  0  0  0  0  0  0  0  0  0
   -4.8769   -8.1347   32.3863 H   0  0  0  0  0  0  0  0  0  0  0  0
   -4.9807   -9.8043   32.6050 H   0  0  0  0  0  0  0  0  0  0  0  0
   -5.4775   -4.2555   31.0264 H   0  0  0  0  0  0  0  0  0  0  0  0
   -6.9001   -2.5438   30.4538 H   0  0  0  0  0  0  0  0  0  0  0  0
   -8.5822   -1.5257   28.5321 H   0  0  0  0  0  0  0  0  0  0  0  0
   -8.6663   -2.1015   25.8159 H   0  0  0  0  0  0  0  0  0  0  0  0
   -6.2449  -10.7966   29.8821 H   0  0  0  0  0  0  0  0  0  0  0  0
   -4.9264  -11.9743   29.0422 H   0  0  0  0  0  0  0  0  0  0  0  0
   -3.5870  -11.5904   30.2733 H   0  0  0  0  0  0  0  0  0  0  0  0
   -3.7967  -14.1615   30.0199 H   0  0  0  0  0  0  0  0  0  0  0  0
   -3.7909  -13.1514   29.4582 H   0  0  0  0  0  0  0  0  0  0  0  0
   -5.8066  -17.4759   29.1025 H   0  0  0  0  0  0  0  0  0  0  0  0
   -4.1873  -16.7190   29.0843 H   0  0  0  0  0  0  0  0  0  0  0  0
   -4.5155  -18.1219   33.2228 H   0  0  0  0  0  0  0  0  0  0  0  0
   -6.0636  -18.3475   32.3909 H   0  0  0  0  0  0  0  0  0  0  0  0
   -4.9890  -19.7202   32.6642 H   0  0  0  0  0  0  0  0  0  0  0  0
   -6.7757  -12.8651   32.0752 H   0  0  0  0  0  0  0  0  0  0  0  0
   -7.1026  -13.5615   30.9613 H   0  0  0  0  0  0  0  0  0  0  0  0
  1  2  1  0
  2  3  1  0
  3  4  1  0
  4  5  2  0
  4  6  1  0
  6  7  1  0
  7  8  2  0
  8  9  1  0
  9 10  1  0
 10 11  2  0
 11 12  1  0
 12 13  2  0
 13 14  1  0
  3 15  1  0
 15 16  1  0
 16 17  1  0
 17 18  1  0
 18 19  1  0
 19 20  2  0
 19 21  1  0
 21 22  1  0
 22 23  1  0
 18 24  1  0
 14  6  2  0
 24 15  1  0
 13  9  1  0
  1 25  1  0
  1 26  1  0
  1 27  1  0
  2 28  1  0
  2 29  1  0
  7 30  1  0
  8 31  1  0
 10 32  1  0
 11 33  1  0
 15 34  1  0
 16 35  1  0
 16 36  1  0
 17 37  1  0
 17 38  1  0
 21 39  1  0
 21 40  1  0
 23 41  1  0
 23 42  1  0
 23 43  1  0
 24 44  1  0
 24 45  1  0
M  END
>  <Energy>  (887) 
970.86257317896923

>  <compound_id>  (887) 
8805

>  <target_id>  (887) 
1

>  <reference_id>  (887) 
107

>  <inspiration_ids>  (887) 
[53, 107]

>  <energy_score>  (887) 
819.8461933530166

>  <distance_score>  (887) 
12.424710862299571

>  <path>  (887) 
/opt/xchem-fragalysis-2/maxwin/BulkDock/SCRATCH/511013/C8805-P107/C8805-P107.minimised.mol

>  <scratch_subdir>  (887) 
/opt/xchem-fragalysis-2/maxwin/BulkDock/SCRATCH/511013/C8805-P107

>  <fragmenstein_runtime>  (887) 
16.64976453781128

>  <fragmenstein_outcome>  (887) 
too moved

>  <fragmenstein_mode>  (887) 
expansion

>  <fragmenstein_error>  (887) 


$$$$
C8806-P53
     RDKit          3D

 41 43  0  0  0  0  0  0  0  0999 V2000
   -6.7905  -12.3722   26.2719 C   0  0  0  0  0  0  0  0  0  0  0  0
   -6.8044  -12.9788   27.8919 C   0  0  0  0  0  0  0  0  0  0  0  0
   -6.2062  -11.7485   28.3806 N   0  0  0  0  0  0  0  0  0  0  0  0
   -6.9072   -9.9522   29.1380 C   0  0  0  0  0  0  0  0  0  0  0  0
   -8.0292   -9.6838   29.3961 O   0  0  0  0  0  0  0  0  0  0  0  0
   -5.8229   -8.2711   29.3931 C   0  0  0  0  0  0  0  0  0  0  0  0
   -4.8256   -7.3935   28.4627 C   0  0  0  0  0  0  0  0  0  0  0  0
   -4.2757   -6.1985   28.7255 C   0  0  0  0  0  0  0  0  0  0  0  0
   -4.6558   -5.5965   29.8770 N   0  0  0  0  0  0  0  0  0  0  0  0
   -4.3296   -4.3656   30.3764 C   0  0  0  0  0  0  0  0  0  0  0  0
   -5.0235   -4.2857   31.5544 C   0  0  0  0  0  0  0  0  0  0  0  0
   -5.7446   -5.4391   31.7713 N   0  0  0  0  0  0  0  0  0  0  0  0
   -5.5323   -6.2374   30.7342 C   0  0  0  0  0  0  0  0  0  0  0  0
   -6.0668   -7.4953   30.4621 N   0  0  0  0  0  0  0  0  0  0  0  0
   -7.4773  -13.4732   28.1391 C   0  0  0  0  0  0  0  0  0  0  0  0
   -8.9175  -13.4014   27.3555 C   0  0  0  0  0  0  0  0  0  0  0  0
   -9.9273  -14.1213   28.1132 C   0  0  0  0  0  0  0  0  0  0  0  0
  -10.0404  -15.1821   27.3096 N   0  0  0  0  0  0  0  0  0  0  0  0
  -11.1023  -16.0094   27.7305 C   0  0  0  0  0  0  0  0  0  0  0  0
  -11.1130  -16.9387   28.4895 O   0  0  0  0  0  0  0  0  0  0  0  0
  -12.4461  -15.4076   27.0747 C   0  0  0  0  0  0  0  0  0  0  0  0
  -12.6141  -14.0558   27.2047 F   0  0  0  0  0  0  0  0  0  0  0  0
  -13.5654  -15.9374   27.6540 F   0  0  0  0  0  0  0  0  0  0  0  0
   -8.3708  -15.2530   27.6165 C   0  0  0  0  0  0  0  0  0  0  0  0
   -6.0385  -11.6678   26.0677 H   0  0  0  0  0  0  0  0  0  0  0  0
   -6.8349  -13.2701   25.7031 H   0  0  0  0  0  0  0  0  0  0  0  0
   -7.5121  -11.6406   25.9046 H   0  0  0  0  0  0  0  0  0  0  0  0
   -6.0582  -13.5101   28.9503 H   0  0  0  0  0  0  0  0  0  0  0  0
   -6.0873  -13.5613   27.2413 H   0  0  0  0  0  0  0  0  0  0  0  0
   -4.6250   -7.8591   27.5454 H   0  0  0  0  0  0  0  0  0  0  0  0
   -3.6082   -5.6737   28.0587 H   0  0  0  0  0  0  0  0  0  0  0  0
   -3.6697   -3.6805   29.8655 H   0  0  0  0  0  0  0  0  0  0  0  0
   -5.0500   -3.4703   32.2650 H   0  0  0  0  0  0  0  0  0  0  0  0
   -7.6734  -13.8736   29.2179 H   0  0  0  0  0  0  0  0  0  0  0  0
   -8.6276  -13.9348   26.4647 H   0  0  0  0  0  0  0  0  0  0  0  0
   -9.3908  -12.6048   26.8129 H   0  0  0  0  0  0  0  0  0  0  0  0
  -10.9082  -13.6834   28.0508 H   0  0  0  0  0  0  0  0  0  0  0  0
   -9.7564  -14.4243   29.1364 H   0  0  0  0  0  0  0  0  0  0  0  0
  -12.4599  -15.5998   25.9974 H   0  0  0  0  0  0  0  0  0  0  0  0
   -8.1884  -15.5348   26.5484 H   0  0  0  0  0  0  0  0  0  0  0  0
   -8.1546  -16.2092   28.0530 H   0  0  0  0  0  0  0  0  0  0  0  0
  1  2  1  0
  2  3  1  0
  3  4  1  0
  4  5  2  0
  4  6  1  0
  6  7  1  0
  7  8  2  0
  8  9  1  0
  9 10  1  0
 10 11  2  0
 11 12  1  0
 12 13  2  0
 13 14  1  0
  3 15  1  0
 15 16  1  0
 16 17  1  0
 17 18  1  0
 18 19  1  0
 19 20  2  0
 19 21  1  0
 21 22  1  0
 21 23  1  0
 18 24  1  0
 14  6  2  0
 24 15  1  0
 13  9  1  0
  1 25  1  0
  1 26  1  0
  1 27  1  0
  2 28  1  0
  2 29  1  0
  7 30  1  0
  8 31  1  0
 10 32  1  0
 11 33  1  0
 15 34  1  0
 16 35  1  0
 16 36  1  0
 17 37  1  0
 17 38  1  0
 21 39  1  0
 24 40  1  0
 24 41  1  0
M  END
>  <Energy>  (888) 
1544.4314271914086

>  <compound_id>  (888) 
8806

>  <target_id>  (888) 
1

>  <reference_id>  (888) 
53

>  <inspiration_ids>  (888) 
[53, 107]

>  <energy_score>  (888) 
1372.1467590929078

>  <distance_score>  (888) 
11.822205571118696

>  <path>  (888) 
/opt/xchem-fragalysis-2/maxwin/BulkDock/SCRATCH/511013/C8806-P53/C8806-P53.minimised.mol

>  <scratch_subdir>  (888) 
/opt/xchem-fragalysis-2/maxwin/BulkDock/SCRATCH/511013/C8806-P53

>  <fragmenstein_runtime>  (888) 
22.36265516281128

>  <fragmenstein_outcome>  (888) 
too moved

>  <fragmenstein_mode>  (888) 
expansion

>  <fragmenstein_error>  (888) 


$$$$
C8806-P107
     RDKit          3D

 41 43  0  0  0  0  0  0  0  0999 V2000
   -2.8551  -12.6470   25.5114 C   0  0  0  0  0  0  0  0  0  0  0  0
   -3.6249  -12.0711   26.7705 C   0  0  0  0  0  0  0  0  0  0  0  0
   -2.6033  -11.2068   26.4979 N   0  0  0  0  0  0  0  0  0  0  0  0
   -2.4019   -9.3398   25.9899 C   0  0  0  0  0  0  0  0  0  0  0  0
   -3.2258   -8.6434   25.9342 O   0  0  0  0  0  0  0  0  0  0  0  0
   -0.8246   -8.3678   25.7604 C   0  0  0  0  0  0  0  0  0  0  0  0
   -0.0078   -8.3075   27.2314 C   0  0  0  0  0  0  0  0  0  0  0  0
    0.0122   -7.1682   27.9376 C   0  0  0  0  0  0  0  0  0  0  0  0
   -0.8026   -6.1593   27.5026 N   0  0  0  0  0  0  0  0  0  0  0  0
   -1.3207   -5.1156   28.2285 C   0  0  0  0  0  0  0  0  0  0  0  0
   -2.4098   -4.7008   27.5102 C   0  0  0  0  0  0  0  0  0  0  0  0
   -2.4221   -5.3286   26.2735 N   0  0  0  0  0  0  0  0  0  0  0  0
   -1.4458   -6.2372   26.2717 C   0  0  0  0  0  0  0  0  0  0  0  0
   -1.0122   -7.1286   25.2852 N   0  0  0  0  0  0  0  0  0  0  0  0
   -4.4507  -12.0721   27.2192 C   0  0  0  0  0  0  0  0  0  0  0  0
   -6.2803  -12.8561   26.8967 C   0  0  0  0  0  0  0  0  0  0  0  0
   -6.7340  -13.6499   28.2458 C   0  0  0  0  0  0  0  0  0  0  0  0
   -5.5812  -13.6882   29.6478 N   0  0  0  0  0  0  0  0  0  0  0  0
   -6.2162  -14.0997   30.7255 C   0  0  0  0  0  0  0  0  0  0  0  0
   -6.7944  -13.4884   31.5615 O   0  0  0  0  0  0  0  0  0  0  0  0
   -5.8127  -15.8916   30.6372 C   0  0  0  0  0  0  0  0  0  0  0  0
   -6.1023  -17.1370   31.3684 F   0  0  0  0  0  0  0  0  0  0  0  0
   -5.2150  -16.3613   29.5607 F   0  0  0  0  0  0  0  0  0  0  0  0
   -5.2173  -12.1981   29.0987 C   0  0  0  0  0  0  0  0  0  0  0  0
   -3.4559  -12.3089   24.6697 H   0  0  0  0  0  0  0  0  0  0  0  0
   -1.8196  -12.4746   25.4385 H   0  0  0  0  0  0  0  0  0  0  0  0
   -2.4850  -13.7307   25.5608 H   0  0  0  0  0  0  0  0  0  0  0  0
   -3.2208  -12.1620   28.1865 H   0  0  0  0  0  0  0  0  0  0  0  0
   -3.1809  -13.1183   26.8360 H   0  0  0  0  0  0  0  0  0  0  0  0
    0.2755   -9.2173   27.7464 H   0  0  0  0  0  0  0  0  0  0  0  0
    0.4335   -7.0915   28.9315 H   0  0  0  0  0  0  0  0  0  0  0  0
   -0.9523   -4.8514   29.2090 H   0  0  0  0  0  0  0  0  0  0  0  0
   -3.1485   -3.9529   27.7702 H   0  0  0  0  0  0  0  0  0  0  0  0
   -5.2963  -11.3922   27.1479 H   0  0  0  0  0  0  0  0  0  0  0  0
   -6.5614  -13.6396   26.2026 H   0  0  0  0  0  0  0  0  0  0  0  0
   -6.8446  -12.1440   26.2829 H   0  0  0  0  0  0  0  0  0  0  0  0
   -7.8042  -13.6858   28.4381 H   0  0  0  0  0  0  0  0  0  0  0  0
   -6.7666  -14.7140   28.2641 H   0  0  0  0  0  0  0  0  0  0  0  0
   -5.5870  -15.8601   31.6984 H   0  0  0  0  0  0  0  0  0  0  0  0
   -4.2726  -12.1817   29.6787 H   0  0  0  0  0  0  0  0  0  0  0  0
   -5.6677  -11.3426   29.5624 H   0  0  0  0  0  0  0  0  0  0  0  0
  1  2  1  0
  2  3  1  0
  3  4  1  0
  4  5  2  0
  4  6  1  0
  6  7  1  0
  7  8  2  0
  8  9  1  0
  9 10  1  0
 10 11  2  0
 11 12  1  0
 12 13  2  0
 13 14  1  0
  3 15  1  0
 15 16  1  0
 16 17  1  0
 17 18  1  0
 18 19  1  0
 19 20  2  0
 19 21  1  0
 21 22  1  0
 21 23  1  0
 18 24  1  0
 14  6  2  0
 24 15  1  0
 13  9  1  0
  1 25  1  0
  1 26  1  0
  1 27  1  0
  2 28  1  0
  2 29  1  0
  7 30  1  0
  8 31  1  0
 10 32  1  0
 11 33  1  0
 15 34  1  0
 16 35  1  0
 16 36  1  0
 17 37  1  0
 17 38  1  0
 21 39  1  0
 24 40  1  0
 24 41  1  0
M  END
>  <Energy>  (889) 
1669.1178768492928

>  <compound_id>  (889) 
8806

>  <target_id>  (889) 
1

>  <reference_id>  (889) 
107

>  <inspiration_ids>  (889) 
[53, 107]

>  <energy_score>  (889) 
1496.8332087508043

>  <distance_score>  (889) 
11.822968769970425

>  <path>  (889) 
/opt/xchem-fragalysis-2/maxwin/BulkDock/SCRATCH/511013/C8806-P107/C8806-P107.minimised.mol

>  <scratch_subdir>  (889) 
/opt/xchem-fragalysis-2/maxwin/BulkDock/SCRATCH/511013/C8806-P107

>  <fragmenstein_runtime>  (889) 
11.609734296798706

>  <fragmenstein_outcome>  (889) 
too moved

>  <fragmenstein_mode>  (889) 
expansion

>  <fragmenstein_error>  (889) 


$$$$
C8807-P53
     RDKit          3D

 40 43  0  0  0  0  0  0  0  0999 V2000
   -1.4001   -7.2111   31.1226 C   0  0  0  0  0  0  0  0  0  0  0  0
   -2.7136   -7.6286   30.6773 O   0  0  0  0  0  0  0  0  0  0  0  0
   -3.2425   -7.3181   29.2425 C   0  0  0  0  0  0  0  0  0  0  0  0
   -2.1358   -7.0497   28.4724 C   0  0  0  0  0  0  0  0  0  0  0  0
   -2.4545   -7.2469   27.1509 C   0  0  0  0  0  0  0  0  0  0  0  0
   -3.7168   -7.8281   26.9366 C   0  0  0  0  0  0  0  0  0  0  0  0
   -5.2616   -8.3684   27.4023 C   0  0  0  0  0  0  0  0  0  0  0  0
   -6.0387  -10.2090   26.7548 C   0  0  0  0  0  0  0  0  0  0  0  0
   -6.1074  -11.0261   24.9609 C   0  0  0  0  0  0  0  0  0  0  0  0
   -7.3784  -10.9567   25.2164 C   0  0  0  0  0  0  0  0  0  0  0  0
   -6.7289  -12.3115   26.2948 C   0  0  0  0  0  0  0  0  0  0  0  0
   -6.0299  -12.0196   27.5441 N   0  0  0  0  0  0  0  0  0  0  0  0
   -6.7965  -13.4490   28.1895 C   0  0  0  0  0  0  0  0  0  0  0  0
   -8.0195  -14.3204   27.5599 C   0  0  0  0  0  0  0  0  0  0  0  0
   -8.1134  -15.6352   27.8063 C   0  0  0  0  0  0  0  0  0  0  0  0
   -7.3226  -16.1616   28.7935 N   0  0  0  0  0  0  0  0  0  0  0  0
   -7.0678  -17.4564   29.1422 C   0  0  0  0  0  0  0  0  0  0  0  0
   -6.3929  -17.3733   30.3365 C   0  0  0  0  0  0  0  0  0  0  0  0
   -6.1737  -16.0632   30.6740 N   0  0  0  0  0  0  0  0  0  0  0  0
   -6.6366  -15.3423   29.6669 C   0  0  0  0  0  0  0  0  0  0  0  0
   -6.3724  -14.0311   29.3470 N   0  0  0  0  0  0  0  0  0  0  0  0
   -4.9601   -7.8663   28.7220 C   0  0  0  0  0  0  0  0  0  0  0  0
   -1.2405   -6.1342   31.0423 H   0  0  0  0  0  0  0  0  0  0  0  0
   -0.6208   -7.7878   30.6152 H   0  0  0  0  0  0  0  0  0  0  0  0
   -1.3406   -7.4635   32.1861 H   0  0  0  0  0  0  0  0  0  0  0  0
   -1.2601   -6.6609   28.9400 H   0  0  0  0  0  0  0  0  0  0  0  0
   -2.0573   -7.0185   26.1800 H   0  0  0  0  0  0  0  0  0  0  0  0
   -3.8689   -6.8822   27.1889 H   0  0  0  0  0  0  0  0  0  0  0  0
   -6.8723   -9.4164   27.0516 H   0  0  0  0  0  0  0  0  0  0  0  0
   -5.2860  -11.4908   24.3687 H   0  0  0  0  0  0  0  0  0  0  0  0
   -6.3152  -12.0209   24.5116 H   0  0  0  0  0  0  0  0  0  0  0  0
   -7.3647   -9.9236   25.4647 H   0  0  0  0  0  0  0  0  0  0  0  0
   -7.3753  -10.6909   24.1202 H   0  0  0  0  0  0  0  0  0  0  0  0
   -5.7242  -12.3447   26.1768 H   0  0  0  0  0  0  0  0  0  0  0  0
   -6.9326  -13.3372   26.0137 H   0  0  0  0  0  0  0  0  0  0  0  0
   -8.7721  -13.8422   26.9641 H   0  0  0  0  0  0  0  0  0  0  0  0
   -8.8418  -16.2854   27.3435 H   0  0  0  0  0  0  0  0  0  0  0  0
   -7.4003  -18.2976   28.5581 H   0  0  0  0  0  0  0  0  0  0  0  0
   -6.0528  -18.1845   30.9690 H   0  0  0  0  0  0  0  0  0  0  0  0
   -5.7515   -8.1121   29.4289 H   0  0  0  0  0  0  0  0  0  0  0  0
  1  2  1  0
  2  3  1  0
  3  4  2  0
  4  5  1  0
  5  6  2  0
  6  7  1  0
  7  8  1  0
  8  9  1  0
  9 10  1  0
 10 11  1  0
 11 12  1  0
 12 13  1  0
 13 14  1  0
 14 15  2  0
 15 16  1  0
 16 17  1  0
 17 18  2  0
 18 19  1  0
 19 20  2  0
 20 21  1  0
  7 22  2  0
 22  3  1  0
 12  8  1  0
 21 13  2  0
 20 16  1  0
  1 23  1  0
  1 24  1  0
  1 25  1  0
  4 26  1  0
  5 27  1  0
  6 28  1  0
  8 29  1  0
  9 30  1  0
  9 31  1  0
 10 32  1  0
 10 33  1  0
 11 34  1  0
 11 35  1  0
 14 36  1  0
 15 37  1  0
 17 38  1  0
 18 39  1  0
 22 40  1  0
M  END
>  <Energy>  (890) 
1023.209573560801

>  <compound_id>  (890) 
8807

>  <target_id>  (890) 
1

>  <reference_id>  (890) 
53

>  <inspiration_ids>  (890) 
[53, 107]

>  <energy_score>  (890) 
957.1591324277407

>  <distance_score>  (890) 
11.907162434964059

>  <path>  (890) 
/opt/xchem-fragalysis-2/maxwin/BulkDock/SCRATCH/511013/C8807-P53/C8807-P53.minimised.mol

>  <scratch_subdir>  (890) 
/opt/xchem-fragalysis-2/maxwin/BulkDock/SCRATCH/511013/C8807-P53

>  <fragmenstein_runtime>  (890) 
12.797327518463135

>  <fragmenstein_outcome>  (890) 
too moved

>  <fragmenstein_mode>  (890) 
expansion

>  <fragmenstein_error>  (890) 


$$$$
C8807-P107
     RDKit          3D

 40 43  0  0  0  0  0  0  0  0999 V2000
   -0.7252   -4.5742   31.6078 C   0  0  0  0  0  0  0  0  0  0  0  0
   -1.7555   -5.4004   32.1677 O   0  0  0  0  0  0  0  0  0  0  0  0
   -1.6368   -6.7703   32.0745 C   0  0  0  0  0  0  0  0  0  0  0  0
   -0.5983   -7.4406   31.4640 C   0  0  0  0  0  0  0  0  0  0  0  0
   -0.6140   -8.8479   31.4383 C   0  0  0  0  0  0  0  0  0  0  0  0
   -1.6705   -9.6152   31.9737 C   0  0  0  0  0  0  0  0  0  0  0  0
   -2.7746   -9.0033   32.5403 C   0  0  0  0  0  0  0  0  0  0  0  0
   -3.9275   -9.7716   33.2532 C   0  0  0  0  0  0  0  0  0  0  0  0
   -5.3382   -9.1603   33.2255 C   0  0  0  0  0  0  0  0  0  0  0  0
   -6.1345  -10.0324   34.2065 C   0  0  0  0  0  0  0  0  0  0  0  0
   -5.1623  -11.1306   34.6537 C   0  0  0  0  0  0  0  0  0  0  0  0
   -4.2310  -11.2674   33.4724 N   0  0  0  0  0  0  0  0  0  0  0  0
   -4.6001  -12.3848   32.6312 C   0  0  0  0  0  0  0  0  0  0  0  0
   -3.9519  -12.7203   31.3073 C   0  0  0  0  0  0  0  0  0  0  0  0
   -4.2642  -13.8906   30.7144 C   0  0  0  0  0  0  0  0  0  0  0  0
   -5.1621  -14.7542   31.3184 N   0  0  0  0  0  0  0  0  0  0  0  0
   -5.5517  -16.0255   30.9837 C   0  0  0  0  0  0  0  0  0  0  0  0
   -6.3563  -16.4319   32.0202 C   0  0  0  0  0  0  0  0  0  0  0  0
   -6.5606  -15.4102   32.9112 N   0  0  0  0  0  0  0  0  0  0  0  0
   -5.7917  -14.4168   32.5010 C   0  0  0  0  0  0  0  0  0  0  0  0
   -5.5125  -13.2285   33.1143 N   0  0  0  0  0  0  0  0  0  0  0  0
   -2.6851   -7.5622   32.6271 C   0  0  0  0  0  0  0  0  0  0  0  0
   -1.0264   -3.5311   31.7400 H   0  0  0  0  0  0  0  0  0  0  0  0
   -0.6020   -4.7616   30.5371 H   0  0  0  0  0  0  0  0  0  0  0  0
    0.2175   -4.7299   32.1415 H   0  0  0  0  0  0  0  0  0  0  0  0
    0.2340   -6.9071   31.0264 H   0  0  0  0  0  0  0  0  0  0  0  0
    0.2013   -9.4118   30.9936 H   0  0  0  0  0  0  0  0  0  0  0  0
   -1.5989  -10.7014   31.9540 H   0  0  0  0  0  0  0  0  0  0  0  0
   -3.5539   -9.5080   34.2609 H   0  0  0  0  0  0  0  0  0  0  0  0
   -5.3643   -8.1126   33.5380 H   0  0  0  0  0  0  0  0  0  0  0  0
   -5.7787   -9.2192   32.2264 H   0  0  0  0  0  0  0  0  0  0  0  0
   -7.0008  -10.4666   33.6945 H   0  0  0  0  0  0  0  0  0  0  0  0
   -6.5031   -9.4587   35.0625 H   0  0  0  0  0  0  0  0  0  0  0  0
   -5.6831  -12.0345   34.9813 H   0  0  0  0  0  0  0  0  0  0  0  0
   -4.5847  -10.8028   35.5287 H   0  0  0  0  0  0  0  0  0  0  0  0
   -3.2353  -12.0329   30.8893 H   0  0  0  0  0  0  0  0  0  0  0  0
   -3.8221  -14.2071   29.7789 H   0  0  0  0  0  0  0  0  0  0  0  0
   -5.1788  -16.5387   30.1104 H   0  0  0  0  0  0  0  0  0  0  0  0
   -6.7794  -17.4125   32.1780 H   0  0  0  0  0  0  0  0  0  0  0  0
   -3.4667   -7.0376   33.1763 H   0  0  0  0  0  0  0  0  0  0  0  0
  1  2  1  0
  2  3  1  0
  3  4  2  0
  4  5  1  0
  5  6  2  0
  6  7  1  0
  7  8  1  0
  8  9  1  0
  9 10  1  0
 10 11  1  0
 11 12  1  0
 12 13  1  0
 13 14  1  0
 14 15  2  0
 15 16  1  0
 16 17  1  0
 17 18  2  0
 18 19  1  0
 19 20  2  0
 20 21  1  0
  7 22  2  0
 22  3  1  0
 12  8  1  0
 21 13  2  0
 20 16  1  0
  1 23  1  0
  1 24  1  0
  1 25  1  0
  4 26  1  0
  5 27  1  0
  6 28  1  0
  8 29  1  0
  9 30  1  0
  9 31  1  0
 10 32  1  0
 10 33  1  0
 11 34  1  0
 11 35  1  0
 14 36  1  0
 15 37  1  0
 17 38  1  0
 18 39  1  0
 22 40  1  0
M  END
>  <Energy>  (891) 
74.64627442255069

>  <compound_id>  (891) 
8807

>  <target_id>  (891) 
1

>  <reference_id>  (891) 
107

>  <inspiration_ids>  (891) 
[53, 107]

>  <energy_score>  (891) 
8.59583328948628

>  <distance_score>  (891) 
12.747586422983941

>  <path>  (891) 
/opt/xchem-fragalysis-2/maxwin/BulkDock/SCRATCH/511013/C8807-P107/C8807-P107.minimised.mol

>  <scratch_subdir>  (891) 
/opt/xchem-fragalysis-2/maxwin/BulkDock/SCRATCH/511013/C8807-P107

>  <fragmenstein_runtime>  (891) 
15.38010287284851

>  <fragmenstein_outcome>  (891) 
too moved

>  <fragmenstein_mode>  (891) 
expansion

>  <fragmenstein_error>  (891) 


$$$$
C8808-P53
     RDKit          3D

 39 42  0  0  0  0  0  0  0  0999 V2000
   -0.0580   -3.7955   31.0871 C   0  0  0  0  0  0  0  0  0  0  0  0
   -0.0502   -5.0769   31.7431 O   0  0  0  0  0  0  0  0  0  0  0  0
   -0.7305   -6.0232   31.0394 C   0  0  0  0  0  0  0  0  0  0  0  0
   -0.5587   -6.3013   29.7396 C   0  0  0  0  0  0  0  0  0  0  0  0
   -1.6070   -7.0872   28.8945 C   0  0  0  0  0  0  0  0  0  0  0  0
   -2.9146   -7.3099   29.1444 C   0  0  0  0  0  0  0  0  0  0  0  0
   -4.5750   -7.9430   28.0753 C   0  0  0  0  0  0  0  0  0  0  0  0
   -5.7854   -8.1061   28.9735 C   0  0  0  0  0  0  0  0  0  0  0  0
   -7.1533   -9.4630   29.1278 C   0  0  0  0  0  0  0  0  0  0  0  0
   -6.3763  -10.5565   28.8826 N   0  0  0  0  0  0  0  0  0  0  0  0
   -5.9019  -12.1230   28.1174 C   0  0  0  0  0  0  0  0  0  0  0  0
   -4.6753  -12.9029   28.6575 C   0  0  0  0  0  0  0  0  0  0  0  0
   -4.7377  -14.2445   28.7571 C   0  0  0  0  0  0  0  0  0  0  0  0
   -5.8358  -14.8966   28.2486 N   0  0  0  0  0  0  0  0  0  0  0  0
   -6.2649  -16.1918   28.3969 C   0  0  0  0  0  0  0  0  0  0  0  0
   -7.4357  -16.2535   27.6829 C   0  0  0  0  0  0  0  0  0  0  0  0
   -7.6835  -15.0610   27.0464 N   0  0  0  0  0  0  0  0  0  0  0  0
   -6.7219  -14.2284   27.4253 C   0  0  0  0  0  0  0  0  0  0  0  0
   -6.5877  -12.8693   27.2049 N   0  0  0  0  0  0  0  0  0  0  0  0
   -6.2008   -9.0945   27.5979 C   0  0  0  0  0  0  0  0  0  0  0  0
   -2.5106   -7.4404   30.7630 C   0  0  0  0  0  0  0  0  0  0  0  0
   -1.5728   -6.8336   31.6232 N   0  0  0  0  0  0  0  0  0  0  0  0
   -1.0721   -3.5081   30.7884 H   0  0  0  0  0  0  0  0  0  0  0  0
    0.6183   -3.7958   30.2266 H   0  0  0  0  0  0  0  0  0  0  0  0
    0.3076   -3.0559   31.8055 H   0  0  0  0  0  0  0  0  0  0  0  0
    0.4100   -5.9910   29.3587 H   0  0  0  0  0  0  0  0  0  0  0  0
   -1.1300   -7.9482   28.4255 H   0  0  0  0  0  0  0  0  0  0  0  0
   -4.4903   -7.6178   29.0612 H   0  0  0  0  0  0  0  0  0  0  0  0
   -6.0775   -6.9862   29.1426 H   0  0  0  0  0  0  0  0  0  0  0  0
   -5.4558   -8.4282   30.0030 H   0  0  0  0  0  0  0  0  0  0  0  0
   -7.4303   -9.8419   30.0590 H   0  0  0  0  0  0  0  0  0  0  0  0
   -8.1154   -9.2489   28.6285 H   0  0  0  0  0  0  0  0  0  0  0  0
   -3.8259  -12.3216   28.9733 H   0  0  0  0  0  0  0  0  0  0  0  0
   -3.9606  -14.8442   29.2100 H   0  0  0  0  0  0  0  0  0  0  0  0
   -5.7407  -16.9107   29.0086 H   0  0  0  0  0  0  0  0  0  0  0  0
   -8.1113  -17.0900   27.5833 H   0  0  0  0  0  0  0  0  0  0  0  0
   -7.1315   -8.8372   27.0656 H   0  0  0  0  0  0  0  0  0  0  0  0
   -6.1001   -9.8804   26.8137 H   0  0  0  0  0  0  0  0  0  0  0  0
   -3.1608   -8.0772   31.4060 H   0  0  0  0  0  0  0  0  0  0  0  0
  1  2  1  0
  2  3  1  0
  3  4  2  0
  4  5  1  0
  5  6  2  0
  6  7  1  0
  7  8  1  0
  8  9  1  0
  9 10  1  0
 10 11  1  0
 11 12  1  0
 12 13  2  0
 13 14  1  0
 14 15  1  0
 15 16  2  0
 16 17  1  0
 17 18  2  0
 18 19  1  0
 10 20  1  0
  6 21  1  0
 21 22  2  0
 22  3  1  0
 20  7  1  0
 19 11  2  0
 18 14  1  0
  1 23  1  0
  1 24  1  0
  1 25  1  0
  4 26  1  0
  5 27  1  0
  7 28  1  0
  8 29  1  0
  8 30  1  0
  9 31  1  0
  9 32  1  0
 12 33  1  0
 13 34  1  0
 15 35  1  0
 16 36  1  0
 20 37  1  0
 20 38  1  0
 21 39  1  0
M  END
>  <Energy>  (892) 
823.4941525358546

>  <compound_id>  (892) 
8808

>  <target_id>  (892) 
1

>  <reference_id>  (892) 
53

>  <inspiration_ids>  (892) 
[53, 107]

>  <energy_score>  (892) 
780.3216217595707

>  <distance_score>  (892) 
11.894568901012333

>  <path>  (892) 
/opt/xchem-fragalysis-2/maxwin/BulkDock/SCRATCH/511013/C8808-P53/C8808-P53.minimised.mol

>  <scratch_subdir>  (892) 
/opt/xchem-fragalysis-2/maxwin/BulkDock/SCRATCH/511013/C8808-P53

>  <fragmenstein_runtime>  (892) 
10.162178993225098

>  <fragmenstein_outcome>  (892) 
too moved

>  <fragmenstein_mode>  (892) 
expansion

>  <fragmenstein_error>  (892) 


$$$$
C8808-P107
     RDKit          3D

 39 42  0  0  0  0  0  0  0  0999 V2000
   -0.2091   -5.3564   29.1900 C   0  0  0  0  0  0  0  0  0  0  0  0
   -0.9055   -6.5536   29.5935 O   0  0  0  0  0  0  0  0  0  0  0  0
   -1.9576   -6.9188   28.7976 C   0  0  0  0  0  0  0  0  0  0  0  0
   -2.0437   -6.7720   27.4964 C   0  0  0  0  0  0  0  0  0  0  0  0
   -3.3792   -7.4147   27.0250 C   0  0  0  0  0  0  0  0  0  0  0  0
   -5.0000   -8.1907   27.4649 C   0  0  0  0  0  0  0  0  0  0  0  0
   -6.0874   -9.9092   27.0294 C   0  0  0  0  0  0  0  0  0  0  0  0
   -6.7643  -11.0236   25.4910 C   0  0  0  0  0  0  0  0  0  0  0  0
   -7.0865  -12.5635   25.7693 C   0  0  0  0  0  0  0  0  0  0  0  0
   -6.0797  -12.9902   26.6639 N   0  0  0  0  0  0  0  0  0  0  0  0
   -6.0299  -14.2683   27.2110 C   0  0  0  0  0  0  0  0  0  0  0  0
   -4.7801  -14.6354   27.9976 C   0  0  0  0  0  0  0  0  0  0  0  0
   -4.7394  -15.8244   28.5899 C   0  0  0  0  0  0  0  0  0  0  0  0
   -5.8140  -16.6460   28.4306 N   0  0  0  0  0  0  0  0  0  0  0  0
   -5.9633  -17.9050   28.8886 C   0  0  0  0  0  0  0  0  0  0  0  0
   -7.1107  -18.2998   28.2777 C   0  0  0  0  0  0  0  0  0  0  0  0
   -7.7498  -17.3215   27.5953 N   0  0  0  0  0  0  0  0  0  0  0  0
   -6.9215  -16.3094   27.6569 C   0  0  0  0  0  0  0  0  0  0  0  0
   -7.0221  -15.1042   27.0387 N   0  0  0  0  0  0  0  0  0  0  0  0
   -5.5618  -11.8634   27.4921 C   0  0  0  0  0  0  0  0  0  0  0  0
   -4.7788   -7.8558   28.7453 C   0  0  0  0  0  0  0  0  0  0  0  0
   -3.2386   -7.3095   29.4156 N   0  0  0  0  0  0  0  0  0  0  0  0
   -0.7956   -4.4606   29.4129 H   0  0  0  0  0  0  0  0  0  0  0  0
    0.0684   -5.3668   28.1339 H   0  0  0  0  0  0  0  0  0  0  0  0
    0.7097   -5.3036   29.7818 H   0  0  0  0  0  0  0  0  0  0  0  0
   -1.2437   -6.5355   26.8118 H   0  0  0  0  0  0  0  0  0  0  0  0
   -2.8334   -7.7494   26.1223 H   0  0  0  0  0  0  0  0  0  0  0  0
   -6.9422   -9.3988   27.5291 H   0  0  0  0  0  0  0  0  0  0  0  0
   -7.7105  -10.7836   25.1141 H   0  0  0  0  0  0  0  0  0  0  0  0
   -6.1517  -11.2271   24.6284 H   0  0  0  0  0  0  0  0  0  0  0  0
   -8.1050  -12.7223   26.1385 H   0  0  0  0  0  0  0  0  0  0  0  0
   -7.0251  -13.1205   24.8248 H   0  0  0  0  0  0  0  0  0  0  0  0
   -3.9514  -13.9486   28.0603 H   0  0  0  0  0  0  0  0  0  0  0  0
   -3.8934  -16.1815   29.1604 H   0  0  0  0  0  0  0  0  0  0  0  0
   -5.2517  -18.4171   29.5209 H   0  0  0  0  0  0  0  0  0  0  0  0
   -7.5081  -19.2765   28.3077 H   0  0  0  0  0  0  0  0  0  0  0  0
   -5.7197  -12.1062   28.5493 H   0  0  0  0  0  0  0  0  0  0  0  0
   -4.4733  -12.0690   27.3892 H   0  0  0  0  0  0  0  0  0  0  0  0
   -5.5071   -8.2499   29.4286 H   0  0  0  0  0  0  0  0  0  0  0  0
  1  2  1  0
  2  3  1  0
  3  4  2  0
  4  5  1  0
  5  6  2  0
  6  7  1  0
  7  8  1  0
  8  9  1  0
  9 10  1  0
 10 11  1  0
 11 12  1  0
 12 13  2  0
 13 14  1  0
 14 15  1  0
 15 16  2  0
 16 17  1  0
 17 18  2  0
 18 19  1  0
 10 20  1  0
  6 21  1  0
 21 22  2  0
 22  3  1  0
 20  7  1  0
 19 11  2  0
 18 14  1  0
  1 23  1  0
  1 24  1  0
  1 25  1  0
  4 26  1  0
  5 27  1  0
  7 28  1  0
  8 29  1  0
  8 30  1  0
  9 31  1  0
  9 32  1  0
 12 33  1  0
 13 34  1  0
 15 35  1  0
 16 36  1  0
 20 37  1  0
 20 38  1  0
 21 39  1  0
M  END
>  <Energy>  (893) 
504.8574039846701

>  <compound_id>  (893) 
8808

>  <target_id>  (893) 
1

>  <reference_id>  (893) 
107

>  <inspiration_ids>  (893) 
[53, 107]

>  <energy_score>  (893) 
461.68487320839245

>  <distance_score>  (893) 
11.642953870330778

>  <path>  (893) 
/opt/xchem-fragalysis-2/maxwin/BulkDock/SCRATCH/511013/C8808-P107/C8808-P107.minimised.mol

>  <scratch_subdir>  (893) 
/opt/xchem-fragalysis-2/maxwin/BulkDock/SCRATCH/511013/C8808-P107

>  <fragmenstein_runtime>  (893) 
10.601128578186035

>  <fragmenstein_outcome>  (893) 
too moved

>  <fragmenstein_mode>  (893) 
expansion

>  <fragmenstein_error>  (893) 


$$$$
C8809-P53
     RDKit          3D

 40 43  0  0  0  0  0  0  0  0999 V2000
   -1.4429   -8.4501   31.7723 C   0  0  0  0  0  0  0  0  0  0  0  0
   -2.1227   -9.5462   31.0971 O   0  0  0  0  0  0  0  0  0  0  0  0
   -1.4229  -10.6118   30.1192 C   0  0  0  0  0  0  0  0  0  0  0  0
   -0.4463   -9.6956   29.7279 C   0  0  0  0  0  0  0  0  0  0  0  0
   -0.5332   -9.7556   28.4412 C   0  0  0  0  0  0  0  0  0  0  0  0
   -1.5713  -10.8441   27.7617 C   0  0  0  0  0  0  0  0  0  0  0  0
   -2.5685  -11.7861   28.0875 C   0  0  0  0  0  0  0  0  0  0  0  0
   -2.4931  -11.9638   29.3805 C   0  0  0  0  0  0  0  0  0  0  0  0
   -2.5422  -13.9714   29.3976 C   0  0  0  0  0  0  0  0  0  0  0  0
   -2.6372  -15.0919   30.8319 C   0  0  0  0  0  0  0  0  0  0  0  0
   -3.6222  -16.1833   30.4864 C   0  0  0  0  0  0  0  0  0  0  0  0
   -3.2948  -16.5260   29.1172 N   0  0  0  0  0  0  0  0  0  0  0  0
   -3.5536  -17.8153   28.6710 C   0  0  0  0  0  0  0  0  0  0  0  0
   -3.9965  -18.0124   27.2429 C   0  0  0  0  0  0  0  0  0  0  0  0
   -4.2380  -19.2687   26.8488 C   0  0  0  0  0  0  0  0  0  0  0  0
   -4.0375  -20.2977   27.7459 N   0  0  0  0  0  0  0  0  0  0  0  0
   -4.0461  -21.6466   27.5359 C   0  0  0  0  0  0  0  0  0  0  0  0
   -3.6590  -22.1973   28.7324 C   0  0  0  0  0  0  0  0  0  0  0  0
   -3.4645  -21.2274   29.6761 N   0  0  0  0  0  0  0  0  0  0  0  0
   -3.6655  -20.0774   29.0618 C   0  0  0  0  0  0  0  0  0  0  0  0
   -3.4660  -18.8130   29.5210 N   0  0  0  0  0  0  0  0  0  0  0  0
   -2.1755  -15.6296   28.6511 C   0  0  0  0  0  0  0  0  0  0  0  0
   -1.3423   -7.5889   31.1048 H   0  0  0  0  0  0  0  0  0  0  0  0
   -0.4843   -8.7601   32.1938 H   0  0  0  0  0  0  0  0  0  0  0  0
   -2.0762   -8.1510   32.6088 H   0  0  0  0  0  0  0  0  0  0  0  0
    0.1359   -8.9583   30.2325 H   0  0  0  0  0  0  0  0  0  0  0  0
    0.0030   -9.0230   27.8944 H   0  0  0  0  0  0  0  0  0  0  0  0
   -1.8653  -10.6452   26.7442 H   0  0  0  0  0  0  0  0  0  0  0  0
   -2.8852  -12.3623   27.2380 H   0  0  0  0  0  0  0  0  0  0  0  0
   -1.6867  -13.9002   28.7411 H   0  0  0  0  0  0  0  0  0  0  0  0
   -2.8658  -14.7024   31.8276 H   0  0  0  0  0  0  0  0  0  0  0  0
   -1.6571  -15.5777   30.9933 H   0  0  0  0  0  0  0  0  0  0  0  0
   -4.6563  -15.8309   30.5535 H   0  0  0  0  0  0  0  0  0  0  0  0
   -3.5010  -17.0157   31.1878 H   0  0  0  0  0  0  0  0  0  0  0  0
   -4.1070  -17.1447   26.6088 H   0  0  0  0  0  0  0  0  0  0  0  0
   -4.5352  -19.5234   25.8414 H   0  0  0  0  0  0  0  0  0  0  0  0
   -4.2604  -22.0769   26.5692 H   0  0  0  0  0  0  0  0  0  0  0  0
   -3.5097  -23.2435   28.9674 H   0  0  0  0  0  0  0  0  0  0  0  0
   -2.0419  -15.6333   27.5573 H   0  0  0  0  0  0  0  0  0  0  0  0
   -1.2248  -16.0114   29.0511 H   0  0  0  0  0  0  0  0  0  0  0  0
  1  2  1  0
  2  3  1  0
  3  4  2  0
  4  5  1  0
  5  6  2  0
  6  7  1  0
  7  8  2  0
  8  9  1  0
  9 10  1  0
 10 11  1  0
 11 12  1  0
 12 13  1  0
 13 14  1  0
 14 15  2  0
 15 16  1  0
 16 17  1  0
 17 18  2  0
 18 19  1  0
 19 20  2  0
 20 21  1  0
 12 22  1  0
  8  3  1  0
 22  9  1  0
 21 13  2  0
 20 16  1  0
  1 23  1  0
  1 24  1  0
  1 25  1  0
  4 26  1  0
  5 27  1  0
  6 28  1  0
  7 29  1  0
  9 30  1  0
 10 31  1  0
 10 32  1  0
 11 33  1  0
 11 34  1  0
 14 35  1  0
 15 36  1  0
 17 37  1  0
 18 38  1  0
 22 39  1  0
 22 40  1  0
M  END
>  <Energy>  (894) 
439.02344271669358

>  <compound_id>  (894) 
8809

>  <target_id>  (894) 
1

>  <reference_id>  (894) 
53

>  <inspiration_ids>  (894) 
[53, 107]

>  <energy_score>  (894) 
376.8045847220618

>  <distance_score>  (894) 
12.742073874021028

>  <path>  (894) 
/opt/xchem-fragalysis-2/maxwin/BulkDock/SCRATCH/511013/C8809-P53/C8809-P53.minimised.mol

>  <scratch_subdir>  (894) 
/opt/xchem-fragalysis-2/maxwin/BulkDock/SCRATCH/511013/C8809-P53

>  <fragmenstein_runtime>  (894) 
11.110853433609009

>  <fragmenstein_outcome>  (894) 
too moved

>  <fragmenstein_mode>  (894) 
expansion

>  <fragmenstein_error>  (894) 


$$$$
C8809-P107
     RDKit          3D

 40 43  0  0  0  0  0  0  0  0999 V2000
   -1.4627   -6.8721   32.3636 C   0  0  0  0  0  0  0  0  0  0  0  0
   -2.1960   -7.4543   31.2809 O   0  0  0  0  0  0  0  0  0  0  0  0
   -1.8187   -7.0563   30.0192 C   0  0  0  0  0  0  0  0  0  0  0  0
   -0.5714   -6.3802   29.8593 C   0  0  0  0  0  0  0  0  0  0  0  0
   -0.2167   -5.8129   28.6539 C   0  0  0  0  0  0  0  0  0  0  0  0
   -0.9208   -6.1681   27.5299 C   0  0  0  0  0  0  0  0  0  0  0  0
   -2.1741   -6.8158   27.6287 C   0  0  0  0  0  0  0  0  0  0  0  0
   -2.8700   -7.2056   28.8670 C   0  0  0  0  0  0  0  0  0  0  0  0
   -4.7749   -7.9076   29.0946 C   0  0  0  0  0  0  0  0  0  0  0  0
   -5.4148   -8.6982   30.8141 C   0  0  0  0  0  0  0  0  0  0  0  0
   -6.3054  -10.3069   30.4800 C   0  0  0  0  0  0  0  0  0  0  0  0
   -6.2092  -10.8051   29.2031 N   0  0  0  0  0  0  0  0  0  0  0  0
   -6.0815  -12.4691   28.4702 C   0  0  0  0  0  0  0  0  0  0  0  0
   -6.3470  -13.9016   29.5049 C   0  0  0  0  0  0  0  0  0  0  0  0
   -7.1394  -14.9110   29.1264 C   0  0  0  0  0  0  0  0  0  0  0  0
   -7.6170  -14.8806   27.8425 N   0  0  0  0  0  0  0  0  0  0  0  0
   -8.4659  -15.7801   27.2494 C   0  0  0  0  0  0  0  0  0  0  0  0
   -8.5682  -15.3566   25.9529 C   0  0  0  0  0  0  0  0  0  0  0  0
   -7.8004  -14.2362   25.7342 N   0  0  0  0  0  0  0  0  0  0  0  0
   -7.2129  -13.9270   26.8846 C   0  0  0  0  0  0  0  0  0  0  0  0
   -6.3549  -12.8307   27.1525 N   0  0  0  0  0  0  0  0  0  0  0  0
   -6.2035   -9.1130   28.4721 C   0  0  0  0  0  0  0  0  0  0  0  0
   -1.4479   -5.7782   32.3201 H   0  0  0  0  0  0  0  0  0  0  0  0
   -0.4585   -7.2920   32.4138 H   0  0  0  0  0  0  0  0  0  0  0  0
   -1.9511   -7.1652   33.2966 H   0  0  0  0  0  0  0  0  0  0  0  0
    0.1235   -6.2297   30.6760 H   0  0  0  0  0  0  0  0  0  0  0  0
    0.6442   -5.1621   28.5927 H   0  0  0  0  0  0  0  0  0  0  0  0
   -0.5201   -5.9528   26.5468 H   0  0  0  0  0  0  0  0  0  0  0  0
   -2.6079   -7.0259   26.6613 H   0  0  0  0  0  0  0  0  0  0  0  0
   -4.0629   -7.9993   29.9506 H   0  0  0  0  0  0  0  0  0  0  0  0
   -4.4769   -8.9699   31.4753 H   0  0  0  0  0  0  0  0  0  0  0  0
   -5.4093   -8.0337   31.6853 H   0  0  0  0  0  0  0  0  0  0  0  0
   -5.8755  -11.0617   31.1939 H   0  0  0  0  0  0  0  0  0  0  0  0
   -7.3588  -10.1057   30.3719 H   0  0  0  0  0  0  0  0  0  0  0  0
   -5.9384  -13.7913   30.4826 H   0  0  0  0  0  0  0  0  0  0  0  0
   -7.4014  -15.7390   29.7670 H   0  0  0  0  0  0  0  0  0  0  0  0
   -8.9001  -16.6082   27.7882 H   0  0  0  0  0  0  0  0  0  0  0  0
   -9.1468  -15.7950   25.1515 H   0  0  0  0  0  0  0  0  0  0  0  0
   -6.2605   -9.2061   27.4008 H   0  0  0  0  0  0  0  0  0  0  0  0
   -7.1921   -8.9339   28.8049 H   0  0  0  0  0  0  0  0  0  0  0  0
  1  2  1  0
  2  3  1  0
  3  4  2  0
  4  5  1  0
  5  6  2  0
  6  7  1  0
  7  8  2  0
  8  9  1  0
  9 10  1  0
 10 11  1  0
 11 12  1  0
 12 13  1  0
 13 14  1  0
 14 15  2  0
 15 16  1  0
 16 17  1  0
 17 18  2  0
 18 19  1  0
 19 20  2  0
 20 21  1  0
 12 22  1  0
  8  3  1  0
 22  9  1  0
 21 13  2  0
 20 16  1  0
  1 23  1  0
  1 24  1  0
  1 25  1  0
  4 26  1  0
  5 27  1  0
  6 28  1  0
  7 29  1  0
  9 30  1  0
 10 31  1  0
 10 32  1  0
 11 33  1  0
 11 34  1  0
 14 35  1  0
 15 36  1  0
 17 37  1  0
 18 38  1  0
 22 39  1  0
 22 40  1  0
M  END
>  <Energy>  (895) 
574.61922007878127

>  <compound_id>  (895) 
8809

>  <target_id>  (895) 
1

>  <reference_id>  (895) 
107

>  <inspiration_ids>  (895) 
[53, 107]

>  <energy_score>  (895) 
512.4003620841402

>  <distance_score>  (895) 
11.727211640578712

>  <path>  (895) 
/opt/xchem-fragalysis-2/maxwin/BulkDock/SCRATCH/511013/C8809-P107/C8809-P107.minimised.mol

>  <scratch_subdir>  (895) 
/opt/xchem-fragalysis-2/maxwin/BulkDock/SCRATCH/511013/C8809-P107

>  <fragmenstein_runtime>  (895) 
11.45989179611206

>  <fragmenstein_outcome>  (895) 
too moved

>  <fragmenstein_mode>  (895) 
expansion

>  <fragmenstein_error>  (895) 


$$$$
C8811-P53
     RDKit          3D

 31 34  0  0  0  0  0  0  0  0999 V2000
  -10.5413  -13.6620   23.6244 C   0  0  0  0  0  0  0  0  0  0  0  0
  -10.2616  -14.3359   24.7817 C   0  0  0  0  0  0  0  0  0  0  0  0
   -9.1730  -13.6869   25.2898 N   0  0  0  0  0  0  0  0  0  0  0  0
   -8.4829  -13.9721   26.4224 C   0  0  0  0  0  0  0  0  0  0  0  0
   -7.3974  -13.2362   26.6755 C   0  0  0  0  0  0  0  0  0  0  0  0
   -7.0562  -11.9796   25.8100 C   0  0  0  0  0  0  0  0  0  0  0  0
   -5.9886  -10.8397   26.6167 C   0  0  0  0  0  0  0  0  0  0  0  0
   -6.1390   -9.2227   27.2617 N   0  0  0  0  0  0  0  0  0  0  0  0
   -4.4998   -8.6762   28.0936 C   0  0  0  0  0  0  0  0  0  0  0  0
   -3.2588   -7.3522   29.0090 C   0  0  0  0  0  0  0  0  0  0  0  0
   -1.5853   -7.2215   29.1474 C   0  0  0  0  0  0  0  0  0  0  0  0
   -0.8207   -6.8100   30.4049 C   0  0  0  0  0  0  0  0  0  0  0  0
   -1.6471   -7.4032   31.4438 C   0  0  0  0  0  0  0  0  0  0  0  0
   -2.7829   -7.8593   30.6831 N   0  0  0  0  0  0  0  0  0  0  0  0
   -3.6567  -10.7293   28.4396 N   0  0  0  0  0  0  0  0  0  0  0  0
   -4.8079  -11.7332   27.3742 O   0  0  0  0  0  0  0  0  0  0  0  0
   -7.7945  -11.7178   24.7529 N   0  0  0  0  0  0  0  0  0  0  0  0
   -8.8178  -12.6226   24.4518 C   0  0  0  0  0  0  0  0  0  0  0  0
   -9.6592  -12.6201   23.4329 N   0  0  0  0  0  0  0  0  0  0  0  0
  -11.3313  -13.8566   22.9102 H   0  0  0  0  0  0  0  0  0  0  0  0
  -10.7194  -15.1853   25.2656 H   0  0  0  0  0  0  0  0  0  0  0  0
   -8.8231  -14.7805   27.0560 H   0  0  0  0  0  0  0  0  0  0  0  0
   -6.8415  -13.3825   27.5857 H   0  0  0  0  0  0  0  0  0  0  0  0
   -2.8518   -7.2580   27.9575 H   0  0  0  0  0  0  0  0  0  0  0  0
   -1.0664   -8.1100   28.7794 H   0  0  0  0  0  0  0  0  0  0  0  0
   -1.4615   -6.2758   28.6521 H   0  0  0  0  0  0  0  0  0  0  0  0
    0.1988   -7.2126   30.3943 H   0  0  0  0  0  0  0  0  0  0  0  0
   -0.7230   -5.7249   30.5252 H   0  0  0  0  0  0  0  0  0  0  0  0
   -1.8567   -6.7098   32.2580 H   0  0  0  0  0  0  0  0  0  0  0  0
   -1.1552   -8.2694   31.9000 H   0  0  0  0  0  0  0  0  0  0  0  0
   -3.6506   -8.0429   31.2282 H   0  0  0  0  0  0  0  0  0  0  0  0
  1  2  2  0
  2  3  1  0
  3  4  1  0
  4  5  2  0
  5  6  1  0
  6  7  1  0
  7  8  2  0
  8  9  1  0
  9 10  1  0
 10 11  1  0
 11 12  1  0
 12 13  1  0
 13 14  1  0
  9 15  2  0
 15 16  1  0
  6 17  2  0
 17 18  1  0
 18 19  2  0
 19  1  1  0
 18  3  1  0
 16  7  1  0
 14 10  1  0
  1 20  1  0
  2 21  1  0
  4 22  1  0
  5 23  1  0
 10 24  1  0
 11 25  1  0
 11 26  1  0
 12 27  1  0
 12 28  1  0
 13 29  1  0
 13 30  1  0
 14 31  1  0
M  END
>  <Energy>  (896) 
1111.0440771531244

>  <compound_id>  (896) 
8811

>  <target_id>  (896) 
1

>  <reference_id>  (896) 
53

>  <inspiration_ids>  (896) 
[53, 107]

>  <energy_score>  (896) 
986.0435031284029

>  <distance_score>  (896) 
13.061469069278425

>  <path>  (896) 
/opt/xchem-fragalysis-2/maxwin/BulkDock/SCRATCH/511013/C8811-P53/C8811-P53.minimised.mol

>  <scratch_subdir>  (896) 
/opt/xchem-fragalysis-2/maxwin/BulkDock/SCRATCH/511013/C8811-P53

>  <fragmenstein_runtime>  (896) 
7.597318887710571

>  <fragmenstein_outcome>  (896) 
too moved

>  <fragmenstein_mode>  (896) 
expansion

>  <fragmenstein_error>  (896) 


$$$$
C8811-P107
     RDKit          3D

 31 34  0  0  0  0  0  0  0  0999 V2000
  -10.3362  -20.0883   29.2935 C   0  0  0  0  0  0  0  0  0  0  0  0
   -9.0145  -19.5788   28.1918 C   0  0  0  0  0  0  0  0  0  0  0  0
   -8.7953  -17.8457   27.6962 N   0  0  0  0  0  0  0  0  0  0  0  0
   -8.7149  -16.8036   26.4617 C   0  0  0  0  0  0  0  0  0  0  0  0
   -8.4847  -15.3928   26.3870 C   0  0  0  0  0  0  0  0  0  0  0  0
   -7.8423  -14.3156   27.5496 C   0  0  0  0  0  0  0  0  0  0  0  0
   -6.7229  -12.6868   27.2291 C   0  0  0  0  0  0  0  0  0  0  0  0
   -6.3935  -11.1388   26.3977 N   0  0  0  0  0  0  0  0  0  0  0  0
   -6.0784   -9.4310   27.4258 C   0  0  0  0  0  0  0  0  0  0  0  0
   -4.5423   -7.9335   27.5682 C   0  0  0  0  0  0  0  0  0  0  0  0
   -2.8365   -7.4255   26.5903 C   0  0  0  0  0  0  0  0  0  0  0  0
   -1.3174   -7.0771   27.0273 C   0  0  0  0  0  0  0  0  0  0  0  0
   -1.7069   -6.3920   28.2193 C   0  0  0  0  0  0  0  0  0  0  0  0
   -3.0418   -7.2048   28.6586 N   0  0  0  0  0  0  0  0  0  0  0  0
   -6.5595   -9.9681   28.8542 N   0  0  0  0  0  0  0  0  0  0  0  0
   -5.9394  -11.8078   28.5992 O   0  0  0  0  0  0  0  0  0  0  0  0
   -8.5220  -15.3319   28.6771 N   0  0  0  0  0  0  0  0  0  0  0  0
   -9.2663  -16.9640   28.6373 C   0  0  0  0  0  0  0  0  0  0  0  0
  -10.4126  -18.0851   29.1569 N   0  0  0  0  0  0  0  0  0  0  0  0
  -11.2174  -20.7366   29.1609 H   0  0  0  0  0  0  0  0  0  0  0  0
   -9.3471  -20.4938   27.5667 H   0  0  0  0  0  0  0  0  0  0  0  0
   -9.0696  -17.1750   25.5141 H   0  0  0  0  0  0  0  0  0  0  0  0
   -8.5750  -14.8749   25.4336 H   0  0  0  0  0  0  0  0  0  0  0  0
   -4.9485   -7.8249   28.5911 H   0  0  0  0  0  0  0  0  0  0  0  0
   -2.7301   -6.5112   26.1512 H   0  0  0  0  0  0  0  0  0  0  0  0
   -2.5045   -8.2047   25.8669 H   0  0  0  0  0  0  0  0  0  0  0  0
   -0.8088   -6.4402   26.2920 H   0  0  0  0  0  0  0  0  0  0  0  0
   -0.6288   -7.9141   27.2109 H   0  0  0  0  0  0  0  0  0  0  0  0
   -0.9589   -6.5486   29.0155 H   0  0  0  0  0  0  0  0  0  0  0  0
   -1.6889   -5.3189   28.0637 H   0  0  0  0  0  0  0  0  0  0  0  0
   -2.2848   -7.8375   28.7957 H   0  0  0  0  0  0  0  0  0  0  0  0
  1  2  2  0
  2  3  1  0
  3  4  1  0
  4  5  2  0
  5  6  1  0
  6  7  1  0
  7  8  2  0
  8  9  1  0
  9 10  1  0
 10 11  1  0
 11 12  1  0
 12 13  1  0
 13 14  1  0
  9 15  2  0
 15 16  1  0
  6 17  2  0
 17 18  1  0
 18 19  2  0
 19  1  1  0
 18  3  1  0
 16  7  1  0
 14 10  1  0
  1 20  1  0
  2 21  1  0
  4 22  1  0
  5 23  1  0
 10 24  1  0
 11 25  1  0
 11 26  1  0
 12 27  1  0
 12 28  1  0
 13 29  1  0
 13 30  1  0
 14 31  1  0
M  END
>  <Energy>  (897) 
1710.6418408424342

>  <compound_id>  (897) 
8811

>  <target_id>  (897) 
1

>  <reference_id>  (897) 
107

>  <inspiration_ids>  (897) 
[53, 107]

>  <energy_score>  (897) 
1585.6412668177366

>  <distance_score>  (897) 
11.071930154761603

>  <path>  (897) 
/opt/xchem-fragalysis-2/maxwin/BulkDock/SCRATCH/511013/C8811-P107/C8811-P107.minimised.mol

>  <scratch_subdir>  (897) 
/opt/xchem-fragalysis-2/maxwin/BulkDock/SCRATCH/511013/C8811-P107

>  <fragmenstein_runtime>  (897) 
6.028601408004761

>  <fragmenstein_outcome>  (897) 
too moved

>  <fragmenstein_mode>  (897) 
expansion

>  <fragmenstein_error>  (897) 


$$$$
C8814-P53
     RDKit          3D

 40 43  0  0  0  0  0  0  0  0999 V2000
   -5.6084   -3.9873   30.7215 C   0  0  0  0  0  0  0  0  0  0  0  0
   -5.6858   -4.2214   29.3041 C   0  0  0  0  0  0  0  0  0  0  0  0
   -6.1222   -5.5407   28.5599 C   0  0  0  0  0  0  0  0  0  0  0  0
   -6.3299   -6.7771   29.2663 C   0  0  0  0  0  0  0  0  0  0  0  0
   -6.9504   -8.6387   28.6705 O   0  0  0  0  0  0  0  0  0  0  0  0
   -8.3605   -9.6338   27.4866 C   0  0  0  0  0  0  0  0  0  0  0  0
   -8.5896  -11.8170   26.6341 C   0  0  0  0  0  0  0  0  0  0  0  0
   -7.0045  -11.8534   25.9149 C   0  0  0  0  0  0  0  0  0  0  0  0
   -6.7564  -12.9330   26.9283 C   0  0  0  0  0  0  0  0  0  0  0  0
   -7.5526  -13.7378   27.9012 C   0  0  0  0  0  0  0  0  0  0  0  0
   -8.7202  -13.9724   27.1442 N   0  0  0  0  0  0  0  0  0  0  0  0
   -8.6983  -16.0356   27.1286 C   0  0  0  0  0  0  0  0  0  0  0  0
   -8.1129  -17.9244   27.5978 C   0  0  0  0  0  0  0  0  0  0  0  0
   -7.2948  -19.5788   26.9602 C   0  0  0  0  0  0  0  0  0  0  0  0
   -8.3082  -20.8202   27.7417 N   0  0  0  0  0  0  0  0  0  0  0  0
   -9.7307  -21.8588   28.2768 C   0  0  0  0  0  0  0  0  0  0  0  0
  -10.7609  -21.3370   28.9748 C   0  0  0  0  0  0  0  0  0  0  0  0
  -10.3055  -20.0957   29.3887 N   0  0  0  0  0  0  0  0  0  0  0  0
   -9.3288  -19.3755   28.2265 C   0  0  0  0  0  0  0  0  0  0  0  0
   -9.5062  -17.5809   27.4937 N   0  0  0  0  0  0  0  0  0  0  0  0
   -6.5737   -6.1280   31.0013 C   0  0  0  0  0  0  0  0  0  0  0  0
   -6.1634   -4.8785   31.5914 C   0  0  0  0  0  0  0  0  0  0  0  0
   -5.1578   -3.1042   31.1526 H   0  0  0  0  0  0  0  0  0  0  0  0
   -5.2994   -3.4529   28.6386 H   0  0  0  0  0  0  0  0  0  0  0  0
   -6.1976   -5.6155   27.5173 H   0  0  0  0  0  0  0  0  0  0  0  0
   -9.2242   -9.2953   28.0843 H   0  0  0  0  0  0  0  0  0  0  0  0
   -7.7787   -9.1900   26.6677 H   0  0  0  0  0  0  0  0  0  0  0  0
   -9.4513  -11.6243   25.9049 H   0  0  0  0  0  0  0  0  0  0  0  0
   -6.5384  -12.0516   24.9526 H   0  0  0  0  0  0  0  0  0  0  0  0
   -6.5949  -10.8476   25.8787 H   0  0  0  0  0  0  0  0  0  0  0  0
   -6.7384  -13.6828   26.1801 H   0  0  0  0  0  0  0  0  0  0  0  0
   -5.9801  -12.4281   27.4155 H   0  0  0  0  0  0  0  0  0  0  0  0
   -8.1117  -13.7206   28.7882 H   0  0  0  0  0  0  0  0  0  0  0  0
   -6.8213  -14.3612   28.4015 H   0  0  0  0  0  0  0  0  0  0  0  0
   -8.3119  -17.9577   28.6662 H   0  0  0  0  0  0  0  0  0  0  0  0
   -6.1779  -19.7583   26.7737 H   0  0  0  0  0  0  0  0  0  0  0  0
   -9.4661  -22.8912   28.0249 H   0  0  0  0  0  0  0  0  0  0  0  0
  -11.6425  -21.8016   29.3895 H   0  0  0  0  0  0  0  0  0  0  0  0
   -6.9089   -6.7731   31.8292 H   0  0  0  0  0  0  0  0  0  0  0  0
   -6.2448   -4.6993   32.6570 H   0  0  0  0  0  0  0  0  0  0  0  0
  1  2  2  0
  2  3  1  0
  3  4  2  0
  4  5  1  0
  5  6  1  0
  6  7  1  0
  7  8  1  0
  8  9  1  0
  9 10  1  0
 10 11  1  0
 11 12  1  0
 12 13  1  0
 13 14  2  0
 14 15  1  0
 15 16  1  0
 16 17  2  0
 17 18  1  0
 18 19  2  0
 19 20  1  0
  4 21  1  0
 21 22  2  0
 22  1  1  0
 11  7  1  0
 20 12  2  0
 19 15  1  0
  1 23  1  0
  2 24  1  0
  3 25  1  0
  6 26  1  0
  6 27  1  0
  7 28  1  0
  8 29  1  0
  8 30  1  0
  9 31  1  0
  9 32  1  0
 10 33  1  0
 10 34  1  0
 13 35  1  0
 14 36  1  0
 16 37  1  0
 17 38  1  0
 21 39  1  0
 22 40  1  0
M  END
>  <Energy>  (898) 
2451.4067360617396

>  <compound_id>  (898) 
8814

>  <target_id>  (898) 
1

>  <reference_id>  (898) 
53

>  <inspiration_ids>  (898) 
[53, 107]

>  <energy_score>  (898) 
2380.5229211827536

>  <distance_score>  (898) 
8.757876495875376

>  <path>  (898) 
/opt/xchem-fragalysis-2/maxwin/BulkDock/SCRATCH/511013/C8814-P53/C8814-P53.minimised.mol

>  <scratch_subdir>  (898) 
/opt/xchem-fragalysis-2/maxwin/BulkDock/SCRATCH/511013/C8814-P53

>  <fragmenstein_runtime>  (898) 
12.120296716690063

>  <fragmenstein_outcome>  (898) 
too moved

>  <fragmenstein_mode>  (898) 
expansion

>  <fragmenstein_error>  (898) 


$$$$
C8814-P107
     RDKit          3D

 40 43  0  0  0  0  0  0  0  0999 V2000
   -5.8510   -3.6324   30.6529 C   0  0  0  0  0  0  0  0  0  0  0  0
   -6.3105   -4.5267   31.5977 C   0  0  0  0  0  0  0  0  0  0  0  0
   -6.6225   -5.8177   31.1456 C   0  0  0  0  0  0  0  0  0  0  0  0
   -6.4097   -6.4180   29.4852 C   0  0  0  0  0  0  0  0  0  0  0  0
   -5.9871   -8.2469   29.1835 O   0  0  0  0  0  0  0  0  0  0  0  0
   -6.5198  -10.1310   29.3978 C   0  0  0  0  0  0  0  0  0  0  0  0
   -5.9479  -12.1547   28.7690 C   0  0  0  0  0  0  0  0  0  0  0  0
   -5.4945  -12.1346   27.2701 C   0  0  0  0  0  0  0  0  0  0  0  0
   -6.6267  -12.3754   26.2338 C   0  0  0  0  0  0  0  0  0  0  0  0
   -7.4519  -13.3823   26.9004 C   0  0  0  0  0  0  0  0  0  0  0  0
   -7.0923  -13.7328   28.2419 N   0  0  0  0  0  0  0  0  0  0  0  0
   -7.7818  -15.4137   28.0605 C   0  0  0  0  0  0  0  0  0  0  0  0
   -8.7942  -15.8862   26.8125 C   0  0  0  0  0  0  0  0  0  0  0  0
   -9.3963  -17.1083   26.6520 C   0  0  0  0  0  0  0  0  0  0  0  0
   -9.1085  -18.4944   27.5580 N   0  0  0  0  0  0  0  0  0  0  0  0
   -9.4913  -20.3488   27.8843 C   0  0  0  0  0  0  0  0  0  0  0  0
  -10.3143  -20.3741   29.2094 C   0  0  0  0  0  0  0  0  0  0  0  0
  -10.2355  -18.4746   29.1399 N   0  0  0  0  0  0  0  0  0  0  0  0
   -8.4909  -18.1066   28.5884 C   0  0  0  0  0  0  0  0  0  0  0  0
   -7.5056  -16.7898   28.3117 N   0  0  0  0  0  0  0  0  0  0  0  0
   -6.0842   -5.2797   28.6792 C   0  0  0  0  0  0  0  0  0  0  0  0
   -5.8132   -3.9408   29.2620 C   0  0  0  0  0  0  0  0  0  0  0  0
   -5.5505   -2.6610   31.0287 H   0  0  0  0  0  0  0  0  0  0  0  0
   -6.4006   -4.2580   32.6449 H   0  0  0  0  0  0  0  0  0  0  0  0
   -6.9170   -6.5099   31.9439 H   0  0  0  0  0  0  0  0  0  0  0  0
   -7.5475   -9.8106   29.2333 H   0  0  0  0  0  0  0  0  0  0  0  0
   -6.4167  -10.1946   30.4705 H   0  0  0  0  0  0  0  0  0  0  0  0
   -5.1669  -12.4921   29.5024 H   0  0  0  0  0  0  0  0  0  0  0  0
   -5.5787  -11.1594   26.9941 H   0  0  0  0  0  0  0  0  0  0  0  0
   -4.3785  -12.2300   27.2177 H   0  0  0  0  0  0  0  0  0  0  0  0
   -6.2730  -12.5373   25.2192 H   0  0  0  0  0  0  0  0  0  0  0  0
   -7.1862  -11.4851   25.8789 H   0  0  0  0  0  0  0  0  0  0  0  0
   -8.5191  -13.2222   27.0337 H   0  0  0  0  0  0  0  0  0  0  0  0
   -7.3211  -14.1716   26.1808 H   0  0  0  0  0  0  0  0  0  0  0  0
   -8.7904  -15.2454   25.9762 H   0  0  0  0  0  0  0  0  0  0  0  0
   -9.9820  -17.1592   25.7511 H   0  0  0  0  0  0  0  0  0  0  0  0
  -10.0755  -20.8066   27.0986 H   0  0  0  0  0  0  0  0  0  0  0  0
  -11.2403  -20.8723   29.4926 H   0  0  0  0  0  0  0  0  0  0  0  0
   -6.1927   -5.5388   27.6580 H   0  0  0  0  0  0  0  0  0  0  0  0
   -5.5012   -3.1810   28.5495 H   0  0  0  0  0  0  0  0  0  0  0  0
  1  2  2  0
  2  3  1  0
  3  4  2  0
  4  5  1  0
  5  6  1  0
  6  7  1  0
  7  8  1  0
  8  9  1  0
  9 10  1  0
 10 11  1  0
 11 12  1  0
 12 13  1  0
 13 14  2  0
 14 15  1  0
 15 16  1  0
 16 17  2  0
 17 18  1  0
 18 19  2  0
 19 20  1  0
  4 21  1  0
 21 22  2  0
 22  1  1  0
 11  7  1  0
 20 12  2  0
 19 15  1  0
  1 23  1  0
  2 24  1  0
  3 25  1  0
  6 26  1  0
  6 27  1  0
  7 28  1  0
  8 29  1  0
  8 30  1  0
  9 31  1  0
  9 32  1  0
 10 33  1  0
 10 34  1  0
 13 35  1  0
 14 36  1  0
 16 37  1  0
 17 38  1  0
 21 39  1  0
 22 40  1  0
M  END
>  <Energy>  (899) 
1262.9411685015332

>  <compound_id>  (899) 
8814

>  <target_id>  (899) 
1

>  <reference_id>  (899) 
107

>  <inspiration_ids>  (899) 
[53, 107]

>  <energy_score>  (899) 
1192.0573536225352

>  <distance_score>  (899) 
9.015881433582829

>  <path>  (899) 
/opt/xchem-fragalysis-2/maxwin/BulkDock/SCRATCH/511013/C8814-P107/C8814-P107.minimised.mol

>  <scratch_subdir>  (899) 
/opt/xchem-fragalysis-2/maxwin/BulkDock/SCRATCH/511013/C8814-P107

>  <fragmenstein_runtime>  (899) 
9.995375633239746

>  <fragmenstein_outcome>  (899) 
too moved

>  <fragmenstein_mode>  (899) 
expansion

>  <fragmenstein_error>  (899) 


$$$$
C8817-P53
     RDKit          3D

 42 45  0  0  0  0  0  0  0  0999 V2000
   -3.4777  -14.5319   28.2065 C   0  0  0  0  0  0  0  0  0  0  0  0
   -4.5604  -13.4646   28.2075 C   0  0  0  0  0  0  0  0  0  0  0  0
   -5.9478  -14.0842   28.2828 C   0  0  0  0  0  0  0  0  0  0  0  0
   -6.8411  -14.0139   27.2244 C   0  0  0  0  0  0  0  0  0  0  0  0
   -8.2235  -14.4001   27.3698 C   0  0  0  0  0  0  0  0  0  0  0  0
   -8.8336  -14.9020   28.5525 C   0  0  0  0  0  0  0  0  0  0  0  0
  -10.5142  -15.1782   28.5187 C   0  0  0  0  0  0  0  0  0  0  0  0
  -10.5490  -16.1626   27.3995 C   0  0  0  0  0  0  0  0  0  0  0  0
  -10.4177  -17.3437   28.3281 C   0  0  0  0  0  0  0  0  0  0  0  0
  -11.8050  -17.6497   29.0257 N   0  0  0  0  0  0  0  0  0  0  0  0
  -12.7428  -19.1755   29.3832 C   0  0  0  0  0  0  0  0  0  0  0  0
  -12.2070  -20.6018   29.4093 C   0  0  0  0  0  0  0  0  0  0  0  0
  -13.0722  -21.5426   29.7184 C   0  0  0  0  0  0  0  0  0  0  0  0
  -14.4478  -21.4299   30.6756 N   0  0  0  0  0  0  0  0  0  0  0  0
  -15.4615  -22.2477   31.1806 C   0  0  0  0  0  0  0  0  0  0  0  0
  -16.3598  -21.3700   31.7499 C   0  0  0  0  0  0  0  0  0  0  0  0
  -16.0532  -20.0674   31.4273 N   0  0  0  0  0  0  0  0  0  0  0  0
  -14.9654  -20.1817   30.7024 C   0  0  0  0  0  0  0  0  0  0  0  0
  -14.1212  -19.2509   29.7507 N   0  0  0  0  0  0  0  0  0  0  0  0
  -11.8889  -16.0718   29.3893 C   0  0  0  0  0  0  0  0  0  0  0  0
   -7.8647  -15.0737   29.5623 C   0  0  0  0  0  0  0  0  0  0  0  0
   -6.4648  -14.6852   29.4348 C   0  0  0  0  0  0  0  0  0  0  0  0
   -3.4933  -15.1201   29.1300 H   0  0  0  0  0  0  0  0  0  0  0  0
   -2.4916  -14.0683   28.1192 H   0  0  0  0  0  0  0  0  0  0  0  0
   -3.6041  -15.2224   27.3657 H   0  0  0  0  0  0  0  0  0  0  0  0
   -4.4719  -12.8659   27.2963 H   0  0  0  0  0  0  0  0  0  0  0  0
   -4.4231  -12.7903   29.0584 H   0  0  0  0  0  0  0  0  0  0  0  0
   -6.5057  -13.6058   26.2759 H   0  0  0  0  0  0  0  0  0  0  0  0
   -8.8738  -14.2805   26.5094 H   0  0  0  0  0  0  0  0  0  0  0  0
  -10.9602  -14.2331   28.2044 H   0  0  0  0  0  0  0  0  0  0  0  0
   -9.7508  -16.1728   26.6555 H   0  0  0  0  0  0  0  0  0  0  0  0
  -11.4707  -16.0263   26.8439 H   0  0  0  0  0  0  0  0  0  0  0  0
   -9.6723  -18.0192   27.9106 H   0  0  0  0  0  0  0  0  0  0  0  0
   -9.7506  -17.0611   29.1048 H   0  0  0  0  0  0  0  0  0  0  0  0
  -11.2642  -20.9548   29.0246 H   0  0  0  0  0  0  0  0  0  0  0  0
  -12.7172  -22.5363   29.4650 H   0  0  0  0  0  0  0  0  0  0  0  0
  -15.4201  -23.3241   31.1283 H   0  0  0  0  0  0  0  0  0  0  0  0
  -17.2503  -21.6126   32.3155 H   0  0  0  0  0  0  0  0  0  0  0  0
  -12.8045  -15.6704   28.9427 H   0  0  0  0  0  0  0  0  0  0  0  0
  -11.8137  -15.8449   30.4490 H   0  0  0  0  0  0  0  0  0  0  0  0
   -8.1432  -15.3866   30.5602 H   0  0  0  0  0  0  0  0  0  0  0  0
   -5.8330  -14.7937   30.3155 H   0  0  0  0  0  0  0  0  0  0  0  0
  1  2  1  0
  2  3  1  0
  3  4  2  0
  4  5  1  0
  5  6  2  0
  6  7  1  0
  7  8  1  0
  8  9  1  0
  9 10  1  0
 10 11  1  0
 11 12  1  0
 12 13  2  0
 13 14  1  0
 14 15  1  0
 15 16  2  0
 16 17  1  0
 17 18  2  0
 18 19  1  0
 10 20  1  0
  6 21  1  0
 21 22  2  0
 22  3  1  0
 20  7  1  0
 19 11  2  0
 18 14  1  0
  1 23  1  0
  1 24  1  0
  1 25  1  0
  2 26  1  0
  2 27  1  0
  4 28  1  0
  5 29  1  0
  7 30  1  0
  8 31  1  0
  8 32  1  0
  9 33  1  0
  9 34  1  0
 12 35  1  0
 13 36  1  0
 15 37  1  0
 16 38  1  0
 20 39  1  0
 20 40  1  0
 21 41  1  0
 22 42  1  0
M  END
>  <Energy>  (900) 
341.87989477595727

>  <compound_id>  (900) 
8817

>  <target_id>  (900) 
1

>  <reference_id>  (900) 
53

>  <inspiration_ids>  (900) 
[53, 107]

>  <energy_score>  (900) 
273.57489197530026

>  <distance_score>  (900) 
14.49165261932629

>  <path>  (900) 
/opt/xchem-fragalysis-2/maxwin/BulkDock/SCRATCH/511013/C8817-P53/C8817-P53.minimised.mol

>  <scratch_subdir>  (900) 
/opt/xchem-fragalysis-2/maxwin/BulkDock/SCRATCH/511013/C8817-P53

>  <fragmenstein_runtime>  (900) 
15.313037157058716

>  <fragmenstein_outcome>  (900) 
too moved

>  <fragmenstein_mode>  (900) 
expansion

>  <fragmenstein_error>  (900) 


$$$$
C8817-P107
     RDKit          3D

 42 45  0  0  0  0  0  0  0  0999 V2000
    1.0923   -4.0627   32.5913 C   0  0  0  0  0  0  0  0  0  0  0  0
    1.1614   -5.0737   31.4583 C   0  0  0  0  0  0  0  0  0  0  0  0
    0.4528   -6.3662   31.8156 C   0  0  0  0  0  0  0  0  0  0  0  0
    1.1242   -7.4551   32.3650 C   0  0  0  0  0  0  0  0  0  0  0  0
    0.4524   -8.6741   32.6658 C   0  0  0  0  0  0  0  0  0  0  0  0
   -0.9283   -8.8711   32.4574 C   0  0  0  0  0  0  0  0  0  0  0  0
   -1.6876  -10.1590   32.9583 C   0  0  0  0  0  0  0  0  0  0  0  0
   -0.8316  -11.3496   33.4227 C   0  0  0  0  0  0  0  0  0  0  0  0
   -1.8478  -12.4877   33.6497 C   0  0  0  0  0  0  0  0  0  0  0  0
   -2.8067  -12.3538   32.5491 N   0  0  0  0  0  0  0  0  0  0  0  0
   -3.7480  -13.3836   32.2623 C   0  0  0  0  0  0  0  0  0  0  0  0
   -4.3315  -13.5513   30.8673 C   0  0  0  0  0  0  0  0  0  0  0  0
   -5.1163  -14.6174   30.6267 C   0  0  0  0  0  0  0  0  0  0  0  0
   -5.4128  -15.4886   31.6582 N   0  0  0  0  0  0  0  0  0  0  0  0
   -6.1623  -16.6342   31.6666 C   0  0  0  0  0  0  0  0  0  0  0  0
   -6.1497  -17.0620   32.9724 C   0  0  0  0  0  0  0  0  0  0  0  0
   -5.4093  -16.2093   33.7536 N   0  0  0  0  0  0  0  0  0  0  0  0
   -4.9308  -15.2813   32.9423 C   0  0  0  0  0  0  0  0  0  0  0  0
   -4.0732  -14.2411   33.2155 N   0  0  0  0  0  0  0  0  0  0  0  0
   -2.7414  -10.9444   32.0682 C   0  0  0  0  0  0  0  0  0  0  0  0
   -1.5934   -7.7416   31.9514 C   0  0  0  0  0  0  0  0  0  0  0  0
   -0.9205   -6.5224   31.6430 C   0  0  0  0  0  0  0  0  0  0  0  0
    1.6147   -3.1429   32.3102 H   0  0  0  0  0  0  0  0  0  0  0  0
    1.5595   -4.4547   33.5011 H   0  0  0  0  0  0  0  0  0  0  0  0
    0.0554   -3.8041   32.8312 H   0  0  0  0  0  0  0  0  0  0  0  0
    0.7112   -4.6530   30.5511 H   0  0  0  0  0  0  0  0  0  0  0  0
    2.2086   -5.2868   31.2126 H   0  0  0  0  0  0  0  0  0  0  0  0
    2.1896   -7.3899   32.5743 H   0  0  0  0  0  0  0  0  0  0  0  0
    1.0543   -9.4714   33.1001 H   0  0  0  0  0  0  0  0  0  0  0  0
   -2.2363   -9.8088   33.8466 H   0  0  0  0  0  0  0  0  0  0  0  0
   -0.2670  -11.1345   34.3354 H   0  0  0  0  0  0  0  0  0  0  0  0
   -0.1206  -11.6382   32.6382 H   0  0  0  0  0  0  0  0  0  0  0  0
   -2.3599  -12.3599   34.6100 H   0  0  0  0  0  0  0  0  0  0  0  0
   -1.3457  -13.4604   33.6347 H   0  0  0  0  0  0  0  0  0  0  0  0
   -4.0512  -12.8435   30.1014 H   0  0  0  0  0  0  0  0  0  0  0  0
   -5.5405  -14.8329   29.6551 H   0  0  0  0  0  0  0  0  0  0  0  0
   -6.6101  -17.0465   30.7755 H   0  0  0  0  0  0  0  0  0  0  0  0
   -6.6216  -17.9436   33.3892 H   0  0  0  0  0  0  0  0  0  0  0  0
   -3.7185  -10.4728   32.1900 H   0  0  0  0  0  0  0  0  0  0  0  0
   -2.4261  -10.9285   31.0287 H   0  0  0  0  0  0  0  0  0  0  0  0
   -2.6712   -7.7843   31.8359 H   0  0  0  0  0  0  0  0  0  0  0  0
   -1.4879   -5.6683   31.3015 H   0  0  0  0  0  0  0  0  0  0  0  0
  1  2  1  0
  2  3  1  0
  3  4  2  0
  4  5  1  0
  5  6  2  0
  6  7  1  0
  7  8  1  0
  8  9  1  0
  9 10  1  0
 10 11  1  0
 11 12  1  0
 12 13  2  0
 13 14  1  0
 14 15  1  0
 15 16  2  0
 16 17  1  0
 17 18  2  0
 18 19  1  0
 10 20  1  0
  6 21  1  0
 21 22  2  0
 22  3  1  0
 20  7  1  0
 19 11  2  0
 18 14  1  0
  1 23  1  0
  1 24  1  0
  1 25  1  0
  2 26  1  0
  2 27  1  0
  4 28  1  0
  5 29  1  0
  7 30  1  0
  8 31  1  0
  8 32  1  0
  9 33  1  0
  9 34  1  0
 12 35  1  0
 13 36  1  0
 15 37  1  0
 16 38  1  0
 20 39  1  0
 20 40  1  0
 21 41  1  0
 22 42  1  0
M  END
>  <Energy>  (901) 
43.472822535098928

>  <compound_id>  (901) 
8817

>  <target_id>  (901) 
1

>  <reference_id>  (901) 
107

>  <inspiration_ids>  (901) 
[53, 107]

>  <energy_score>  (901) 
-24.832180265555223

>  <distance_score>  (901) 
12.54828437386726

>  <path>  (901) 
/opt/xchem-fragalysis-2/maxwin/BulkDock/SCRATCH/511013/C8817-P107/C8817-P107.minimised.mol

>  <scratch_subdir>  (901) 
/opt/xchem-fragalysis-2/maxwin/BulkDock/SCRATCH/511013/C8817-P107

>  <fragmenstein_runtime>  (901) 
10.823781967163086

>  <fragmenstein_outcome>  (901) 
too moved

>  <fragmenstein_mode>  (901) 
expansion

>  <fragmenstein_error>  (901) 


$$$$
C8819-P53
     RDKit          3D

 36 38  0  0  0  0  0  0  0  0999 V2000
    0.2067   -4.6058   28.6129 N   0  0  0  0  0  0  0  0  0  0  0  0
   -1.1480   -4.1318   28.4283 C   0  0  0  0  0  0  0  0  0  0  0  0
   -1.8920   -3.6530   29.1964 O   0  0  0  0  0  0  0  0  0  0  0  0
   -1.2935   -4.3698   26.7253 N   0  0  0  0  0  0  0  0  0  0  0  0
   -2.8115   -3.6908   25.4802 C   0  0  0  0  0  0  0  0  0  0  0  0
   -2.7091   -4.0990   23.9138 C   0  0  0  0  0  0  0  0  0  0  0  0
   -1.9242   -5.4230   24.0266 C   0  0  0  0  0  0  0  0  0  0  0  0
   -2.0225   -5.9992   25.8745 C   0  0  0  0  0  0  0  0  0  0  0  0
   -2.5109   -7.8976   26.3974 C   0  0  0  0  0  0  0  0  0  0  0  0
   -2.2236   -9.9279   26.2219 O   0  0  0  0  0  0  0  0  0  0  0  0
   -3.2017  -11.5728   26.6300 C   0  0  0  0  0  0  0  0  0  0  0  0
   -2.5011  -12.5769   26.5977 O   0  0  0  0  0  0  0  0  0  0  0  0
   -5.3082  -11.7808   26.9370 C   0  0  0  0  0  0  0  0  0  0  0  0
   -6.5002  -11.7962   25.4777 C   0  0  0  0  0  0  0  0  0  0  0  0
   -7.5393  -12.6568   25.3256 C   0  0  0  0  0  0  0  0  0  0  0  0
   -7.7898  -13.5859   26.3056 N   0  0  0  0  0  0  0  0  0  0  0  0
   -8.6657  -14.6454   26.3571 C   0  0  0  0  0  0  0  0  0  0  0  0
   -8.4182  -15.2561   27.5618 C   0  0  0  0  0  0  0  0  0  0  0  0
   -7.4280  -14.5903   28.2348 N   0  0  0  0  0  0  0  0  0  0  0  0
   -7.0809  -13.5459   27.4803 C   0  0  0  0  0  0  0  0  0  0  0  0
   -6.1943  -12.4525   27.7974 N   0  0  0  0  0  0  0  0  0  0  0  0
    0.6014   -4.8577   27.6964 H   0  0  0  0  0  0  0  0  0  0  0  0
    0.5183   -5.0699   27.7531 H   0  0  0  0  0  0  0  0  0  0  0  0
   -2.5736   -2.5946   25.5432 H   0  0  0  0  0  0  0  0  0  0  0  0
   -3.8121   -3.2686   25.7855 H   0  0  0  0  0  0  0  0  0  0  0  0
   -2.2281   -3.3663   23.2602 H   0  0  0  0  0  0  0  0  0  0  0  0
   -3.7118   -4.2592   23.4979 H   0  0  0  0  0  0  0  0  0  0  0  0
   -2.3268   -6.1584   23.3304 H   0  0  0  0  0  0  0  0  0  0  0  0
   -0.8956   -5.2282   23.7109 H   0  0  0  0  0  0  0  0  0  0  0  0
   -1.4236   -6.5837   25.2760 H   0  0  0  0  0  0  0  0  0  0  0  0
   -3.4948   -7.7877   26.8344 H   0  0  0  0  0  0  0  0  0  0  0  0
   -2.0112   -7.6453   27.3589 H   0  0  0  0  0  0  0  0  0  0  0  0
   -6.3488  -11.1391   24.6738 H   0  0  0  0  0  0  0  0  0  0  0  0
   -8.1661  -12.6793   24.4446 H   0  0  0  0  0  0  0  0  0  0  0  0
   -9.3497  -14.8655   25.5530 H   0  0  0  0  0  0  0  0  0  0  0  0
   -8.8898  -16.1339   27.9819 H   0  0  0  0  0  0  0  0  0  0  0  0
  1  2  1  0
  2  3  2  0
  2  4  1  0
  4  5  1  0
  5  6  1  0
  6  7  1  0
  7  8  1  0
  8  9  1  0
  9 10  1  0
 10 11  1  0
 11 12  2  0
 11 13  1  0
 13 14  1  0
 14 15  2  0
 15 16  1  0
 16 17  1  0
 17 18  2  0
 18 19  1  0
 19 20  2  0
 20 21  1  0
  8  4  1  0
 21 13  2  0
 20 16  1  0
  1 22  1  0
  1 23  1  0
  5 24  1  0
  5 25  1  0
  6 26  1  0
  6 27  1  0
  7 28  1  0
  7 29  1  0
  8 30  1  0
  9 31  1  0
  9 32  1  0
 14 33  1  0
 15 34  1  0
 17 35  1  0
 18 36  1  0
M  END
>  <Energy>  (902) 
1108.4409515710756

>  <compound_id>  (902) 
8819

>  <target_id>  (902) 
1

>  <reference_id>  (902) 
53

>  <inspiration_ids>  (902) 
[53, 107]

>  <energy_score>  (902) 
1051.1916486361818

>  <distance_score>  (902) 
12.059552941385338

>  <path>  (902) 
/opt/xchem-fragalysis-2/maxwin/BulkDock/SCRATCH/511013/C8819-P53/C8819-P53.minimised.mol

>  <scratch_subdir>  (902) 
/opt/xchem-fragalysis-2/maxwin/BulkDock/SCRATCH/511013/C8819-P53

>  <fragmenstein_runtime>  (902) 
11.289257287979126

>  <fragmenstein_outcome>  (902) 
too moved

>  <fragmenstein_mode>  (902) 
expansion

>  <fragmenstein_error>  (902) 


$$$$
C8819-P107
     RDKit          3D

 36 38  0  0  0  0  0  0  0  0999 V2000
   -1.1339   -8.8901   30.2852 N   0  0  0  0  0  0  0  0  0  0  0  0
   -1.2936   -7.4397   30.2380 C   0  0  0  0  0  0  0  0  0  0  0  0
   -1.4299   -6.6603   31.1072 O   0  0  0  0  0  0  0  0  0  0  0  0
   -1.1290   -7.2357   28.8061 N   0  0  0  0  0  0  0  0  0  0  0  0
   -0.9725   -6.0319   28.0522 C   0  0  0  0  0  0  0  0  0  0  0  0
   -0.5867   -6.6035   26.7754 C   0  0  0  0  0  0  0  0  0  0  0  0
   -1.9755   -7.0088   26.4708 C   0  0  0  0  0  0  0  0  0  0  0  0
   -2.8688   -7.2236   27.8927 C   0  0  0  0  0  0  0  0  0  0  0  0
   -4.8687   -7.9584   27.9534 C   0  0  0  0  0  0  0  0  0  0  0  0
   -6.3224   -9.0589   27.2670 O   0  0  0  0  0  0  0  0  0  0  0  0
   -7.5819   -9.0999   26.0167 C   0  0  0  0  0  0  0  0  0  0  0  0
   -7.8165   -8.0433   25.4146 O   0  0  0  0  0  0  0  0  0  0  0  0
   -8.5072  -10.4830   25.3374 C   0  0  0  0  0  0  0  0  0  0  0  0
   -7.6878  -11.7089   24.9123 C   0  0  0  0  0  0  0  0  0  0  0  0
   -8.3266  -12.8870   24.8410 C   0  0  0  0  0  0  0  0  0  0  0  0
   -9.6911  -12.9162   25.0276 N   0  0  0  0  0  0  0  0  0  0  0  0
  -10.5330  -13.9912   25.1509 C   0  0  0  0  0  0  0  0  0  0  0  0
  -11.7684  -13.4440   25.3889 C   0  0  0  0  0  0  0  0  0  0  0  0
  -11.7006  -12.0686   25.3857 N   0  0  0  0  0  0  0  0  0  0  0  0
  -10.4370  -11.7412   25.1679 C   0  0  0  0  0  0  0  0  0  0  0  0
   -9.8189  -10.4921   25.3175 N   0  0  0  0  0  0  0  0  0  0  0  0
   -0.9162   -9.2423   29.3249 H   0  0  0  0  0  0  0  0  0  0  0  0
   -1.1505   -9.2681   29.3131 H   0  0  0  0  0  0  0  0  0  0  0  0
   -1.6207   -5.1874   28.1335 H   0  0  0  0  0  0  0  0  0  0  0  0
   -0.0570   -5.5962   28.4812 H   0  0  0  0  0  0  0  0  0  0  0  0
   -0.1618   -5.9340   26.0541 H   0  0  0  0  0  0  0  0  0  0  0  0
    0.0964   -7.4598   26.8472 H   0  0  0  0  0  0  0  0  0  0  0  0
   -2.1871   -6.1832   25.8672 H   0  0  0  0  0  0  0  0  0  0  0  0
   -1.8596   -7.8730   25.8171 H   0  0  0  0  0  0  0  0  0  0  0  0
   -3.0043   -6.9531   28.9113 H   0  0  0  0  0  0  0  0  0  0  0  0
   -4.9612   -8.2722   28.9650 H   0  0  0  0  0  0  0  0  0  0  0  0
   -5.5343   -7.4384   28.6583 H   0  0  0  0  0  0  0  0  0  0  0  0
   -6.6295  -11.6354   24.7764 H   0  0  0  0  0  0  0  0  0  0  0  0
   -7.8295  -13.8281   24.6464 H   0  0  0  0  0  0  0  0  0  0  0  0
  -10.1811  -15.0089   25.0833 H   0  0  0  0  0  0  0  0  0  0  0  0
  -12.7085  -13.9532   25.5592 H   0  0  0  0  0  0  0  0  0  0  0  0
  1  2  1  0
  2  3  2  0
  2  4  1  0
  4  5  1  0
  5  6  1  0
  6  7  1  0
  7  8  1  0
  8  9  1  0
  9 10  1  0
 10 11  1  0
 11 12  2  0
 11 13  1  0
 13 14  1  0
 14 15  2  0
 15 16  1  0
 16 17  1  0
 17 18  2  0
 18 19  1  0
 19 20  2  0
 20 21  1  0
  8  4  1  0
 21 13  2  0
 20 16  1  0
  1 22  1  0
  1 23  1  0
  5 24  1  0
  5 25  1  0
  6 26  1  0
  6 27  1  0
  7 28  1  0
  7 29  1  0
  8 30  1  0
  9 31  1  0
  9 32  1  0
 14 33  1  0
 15 34  1  0
 17 35  1  0
 18 36  1  0
M  END
>  <Energy>  (903) 
745.5671012635629

>  <compound_id>  (903) 
8819

>  <target_id>  (903) 
1

>  <reference_id>  (903) 
107

>  <inspiration_ids>  (903) 
[53, 107]

>  <energy_score>  (903) 
688.31779832868

>  <distance_score>  (903) 
13.007381056351685

>  <path>  (903) 
/opt/xchem-fragalysis-2/maxwin/BulkDock/SCRATCH/511013/C8819-P107/C8819-P107.minimised.mol

>  <scratch_subdir>  (903) 
/opt/xchem-fragalysis-2/maxwin/BulkDock/SCRATCH/511013/C8819-P107

>  <fragmenstein_runtime>  (903) 
13.41265082359314

>  <fragmenstein_outcome>  (903) 
too moved

>  <fragmenstein_mode>  (903) 
expansion

>  <fragmenstein_error>  (903) 


$$$$
C8820-P53
     RDKit          3D

 38 40  0  0  0  0  0  0  0  0999 V2000
   -5.7235  -16.5478   31.2505 O   0  0  0  0  0  0  0  0  0  0  0  0
   -6.5912  -15.6818   31.3646 C   0  0  0  0  0  0  0  0  0  0  0  0
   -7.6667  -15.6143   30.5030 O   0  0  0  0  0  0  0  0  0  0  0  0
   -7.7406  -16.6798   29.4016 C   0  0  0  0  0  0  0  0  0  0  0  0
   -9.2270  -17.2823   28.6282 C   0  0  0  0  0  0  0  0  0  0  0  0
   -9.8294  -16.1500   27.8244 C   0  0  0  0  0  0  0  0  0  0  0  0
  -11.0184  -15.7471   28.6262 C   0  0  0  0  0  0  0  0  0  0  0  0
  -11.6622  -17.0192   29.1614 C   0  0  0  0  0  0  0  0  0  0  0  0
  -10.6477  -18.0988   29.3317 N   0  0  0  0  0  0  0  0  0  0  0  0
  -10.8756  -20.0782   29.6340 C   0  0  0  0  0  0  0  0  0  0  0  0
  -12.0633  -20.9681   29.2213 C   0  0  0  0  0  0  0  0  0  0  0  0
  -11.6267  -22.2338   29.4297 F   0  0  0  0  0  0  0  0  0  0  0  0
  -13.0747  -20.7185   30.0359 F   0  0  0  0  0  0  0  0  0  0  0  0
   -6.3639  -14.6312   32.6040 C   0  0  0  0  0  0  0  0  0  0  0  0
   -5.3024  -15.0541   33.6190 C   0  0  0  0  0  0  0  0  0  0  0  0
   -4.9188  -14.1504   34.5465 C   0  0  0  0  0  0  0  0  0  0  0  0
   -5.5139  -12.8961   34.5748 N   0  0  0  0  0  0  0  0  0  0  0  0
   -5.2433  -11.7939   35.3512 C   0  0  0  0  0  0  0  0  0  0  0  0
   -6.1532  -10.8475   34.9595 C   0  0  0  0  0  0  0  0  0  0  0  0
   -6.9630  -11.3525   33.9757 N   0  0  0  0  0  0  0  0  0  0  0  0
   -6.5401  -12.5706   33.6983 C   0  0  0  0  0  0  0  0  0  0  0  0
   -6.9263  -13.4489   32.7028 N   0  0  0  0  0  0  0  0  0  0  0  0
   -7.1422  -16.2675   28.5817 H   0  0  0  0  0  0  0  0  0  0  0  0
   -7.2222  -17.5546   29.7892 H   0  0  0  0  0  0  0  0  0  0  0  0
   -8.8246  -17.9907   27.9309 H   0  0  0  0  0  0  0  0  0  0  0  0
   -9.1422  -15.3110   27.6783 H   0  0  0  0  0  0  0  0  0  0  0  0
  -10.1416  -16.4867   26.8322 H   0  0  0  0  0  0  0  0  0  0  0  0
  -10.6920  -15.1269   29.4676 H   0  0  0  0  0  0  0  0  0  0  0  0
  -11.7243  -15.1513   28.0381 H   0  0  0  0  0  0  0  0  0  0  0  0
  -12.4481  -17.2700   28.4949 H   0  0  0  0  0  0  0  0  0  0  0  0
  -12.1018  -16.6354   30.0757 H   0  0  0  0  0  0  0  0  0  0  0  0
  -10.7274  -20.3874   30.6829 H   0  0  0  0  0  0  0  0  0  0  0  0
  -10.2649  -20.6269   28.9466 H   0  0  0  0  0  0  0  0  0  0  0  0
  -12.3794  -20.9617   28.1857 H   0  0  0  0  0  0  0  0  0  0  0  0
   -4.8718  -16.0441   33.5334 H   0  0  0  0  0  0  0  0  0  0  0  0
   -4.1492  -14.3553   35.2792 H   0  0  0  0  0  0  0  0  0  0  0  0
   -4.4704  -11.7972   36.1051 H   0  0  0  0  0  0  0  0  0  0  0  0
   -6.2923   -9.8455   35.3435 H   0  0  0  0  0  0  0  0  0  0  0  0
  1  2  2  0
  2  3  1  0
  3  4  1  0
  4  5  1  0
  5  6  1  0
  6  7  1  0
  7  8  1  0
  8  9  1  0
  9 10  1  0
 10 11  1  0
 11 12  1  0
 11 13  1  0
  2 14  1  0
 14 15  1  0
 15 16  2  0
 16 17  1  0
 17 18  1  0
 18 19  2  0
 19 20  1  0
 20 21  2  0
 21 22  1  0
  9  5  1  0
 22 14  2  0
 21 17  1  0
  4 23  1  0
  4 24  1  0
  5 25  1  0
  6 26  1  0
  6 27  1  0
  7 28  1  0
  7 29  1  0
  8 30  1  0
  8 31  1  0
 10 32  1  0
 10 33  1  0
 11 34  1  0
 15 35  1  0
 16 36  1  0
 18 37  1  0
 19 38  1  0
M  END
>  <Energy>  (904) 
331.73537163478784

>  <compound_id>  (904) 
8820

>  <target_id>  (904) 
1

>  <reference_id>  (904) 
53

>  <inspiration_ids>  (904) 
[53, 107]

>  <energy_score>  (904) 
171.27084995415055

>  <distance_score>  (904) 
15.452259005572742

>  <path>  (904) 
/opt/xchem-fragalysis-2/maxwin/BulkDock/SCRATCH/511013/C8820-P53/C8820-P53.minimised.mol

>  <scratch_subdir>  (904) 
/opt/xchem-fragalysis-2/maxwin/BulkDock/SCRATCH/511013/C8820-P53

>  <fragmenstein_runtime>  (904) 
9.607971429824829

>  <fragmenstein_outcome>  (904) 
too moved

>  <fragmenstein_mode>  (904) 
expansion

>  <fragmenstein_error>  (904) 


$$$$
C8820-P107
     RDKit          3D

 38 40  0  0  0  0  0  0  0  0999 V2000
   -9.8475   -7.2230   35.3968 O   0  0  0  0  0  0  0  0  0  0  0  0
   -9.4440   -7.4838   34.2714 C   0  0  0  0  0  0  0  0  0  0  0  0
   -9.6506   -8.6961   33.6579 O   0  0  0  0  0  0  0  0  0  0  0  0
  -10.3536   -9.7874   34.4225 C   0  0  0  0  0  0  0  0  0  0  0  0
  -10.1401  -11.3222   33.9211 C   0  0  0  0  0  0  0  0  0  0  0  0
   -8.6922  -11.7752   34.1791 C   0  0  0  0  0  0  0  0  0  0  0  0
   -8.7686  -13.2244   34.6281 C   0  0  0  0  0  0  0  0  0  0  0  0
  -10.0598  -13.2283   35.4074 C   0  0  0  0  0  0  0  0  0  0  0  0
  -10.9731  -12.3837   34.6209 N   0  0  0  0  0  0  0  0  0  0  0  0
  -11.8927  -13.2099   33.7682 C   0  0  0  0  0  0  0  0  0  0  0  0
  -11.6055  -14.6731   33.3181 C   0  0  0  0  0  0  0  0  0  0  0  0
  -10.5039  -14.7097   32.5295 F   0  0  0  0  0  0  0  0  0  0  0  0
  -12.6447  -15.1078   32.5492 F   0  0  0  0  0  0  0  0  0  0  0  0
   -8.6910   -6.3153   33.4395 C   0  0  0  0  0  0  0  0  0  0  0  0
   -9.4039   -5.7743   32.2221 C   0  0  0  0  0  0  0  0  0  0  0  0
   -8.8669   -4.6976   31.6167 C   0  0  0  0  0  0  0  0  0  0  0  0
   -7.7136   -4.1298   32.1283 N   0  0  0  0  0  0  0  0  0  0  0  0
   -7.0415   -3.0013   31.7339 C   0  0  0  0  0  0  0  0  0  0  0  0
   -6.0127   -2.8651   32.6308 C   0  0  0  0  0  0  0  0  0  0  0  0
   -6.0227   -3.9018   33.5382 N   0  0  0  0  0  0  0  0  0  0  0  0
   -7.0670   -4.6637   33.2400 C   0  0  0  0  0  0  0  0  0  0  0  0
   -7.5588   -5.7927   33.8791 N   0  0  0  0  0  0  0  0  0  0  0  0
  -10.0556   -9.7173   35.4751 H   0  0  0  0  0  0  0  0  0  0  0  0
  -11.4220   -9.5579   34.3433 H   0  0  0  0  0  0  0  0  0  0  0  0
  -10.3361  -11.3296   32.8472 H   0  0  0  0  0  0  0  0  0  0  0  0
   -8.2452  -11.1817   34.9871 H   0  0  0  0  0  0  0  0  0  0  0  0
   -8.0501  -11.6563   33.3078 H   0  0  0  0  0  0  0  0  0  0  0  0
   -7.9109  -13.5018   35.2483 H   0  0  0  0  0  0  0  0  0  0  0  0
   -8.7988  -13.9017   33.7729 H   0  0  0  0  0  0  0  0  0  0  0  0
   -9.9019  -12.7374   36.3768 H   0  0  0  0  0  0  0  0  0  0  0  0
  -10.4289  -14.2302   35.6394 H   0  0  0  0  0  0  0  0  0  0  0  0
  -12.1809  -12.6220   32.8892 H   0  0  0  0  0  0  0  0  0  0  0  0
  -12.8247  -13.2712   34.3466 H   0  0  0  0  0  0  0  0  0  0  0  0
  -11.4850  -15.3619   34.1567 H   0  0  0  0  0  0  0  0  0  0  0  0
  -10.3125   -6.2630   31.8947 H   0  0  0  0  0  0  0  0  0  0  0  0
   -9.3144   -4.2274   30.7504 H   0  0  0  0  0  0  0  0  0  0  0  0
   -7.3736   -2.4002   30.9017 H   0  0  0  0  0  0  0  0  0  0  0  0
   -5.2650   -2.0845   32.6808 H   0  0  0  0  0  0  0  0  0  0  0  0
  1  2  2  0
  2  3  1  0
  3  4  1  0
  4  5  1  0
  5  6  1  0
  6  7  1  0
  7  8  1  0
  8  9  1  0
  9 10  1  0
 10 11  1  0
 11 12  1  0
 11 13  1  0
  2 14  1  0
 14 15  1  0
 15 16  2  0
 16 17  1  0
 17 18  1  0
 18 19  2  0
 19 20  1  0
 20 21  2  0
 21 22  1  0
  9  5  1  0
 22 14  2  0
 21 17  1  0
  4 23  1  0
  4 24  1  0
  5 25  1  0
  6 26  1  0
  6 27  1  0
  7 28  1  0
  7 29  1  0
  8 30  1  0
  8 31  1  0
 10 32  1  0
 10 33  1  0
 11 34  1  0
 15 35  1  0
 16 36  1  0
 18 37  1  0
 19 38  1  0
M  END
>  <Energy>  (905) 
155.4103163553452

>  <compound_id>  (905) 
8820

>  <target_id>  (905) 
1

>  <reference_id>  (905) 
107

>  <inspiration_ids>  (905) 
[53, 107]

>  <energy_score>  (905) 
-5.054205325293253

>  <distance_score>  (905) 
13.43322313595413

>  <path>  (905) 
/opt/xchem-fragalysis-2/maxwin/BulkDock/SCRATCH/511013/C8820-P107/C8820-P107.minimised.mol

>  <scratch_subdir>  (905) 
/opt/xchem-fragalysis-2/maxwin/BulkDock/SCRATCH/511013/C8820-P107

>  <fragmenstein_runtime>  (905) 
13.628355741500854

>  <fragmenstein_outcome>  (905) 
too moved

>  <fragmenstein_mode>  (905) 
expansion

>  <fragmenstein_error>  (905) 


$$$$
C8821-P53
     RDKit          3D

 37 39  0  0  0  0  0  0  0  0999 V2000
    1.7365   -8.6820   28.7547 C   0  0  0  0  0  0  0  0  0  0  0  0
    1.1862   -7.9224   29.9055 C   0  0  0  0  0  0  0  0  0  0  0  0
    2.0233   -7.4360   30.6261 O   0  0  0  0  0  0  0  0  0  0  0  0
   -0.2640   -7.8029   29.9267 N   0  0  0  0  0  0  0  0  0  0  0  0
   -1.1182   -6.9891   30.7427 C   0  0  0  0  0  0  0  0  0  0  0  0
   -0.5982   -7.0880   32.1509 C   0  0  0  0  0  0  0  0  0  0  0  0
   -0.2382   -8.5730   32.2080 C   0  0  0  0  0  0  0  0  0  0  0  0
   -0.9841   -9.0677   30.9117 C   0  0  0  0  0  0  0  0  0  0  0  0
   -1.3544  -10.6510   29.9515 C   0  0  0  0  0  0  0  0  0  0  0  0
   -2.5055  -12.1631   29.6386 O   0  0  0  0  0  0  0  0  0  0  0  0
   -2.5408  -13.9480   29.5035 C   0  0  0  0  0  0  0  0  0  0  0  0
   -1.7940  -14.5166   28.6446 O   0  0  0  0  0  0  0  0  0  0  0  0
   -3.4053  -15.2252   30.5347 C   0  0  0  0  0  0  0  0  0  0  0  0
   -4.9487  -15.1936   30.8678 C   0  0  0  0  0  0  0  0  0  0  0  0
   -5.5289  -16.2913   31.3672 C   0  0  0  0  0  0  0  0  0  0  0  0
   -4.7476  -17.3894   31.6238 N   0  0  0  0  0  0  0  0  0  0  0  0
   -5.1075  -18.5992   32.1510 C   0  0  0  0  0  0  0  0  0  0  0  0
   -3.9352  -19.3043   32.2318 C   0  0  0  0  0  0  0  0  0  0  0  0
   -2.8818  -18.5588   31.7610 N   0  0  0  0  0  0  0  0  0  0  0  0
   -3.3741  -17.3924   31.3829 C   0  0  0  0  0  0  0  0  0  0  0  0
   -2.7155  -16.3121   30.8240 N   0  0  0  0  0  0  0  0  0  0  0  0
    0.9372   -9.3266   28.4154 H   0  0  0  0  0  0  0  0  0  0  0  0
    2.0950   -8.0022   27.9788 H   0  0  0  0  0  0  0  0  0  0  0  0
    2.6320   -9.2285   29.0627 H   0  0  0  0  0  0  0  0  0  0  0  0
   -2.1677   -7.1609   30.5760 H   0  0  0  0  0  0  0  0  0  0  0  0
   -0.8950   -5.9638   30.4333 H   0  0  0  0  0  0  0  0  0  0  0  0
    0.2813   -6.4628   32.3370 H   0  0  0  0  0  0  0  0  0  0  0  0
   -1.3731   -6.8087   32.8721 H   0  0  0  0  0  0  0  0  0  0  0  0
    0.8383   -8.7416   32.1891 H   0  0  0  0  0  0  0  0  0  0  0  0
   -0.5230   -8.7800   33.2283 H   0  0  0  0  0  0  0  0  0  0  0  0
   -2.0049   -8.8944   31.2794 H   0  0  0  0  0  0  0  0  0  0  0  0
   -1.2161  -10.3138   28.9329 H   0  0  0  0  0  0  0  0  0  0  0  0
   -0.5799  -11.1279   30.5307 H   0  0  0  0  0  0  0  0  0  0  0  0
   -5.5517  -14.3310   30.6134 H   0  0  0  0  0  0  0  0  0  0  0  0
   -6.5860  -16.3599   31.5844 H   0  0  0  0  0  0  0  0  0  0  0  0
   -6.1237  -18.8478   32.4224 H   0  0  0  0  0  0  0  0  0  0  0  0
   -3.7833  -20.3081   32.6060 H   0  0  0  0  0  0  0  0  0  0  0  0
  1  2  1  0
  2  3  2  0
  2  4  1  0
  4  5  1  0
  5  6  1  0
  6  7  1  0
  7  8  1  0
  8  9  1  0
  9 10  1  0
 10 11  1  0
 11 12  2  0
 11 13  1  0
 13 14  1  0
 14 15  2  0
 15 16  1  0
 16 17  1  0
 17 18  2  0
 18 19  1  0
 19 20  2  0
 20 21  1  0
  8  4  1  0
 21 13  2  0
 20 16  1  0
  1 22  1  0
  1 23  1  0
  1 24  1  0
  5 25  1  0
  5 26  1  0
  6 27  1  0
  6 28  1  0
  7 29  1  0
  7 30  1  0
  8 31  1  0
  9 32  1  0
  9 33  1  0
 14 34  1  0
 15 35  1  0
 17 36  1  0
 18 37  1  0
M  END
>  <Energy>  (906) 
469.62121141057997

>  <compound_id>  (906) 
8821

>  <target_id>  (906) 
1

>  <reference_id>  (906) 
53

>  <inspiration_ids>  (906) 
[53, 107]

>  <energy_score>  (906) 
374.0135007208987

>  <distance_score>  (906) 
12.108406538382201

>  <path>  (906) 
/opt/xchem-fragalysis-2/maxwin/BulkDock/SCRATCH/511013/C8821-P53/C8821-P53.minimised.mol

>  <scratch_subdir>  (906) 
/opt/xchem-fragalysis-2/maxwin/BulkDock/SCRATCH/511013/C8821-P53

>  <fragmenstein_runtime>  (906) 
10.635308265686035

>  <fragmenstein_outcome>  (906) 
too moved

>  <fragmenstein_mode>  (906) 
expansion

>  <fragmenstein_error>  (906) 


$$$$
C8821-P107
     RDKit          3D

 37 39  0  0  0  0  0  0  0  0999 V2000
   -7.0267  -12.1252   18.0576 C   0  0  0  0  0  0  0  0  0  0  0  0
   -5.9117  -11.1956   18.4912 C   0  0  0  0  0  0  0  0  0  0  0  0
   -4.8635  -11.2250   17.9017 O   0  0  0  0  0  0  0  0  0  0  0  0
   -6.3668  -10.3310   19.5363 N   0  0  0  0  0  0  0  0  0  0  0  0
   -5.7260   -9.1128   20.1560 C   0  0  0  0  0  0  0  0  0  0  0  0
   -4.3329   -9.3585   20.7072 C   0  0  0  0  0  0  0  0  0  0  0  0
   -4.5113  -10.7708   21.1622 C   0  0  0  0  0  0  0  0  0  0  0  0
   -6.0205  -10.9375   20.9359 C   0  0  0  0  0  0  0  0  0  0  0  0
   -6.4821  -12.4237   21.1413 C   0  0  0  0  0  0  0  0  0  0  0  0
   -6.7154  -12.8309   22.5267 O   0  0  0  0  0  0  0  0  0  0  0  0
   -7.9900  -12.7135   22.9687 C   0  0  0  0  0  0  0  0  0  0  0  0
   -8.8608  -12.0174   22.4710 O   0  0  0  0  0  0  0  0  0  0  0  0
   -8.3336  -13.6505   24.1463 C   0  0  0  0  0  0  0  0  0  0  0  0
   -9.3279  -14.7242   23.8197 C   0  0  0  0  0  0  0  0  0  0  0  0
   -9.7126  -15.4889   24.8504 C   0  0  0  0  0  0  0  0  0  0  0  0
   -9.1500  -15.3062   26.1080 N   0  0  0  0  0  0  0  0  0  0  0  0
   -9.3277  -15.9751   27.2954 C   0  0  0  0  0  0  0  0  0  0  0  0
   -8.3860  -15.4605   28.1471 C   0  0  0  0  0  0  0  0  0  0  0  0
   -7.6781  -14.4762   27.5252 N   0  0  0  0  0  0  0  0  0  0  0  0
   -8.1768  -14.3385   26.3170 C   0  0  0  0  0  0  0  0  0  0  0  0
   -7.8209  -13.4541   25.3260 N   0  0  0  0  0  0  0  0  0  0  0  0
   -7.9824  -11.8648   18.5209 H   0  0  0  0  0  0  0  0  0  0  0  0
   -7.1518  -12.0388   16.9738 H   0  0  0  0  0  0  0  0  0  0  0  0
   -6.7627  -13.1558   18.3078 H   0  0  0  0  0  0  0  0  0  0  0  0
   -5.6289   -8.3983   19.3274 H   0  0  0  0  0  0  0  0  0  0  0  0
   -6.4116   -8.6168   20.8609 H   0  0  0  0  0  0  0  0  0  0  0  0
   -3.5666   -9.2921   19.9280 H   0  0  0  0  0  0  0  0  0  0  0  0
   -4.0778   -8.6576   21.5057 H   0  0  0  0  0  0  0  0  0  0  0  0
   -3.9358  -11.4527   20.5252 H   0  0  0  0  0  0  0  0  0  0  0  0
   -4.2045  -10.9644   22.1866 H   0  0  0  0  0  0  0  0  0  0  0  0
   -6.6262  -10.4054   21.6845 H   0  0  0  0  0  0  0  0  0  0  0  0
   -5.7313  -13.1125   20.7382 H   0  0  0  0  0  0  0  0  0  0  0  0
   -7.4069  -12.6125   20.5881 H   0  0  0  0  0  0  0  0  0  0  0  0
   -9.7019  -14.8196   22.8093 H   0  0  0  0  0  0  0  0  0  0  0  0
  -10.4104  -16.2918   24.7078 H   0  0  0  0  0  0  0  0  0  0  0  0
  -10.0416  -16.7609   27.4402 H   0  0  0  0  0  0  0  0  0  0  0  0
   -8.1606  -15.7334   29.1679 H   0  0  0  0  0  0  0  0  0  0  0  0
  1  2  1  0
  2  3  2  0
  2  4  1  0
  4  5  1  0
  5  6  1  0
  6  7  1  0
  7  8  1  0
  8  9  1  0
  9 10  1  0
 10 11  1  0
 11 12  2  0
 11 13  1  0
 13 14  1  0
 14 15  2  0
 15 16  1  0
 16 17  1  0
 17 18  2  0
 18 19  1  0
 19 20  2  0
 20 21  1  0
  8  4  1  0
 21 13  2  0
 20 16  1  0
  1 22  1  0
  1 23  1  0
  1 24  1  0
  5 25  1  0
  5 26  1  0
  6 27  1  0
  6 28  1  0
  7 29  1  0
  7 30  1  0
  8 31  1  0
  9 32  1  0
  9 33  1  0
 14 34  1  0
 15 35  1  0
 17 36  1  0
 18 37  1  0
M  END
>  <Energy>  (907) 
138.85291767614993

>  <compound_id>  (907) 
8821

>  <target_id>  (907) 
1

>  <reference_id>  (907) 
107

>  <inspiration_ids>  (907) 
[53, 107]

>  <energy_score>  (907) 
43.24520698647132

>  <distance_score>  (907) 
14.441254752380644

>  <path>  (907) 
/opt/xchem-fragalysis-2/maxwin/BulkDock/SCRATCH/511013/C8821-P107/C8821-P107.minimised.mol

>  <scratch_subdir>  (907) 
/opt/xchem-fragalysis-2/maxwin/BulkDock/SCRATCH/511013/C8821-P107

>  <fragmenstein_runtime>  (907) 
10.368645906448364

>  <fragmenstein_outcome>  (907) 
too moved

>  <fragmenstein_mode>  (907) 
expansion

>  <fragmenstein_error>  (907) 


$$$$
C8830-P53
     RDKit          3D

 36 39  0  0  0  0  0  0  0  0999 V2000
   -2.0518   -7.7801   31.6266 C   0  0  0  0  0  0  0  0  0  0  0  0
   -3.2843   -7.9406   30.9833 C   0  0  0  0  0  0  0  0  0  0  0  0
   -3.6468   -7.4771   29.2366 C   0  0  0  0  0  0  0  0  0  0  0  0
   -5.0403   -8.0769   28.0901 O   0  0  0  0  0  0  0  0  0  0  0  0
   -6.3208   -9.5204   27.4936 C   0  0  0  0  0  0  0  0  0  0  0  0
   -6.4671  -10.5712   25.8513 C   0  0  0  0  0  0  0  0  0  0  0  0
   -6.6256  -12.0328   25.8913 C   0  0  0  0  0  0  0  0  0  0  0  0
   -6.5214  -12.7875   27.0757 N   0  0  0  0  0  0  0  0  0  0  0  0
   -7.3139  -14.0141   27.3665 C   0  0  0  0  0  0  0  0  0  0  0  0
   -7.8409  -14.9475   26.2110 C   0  0  0  0  0  0  0  0  0  0  0  0
   -8.9725  -15.6347   26.3633 C   0  0  0  0  0  0  0  0  0  0  0  0
   -9.5552  -15.5789   27.5855 N   0  0  0  0  0  0  0  0  0  0  0  0
  -10.8578  -15.7915   27.9182 C   0  0  0  0  0  0  0  0  0  0  0  0
  -10.9388  -15.5416   29.2517 C   0  0  0  0  0  0  0  0  0  0  0  0
   -9.7111  -15.1309   29.7041 N   0  0  0  0  0  0  0  0  0  0  0  0
   -8.8786  -15.0873   28.6791 C   0  0  0  0  0  0  0  0  0  0  0  0
   -7.6497  -14.4480   28.5679 N   0  0  0  0  0  0  0  0  0  0  0  0
   -5.8362  -11.6250   27.8717 C   0  0  0  0  0  0  0  0  0  0  0  0
   -2.3535   -7.1173   28.6910 C   0  0  0  0  0  0  0  0  0  0  0  0
   -1.2303   -6.9195   29.6391 C   0  0  0  0  0  0  0  0  0  0  0  0
   -1.0514   -7.2097   30.9731 N   0  0  0  0  0  0  0  0  0  0  0  0
   -1.8724   -8.1078   32.6424 H   0  0  0  0  0  0  0  0  0  0  0  0
   -4.0620   -8.5108   31.5059 H   0  0  0  0  0  0  0  0  0  0  0  0
   -7.1281   -9.2636   28.2071 H   0  0  0  0  0  0  0  0  0  0  0  0
   -6.0185  -10.7641   24.9230 H   0  0  0  0  0  0  0  0  0  0  0  0
   -7.2274  -10.0283   25.3228 H   0  0  0  0  0  0  0  0  0  0  0  0
   -6.3363  -12.4593   24.9536 H   0  0  0  0  0  0  0  0  0  0  0  0
   -7.5871  -11.6699   25.8275 H   0  0  0  0  0  0  0  0  0  0  0  0
   -7.4155  -14.9676   25.2306 H   0  0  0  0  0  0  0  0  0  0  0  0
   -9.4735  -16.1603   25.5645 H   0  0  0  0  0  0  0  0  0  0  0  0
  -11.6079  -15.9555   27.1772 H   0  0  0  0  0  0  0  0  0  0  0  0
  -11.8051  -15.5681   29.9006 H   0  0  0  0  0  0  0  0  0  0  0  0
   -4.8361  -11.8965   27.4411 H   0  0  0  0  0  0  0  0  0  0  0  0
   -5.5019  -11.9034   28.8787 H   0  0  0  0  0  0  0  0  0  0  0  0
   -2.3349   -6.9372   27.6316 H   0  0  0  0  0  0  0  0  0  0  0  0
   -0.3849   -6.2915   29.3680 H   0  0  0  0  0  0  0  0  0  0  0  0
  1  2  2  0
  2  3  1  0
  3  4  1  0
  4  5  1  0
  5  6  1  0
  6  7  1  0
  7  8  1  0
  8  9  1  0
  9 10  1  0
 10 11  2  0
 11 12  1  0
 12 13  1  0
 13 14  2  0
 14 15  1  0
 15 16  2  0
 16 17  1  0
  8 18  1  0
  3 19  2  0
 19 20  1  0
 20 21  2  0
 21  1  1  0
 18  5  1  0
 17  9  2  0
 16 12  1  0
  1 22  1  0
  2 23  1  0
  5 24  1  0
  6 25  1  0
  6 26  1  0
  7 27  1  0
  7 28  1  0
 10 29  1  0
 11 30  1  0
 13 31  1  0
 14 32  1  0
 18 33  1  0
 18 34  1  0
 19 35  1  0
 20 36  1  0
M  END
>  <Energy>  (908) 
692.70522526459729

>  <compound_id>  (908) 
8830

>  <target_id>  (908) 
1

>  <reference_id>  (908) 
53

>  <inspiration_ids>  (908) 
[53, 107]

>  <energy_score>  (908) 
640.3470252568122

>  <distance_score>  (908) 
11.589636886171789

>  <path>  (908) 
/opt/xchem-fragalysis-2/maxwin/BulkDock/SCRATCH/511013/C8830-P53/C8830-P53.minimised.mol

>  <scratch_subdir>  (908) 
/opt/xchem-fragalysis-2/maxwin/BulkDock/SCRATCH/511013/C8830-P53

>  <fragmenstein_runtime>  (908) 
10.970772743225098

>  <fragmenstein_outcome>  (908) 
too moved

>  <fragmenstein_mode>  (908) 
expansion

>  <fragmenstein_error>  (908) 


$$$$
C8830-P107
     RDKit          3D

 36 39  0  0  0  0  0  0  0  0999 V2000
   -0.5561   -6.5252   30.3032 C   0  0  0  0  0  0  0  0  0  0  0  0
   -1.8189   -7.1164   30.2225 C   0  0  0  0  0  0  0  0  0  0  0  0
   -2.4834   -7.1601   28.9174 C   0  0  0  0  0  0  0  0  0  0  0  0
   -4.1712   -7.5557   28.6929 O   0  0  0  0  0  0  0  0  0  0  0  0
   -5.7139   -8.5886   28.7648 C   0  0  0  0  0  0  0  0  0  0  0  0
   -6.3157   -9.6355   27.4594 C   0  0  0  0  0  0  0  0  0  0  0  0
   -5.7240  -11.6578   27.4280 C   0  0  0  0  0  0  0  0  0  0  0  0
   -5.6335  -11.9508   28.8975 N   0  0  0  0  0  0  0  0  0  0  0  0
   -5.6049  -13.3842   29.2367 C   0  0  0  0  0  0  0  0  0  0  0  0
   -5.2047  -13.8607   30.6267 C   0  0  0  0  0  0  0  0  0  0  0  0
   -5.3787  -15.1589   30.9231 C   0  0  0  0  0  0  0  0  0  0  0  0
   -5.8717  -16.0115   29.9547 N   0  0  0  0  0  0  0  0  0  0  0  0
   -6.1065  -17.3561   30.0015 C   0  0  0  0  0  0  0  0  0  0  0  0
   -6.5860  -17.6748   28.7558 C   0  0  0  0  0  0  0  0  0  0  0  0
   -6.6570  -16.5711   27.9529 N   0  0  0  0  0  0  0  0  0  0  0  0
   -6.1851  -15.5707   28.6775 C   0  0  0  0  0  0  0  0  0  0  0  0
   -6.0116  -14.2618   28.3273 N   0  0  0  0  0  0  0  0  0  0  0  0
   -6.3013  -10.2830   29.6490 C   0  0  0  0  0  0  0  0  0  0  0  0
   -1.7351   -6.6732   27.8014 C   0  0  0  0  0  0  0  0  0  0  0  0
   -0.4845   -6.1065   28.0320 C   0  0  0  0  0  0  0  0  0  0  0  0
    0.1147   -6.0104   29.2468 N   0  0  0  0  0  0  0  0  0  0  0  0
   -0.0522   -6.4264   31.2612 H   0  0  0  0  0  0  0  0  0  0  0  0
   -2.3058   -7.4302   31.1427 H   0  0  0  0  0  0  0  0  0  0  0  0
   -5.4534   -8.3207   27.7358 H   0  0  0  0  0  0  0  0  0  0  0  0
   -7.2583   -9.4064   28.0398 H   0  0  0  0  0  0  0  0  0  0  0  0
   -7.0497   -9.3110   26.7096 H   0  0  0  0  0  0  0  0  0  0  0  0
   -6.3444  -12.3322   26.7769 H   0  0  0  0  0  0  0  0  0  0  0  0
   -4.7060  -12.0534   27.1836 H   0  0  0  0  0  0  0  0  0  0  0  0
   -4.8157  -13.1269   31.3164 H   0  0  0  0  0  0  0  0  0  0  0  0
   -5.1371  -15.5857   31.8871 H   0  0  0  0  0  0  0  0  0  0  0  0
   -5.9131  -17.9548   30.8805 H   0  0  0  0  0  0  0  0  0  0  0  0
   -6.8797  -18.6437   28.3877 H   0  0  0  0  0  0  0  0  0  0  0  0
   -7.3665  -10.0807   29.6763 H   0  0  0  0  0  0  0  0  0  0  0  0
   -6.1445  -10.4224   30.7237 H   0  0  0  0  0  0  0  0  0  0  0  0
   -2.0988   -6.7238   26.7845 H   0  0  0  0  0  0  0  0  0  0  0  0
    0.0899   -5.7075   27.2024 H   0  0  0  0  0  0  0  0  0  0  0  0
  1  2  2  0
  2  3  1  0
  3  4  1  0
  4  5  1  0
  5  6  1  0
  6  7  1  0
  7  8  1  0
  8  9  1  0
  9 10  1  0
 10 11  2  0
 11 12  1  0
 12 13  1  0
 13 14  2  0
 14 15  1  0
 15 16  2  0
 16 17  1  0
  8 18  1  0
  3 19  2  0
 19 20  1  0
 20 21  2  0
 21  1  1  0
 18  5  1  0
 17  9  2  0
 16 12  1  0
  1 22  1  0
  2 23  1  0
  5 24  1  0
  6 25  1  0
  6 26  1  0
  7 27  1  0
  7 28  1  0
 10 29  1  0
 11 30  1  0
 13 31  1  0
 14 32  1  0
 18 33  1  0
 18 34  1  0
 19 35  1  0
 20 36  1  0
M  END
>  <Energy>  (909) 
582.01115499689593

>  <compound_id>  (909) 
8830

>  <target_id>  (909) 
1

>  <reference_id>  (909) 
107

>  <inspiration_ids>  (909) 
[53, 107]

>  <energy_score>  (909) 
529.6529549891167

>  <distance_score>  (909) 
11.344208010832826

>  <path>  (909) 
/opt/xchem-fragalysis-2/maxwin/BulkDock/SCRATCH/511013/C8830-P107/C8830-P107.minimised.mol

>  <scratch_subdir>  (909) 
/opt/xchem-fragalysis-2/maxwin/BulkDock/SCRATCH/511013/C8830-P107

>  <fragmenstein_runtime>  (909) 
8.594089984893799

>  <fragmenstein_outcome>  (909) 
too moved

>  <fragmenstein_mode>  (909) 
expansion

>  <fragmenstein_error>  (909) 


$$$$
C8832-P53
     RDKit          3D

 36 39  0  0  0  0  0  0  0  0999 V2000
   -2.6826   -7.5496   30.2502 O   0  0  0  0  0  0  0  0  0  0  0  0
   -3.9554   -7.5166   29.1159 C   0  0  0  0  0  0  0  0  0  0  0  0
   -3.9447   -7.6973   27.3890 C   0  0  0  0  0  0  0  0  0  0  0  0
   -5.6323   -8.4963   27.3434 C   0  0  0  0  0  0  0  0  0  0  0  0
   -6.5953   -9.7432   28.5249 N   0  0  0  0  0  0  0  0  0  0  0  0
   -6.0806  -11.7958   28.1952 C   0  0  0  0  0  0  0  0  0  0  0  0
   -6.5118  -13.6589   29.0177 C   0  0  0  0  0  0  0  0  0  0  0  0
   -7.1375  -14.4971   27.8957 N   0  0  0  0  0  0  0  0  0  0  0  0
   -7.7935  -16.1345   28.0459 C   0  0  0  0  0  0  0  0  0  0  0  0
   -7.0088  -17.1528   28.9346 C   0  0  0  0  0  0  0  0  0  0  0  0
   -7.2800  -18.4866   29.1561 C   0  0  0  0  0  0  0  0  0  0  0  0
   -8.5340  -19.3512   28.6751 N   0  0  0  0  0  0  0  0  0  0  0  0
  -10.1954  -20.2494   29.3472 C   0  0  0  0  0  0  0  0  0  0  0  0
  -10.3994  -21.1528   28.3858 C   0  0  0  0  0  0  0  0  0  0  0  0
   -9.5543  -20.2224   27.7194 N   0  0  0  0  0  0  0  0  0  0  0  0
   -9.2926  -18.4641   28.0037 C   0  0  0  0  0  0  0  0  0  0  0  0
   -8.8190  -16.9702   27.4898 N   0  0  0  0  0  0  0  0  0  0  0  0
   -7.2668  -13.1005   27.1261 C   0  0  0  0  0  0  0  0  0  0  0  0
   -5.8124   -8.3289   29.5038 C   0  0  0  0  0  0  0  0  0  0  0  0
   -1.8962   -7.1136   29.8534 H   0  0  0  0  0  0  0  0  0  0  0  0
   -2.9815   -7.3504   28.5948 H   0  0  0  0  0  0  0  0  0  0  0  0
   -3.2221   -8.0773   26.6269 H   0  0  0  0  0  0  0  0  0  0  0  0
   -3.3342   -6.8776   27.0317 H   0  0  0  0  0  0  0  0  0  0  0  0
   -5.5354   -7.5900   27.8323 H   0  0  0  0  0  0  0  0  0  0  0  0
   -5.0156   -8.5203   28.0756 H   0  0  0  0  0  0  0  0  0  0  0  0
   -5.3587  -11.8185   27.3793 H   0  0  0  0  0  0  0  0  0  0  0  0
   -5.8171  -14.1496   29.7049 H   0  0  0  0  0  0  0  0  0  0  0  0
   -7.2531  -13.9583   29.7780 H   0  0  0  0  0  0  0  0  0  0  0  0
   -6.1278  -16.7096   29.3892 H   0  0  0  0  0  0  0  0  0  0  0  0
   -6.5930  -18.9561   29.8418 H   0  0  0  0  0  0  0  0  0  0  0  0
  -10.4966  -20.3572   30.3915 H   0  0  0  0  0  0  0  0  0  0  0  0
  -10.8775  -22.0720   28.0979 H   0  0  0  0  0  0  0  0  0  0  0  0
   -6.9443  -13.1710   26.0891 H   0  0  0  0  0  0  0  0  0  0  0  0
   -8.3482  -13.0145   26.9547 H   0  0  0  0  0  0  0  0  0  0  0  0
   -5.4923   -8.4904   30.5385 H   0  0  0  0  0  0  0  0  0  0  0  0
   -6.3638   -9.0957   30.0708 H   0  0  0  0  0  0  0  0  0  0  0  0
  1  2  1  0
  2  3  1  0
  3  4  1  0
  4  5  1  0
  5  6  1  0
  6  7  1  0
  7  8  1  0
  8  9  1  0
  9 10  1  0
 10 11  2  0
 11 12  1  0
 12 13  1  0
 13 14  2  0
 14 15  1  0
 15 16  2  0
 16 17  1  0
  8 18  1  0
  5 19  1  0
 19  2  1  0
 18  6  1  0
 17  9  2  0
 16 12  1  0
  1 20  1  0
  2 21  1  0
  3 22  1  0
  3 23  1  0
  4 24  1  0
  4 25  1  0
  6 26  1  0
  7 27  1  0
  7 28  1  0
 10 29  1  0
 11 30  1  0
 13 31  1  0
 14 32  1  0
 18 33  1  0
 18 34  1  0
 19 35  1  0
 19 36  1  0
M  END
>  <Energy>  (910) 
1738.0484555241201

>  <compound_id>  (910) 
8832

>  <target_id>  (910) 
1

>  <reference_id>  (910) 
53

>  <inspiration_ids>  (910) 
[53, 107]

>  <energy_score>  (910) 
1618.284386662217

>  <distance_score>  (910) 
11.502079495565862

>  <path>  (910) 
/opt/xchem-fragalysis-2/maxwin/BulkDock/SCRATCH/511013/C8832-P53/C8832-P53.minimised.mol

>  <scratch_subdir>  (910) 
/opt/xchem-fragalysis-2/maxwin/BulkDock/SCRATCH/511013/C8832-P53

>  <fragmenstein_runtime>  (910) 
9.92500615119934

>  <fragmenstein_outcome>  (910) 
too moved

>  <fragmenstein_mode>  (910) 
expansion

>  <fragmenstein_error>  (910) 


$$$$
C8832-P107
     RDKit          3D

 36 39  0  0  0  0  0  0  0  0999 V2000
   -0.9645   -4.8285   28.3429 O   0  0  0  0  0  0  0  0  0  0  0  0
   -1.0569   -6.2432   28.3408 C   0  0  0  0  0  0  0  0  0  0  0  0
   -0.8436   -6.8583   27.0113 C   0  0  0  0  0  0  0  0  0  0  0  0
   -2.2864   -7.1600   26.4518 C   0  0  0  0  0  0  0  0  0  0  0  0
   -3.6937   -7.4053   27.5965 N   0  0  0  0  0  0  0  0  0  0  0  0
   -5.3779   -8.4950   27.5458 C   0  0  0  0  0  0  0  0  0  0  0  0
   -6.8729   -9.2395   28.1070 C   0  0  0  0  0  0  0  0  0  0  0  0
   -7.3779   -9.7965   26.3312 N   0  0  0  0  0  0  0  0  0  0  0  0
   -7.9053  -11.4239   25.5087 C   0  0  0  0  0  0  0  0  0  0  0  0
   -9.0995  -11.7113   24.5265 C   0  0  0  0  0  0  0  0  0  0  0  0
   -9.7555  -12.8879   24.5986 C   0  0  0  0  0  0  0  0  0  0  0  0
   -9.2835  -13.8870   25.4218 N   0  0  0  0  0  0  0  0  0  0  0  0
   -9.8141  -15.1091   25.7618 C   0  0  0  0  0  0  0  0  0  0  0  0
   -8.8879  -15.6752   26.6030 C   0  0  0  0  0  0  0  0  0  0  0  0
   -7.7971  -14.8547   26.7314 N   0  0  0  0  0  0  0  0  0  0  0  0
   -8.0577  -13.7572   26.0354 C   0  0  0  0  0  0  0  0  0  0  0  0
   -7.3485  -12.5768   25.9522 N   0  0  0  0  0  0  0  0  0  0  0  0
   -6.0799  -10.2273   26.7500 C   0  0  0  0  0  0  0  0  0  0  0  0
   -2.3246   -7.1101   28.7633 C   0  0  0  0  0  0  0  0  0  0  0  0
   -1.7038   -4.4279   27.8471 H   0  0  0  0  0  0  0  0  0  0  0  0
   -0.2277   -6.5392   28.9967 H   0  0  0  0  0  0  0  0  0  0  0  0
   -0.2842   -7.7976   27.1028 H   0  0  0  0  0  0  0  0  0  0  0  0
   -0.2796   -6.2155   26.3348 H   0  0  0  0  0  0  0  0  0  0  0  0
   -2.2500   -6.2238   25.9839 H   0  0  0  0  0  0  0  0  0  0  0  0
   -2.0899   -7.9894   25.7714 H   0  0  0  0  0  0  0  0  0  0  0  0
   -5.8212   -8.1080   26.7814 H   0  0  0  0  0  0  0  0  0  0  0  0
   -6.6531   -9.8905   28.9780 H   0  0  0  0  0  0  0  0  0  0  0  0
   -7.8883   -9.1036   28.4756 H   0  0  0  0  0  0  0  0  0  0  0  0
   -9.4016  -10.9881   23.7839 H   0  0  0  0  0  0  0  0  0  0  0  0
  -10.6269  -13.1111   23.9970 H   0  0  0  0  0  0  0  0  0  0  0  0
  -10.7791  -15.4359   25.4074 H   0  0  0  0  0  0  0  0  0  0  0  0
   -8.9332  -16.6257   27.1172 H   0  0  0  0  0  0  0  0  0  0  0  0
   -6.2451  -10.6101   25.6921 H   0  0  0  0  0  0  0  0  0  0  0  0
   -5.8046  -11.3171   27.1571 H   0  0  0  0  0  0  0  0  0  0  0  0
   -2.6516   -7.0769   29.8026 H   0  0  0  0  0  0  0  0  0  0  0  0
   -1.6270   -7.9657   28.8109 H   0  0  0  0  0  0  0  0  0  0  0  0
  1  2  1  0
  2  3  1  0
  3  4  1  0
  4  5  1  0
  5  6  1  0
  6  7  1  0
  7  8  1  0
  8  9  1  0
  9 10  1  0
 10 11  2  0
 11 12  1  0
 12 13  1  0
 13 14  2  0
 14 15  1  0
 15 16  2  0
 16 17  1  0
  8 18  1  0
  5 19  1  0
 19  2  1  0
 18  6  1  0
 17  9  2  0
 16 12  1  0
  1 20  1  0
  2 21  1  0
  3 22  1  0
  3 23  1  0
  4 24  1  0
  4 25  1  0
  6 26  1  0
  7 27  1  0
  7 28  1  0
 10 29  1  0
 11 30  1  0
 13 31  1  0
 14 32  1  0
 18 33  1  0
 18 34  1  0
 19 35  1  0
 19 36  1  0
M  END
>  <Energy>  (911) 
823.40122705020019

>  <compound_id>  (911) 
8832

>  <target_id>  (911) 
1

>  <reference_id>  (911) 
107

>  <inspiration_ids>  (911) 
[53, 107]

>  <energy_score>  (911) 
703.6371581883084

>  <distance_score>  (911) 
12.51109925567601

>  <path>  (911) 
/opt/xchem-fragalysis-2/maxwin/BulkDock/SCRATCH/511013/C8832-P107/C8832-P107.minimised.mol

>  <scratch_subdir>  (911) 
/opt/xchem-fragalysis-2/maxwin/BulkDock/SCRATCH/511013/C8832-P107

>  <fragmenstein_runtime>  (911) 
8.44388747215271

>  <fragmenstein_outcome>  (911) 
too moved

>  <fragmenstein_mode>  (911) 
expansion

>  <fragmenstein_error>  (911) 


$$$$
C8836-P53
     RDKit          3D

 43 45  0  0  0  0  0  0  0  0999 V2000
   -1.8563   -5.7742   24.4351 C   0  0  0  0  0  0  0  0  0  0  0  0
   -1.9447   -7.0928   25.3866 C   0  0  0  0  0  0  0  0  0  0  0  0
   -2.6531   -8.6324   26.1675 N   0  0  0  0  0  0  0  0  0  0  0  0
   -2.6842  -10.8116   26.5352 C   0  0  0  0  0  0  0  0  0  0  0  0
   -4.5415  -11.9454   27.0746 C   0  0  0  0  0  0  0  0  0  0  0  0
   -6.3712  -12.0119   26.1592 C   0  0  0  0  0  0  0  0  0  0  0  0
   -7.6440  -13.4784   26.6590 C   0  0  0  0  0  0  0  0  0  0  0  0
   -7.5240  -14.2314   27.8518 N   0  0  0  0  0  0  0  0  0  0  0  0
   -8.1619  -15.9376   27.7907 C   0  0  0  0  0  0  0  0  0  0  0  0
   -7.3151  -17.5573   27.8741 C   0  0  0  0  0  0  0  0  0  0  0  0
   -7.6625  -18.8236   28.2230 C   0  0  0  0  0  0  0  0  0  0  0  0
   -9.0872  -19.2378   28.2992 N   0  0  0  0  0  0  0  0  0  0  0  0
  -10.1709  -20.7604   28.4999 C   0  0  0  0  0  0  0  0  0  0  0  0
  -10.9084  -20.2466   29.6060 C   0  0  0  0  0  0  0  0  0  0  0  0
  -10.8711  -18.3443   29.4422 N   0  0  0  0  0  0  0  0  0  0  0  0
   -9.9421  -17.7293   28.4153 C   0  0  0  0  0  0  0  0  0  0  0  0
   -9.5093  -16.3250   27.9702 N   0  0  0  0  0  0  0  0  0  0  0  0
   -6.3063  -12.8095   27.9666 C   0  0  0  0  0  0  0  0  0  0  0  0
   -2.3541   -7.2448   27.6522 C   0  0  0  0  0  0  0  0  0  0  0  0
   -1.5470   -5.3904   28.2083 C   0  0  0  0  0  0  0  0  0  0  0  0
   -0.5507   -5.7462   29.1758 F   0  0  0  0  0  0  0  0  0  0  0  0
   -0.9452   -4.6088   27.2102 F   0  0  0  0  0  0  0  0  0  0  0  0
   -1.8667   -4.1858   28.8752 F   0  0  0  0  0  0  0  0  0  0  0  0
   -2.6926   -6.0496   23.7394 H   0  0  0  0  0  0  0  0  0  0  0  0
   -0.8814   -5.3563   24.1614 H   0  0  0  0  0  0  0  0  0  0  0  0
   -2.2946   -4.7432   24.3654 H   0  0  0  0  0  0  0  0  0  0  0  0
   -2.1635   -6.3562   26.0851 H   0  0  0  0  0  0  0  0  0  0  0  0
   -1.6419   -7.4499   24.4229 H   0  0  0  0  0  0  0  0  0  0  0  0
   -1.9907  -11.0546   27.3030 H   0  0  0  0  0  0  0  0  0  0  0  0
   -2.6123  -11.5076   25.6386 H   0  0  0  0  0  0  0  0  0  0  0  0
   -4.2207  -11.8328   28.1515 H   0  0  0  0  0  0  0  0  0  0  0  0
   -6.7871  -11.0441   25.8173 H   0  0  0  0  0  0  0  0  0  0  0  0
   -6.1835  -12.1933   25.0711 H   0  0  0  0  0  0  0  0  0  0  0  0
   -8.6114  -13.0836   26.9966 H   0  0  0  0  0  0  0  0  0  0  0  0
   -7.7197  -14.2103   25.8423 H   0  0  0  0  0  0  0  0  0  0  0  0
   -6.2335  -17.6052   27.9096 H   0  0  0  0  0  0  0  0  0  0  0  0
   -6.9162  -19.5943   28.2152 H   0  0  0  0  0  0  0  0  0  0  0  0
   -9.8509  -21.7647   28.2655 H   0  0  0  0  0  0  0  0  0  0  0  0
  -11.5942  -20.7111   30.3136 H   0  0  0  0  0  0  0  0  0  0  0  0
   -6.0521  -13.1641   29.0140 H   0  0  0  0  0  0  0  0  0  0  0  0
   -6.0375  -13.6115   27.3124 H   0  0  0  0  0  0  0  0  0  0  0  0
   -3.2955   -7.3470   28.1303 H   0  0  0  0  0  0  0  0  0  0  0  0
   -1.6555   -7.7570   28.3567 H   0  0  0  0  0  0  0  0  0  0  0  0
  1  2  1  0
  2  3  1  0
  3  4  1  0
  4  5  1  0
  5  6  1  0
  6  7  1  0
  7  8  1  0
  8  9  1  0
  9 10  1  0
 10 11  2  0
 11 12  1  0
 12 13  1  0
 13 14  2  0
 14 15  1  0
 15 16  2  0
 16 17  1  0
  8 18  1  0
  3 19  1  0
 19 20  1  0
 20 21  1  0
 20 22  1  0
 20 23  1  0
 18  5  1  0
 17  9  2  0
 16 12  1  0
  1 24  1  0
  1 25  1  0
  1 26  1  0
  2 27  1  0
  2 28  1  0
  4 29  1  0
  4 30  1  0
  5 31  1  0
  6 32  1  0
  6 33  1  0
  7 34  1  0
  7 35  1  0
 10 36  1  0
 11 37  1  0
 13 38  1  0
 14 39  1  0
 18 40  1  0
 18 41  1  0
 19 42  1  0
 19 43  1  0
M  END
>  <Energy>  (912) 
1873.5901736845688

>  <compound_id>  (912) 
8836

>  <target_id>  (912) 
1

>  <reference_id>  (912) 
53

>  <inspiration_ids>  (912) 
[53, 107]

>  <energy_score>  (912) 
1747.6303803080123

>  <distance_score>  (912) 
8.118855479405449

>  <path>  (912) 
/opt/xchem-fragalysis-2/maxwin/BulkDock/SCRATCH/511013/C8836-P53/C8836-P53.minimised.mol

>  <scratch_subdir>  (912) 
/opt/xchem-fragalysis-2/maxwin/BulkDock/SCRATCH/511013/C8836-P53

>  <fragmenstein_runtime>  (912) 
18.918735027313232

>  <fragmenstein_outcome>  (912) 
too moved

>  <fragmenstein_mode>  (912) 
expansion

>  <fragmenstein_error>  (912) 


$$$$
C8836-P107
     RDKit          3D

 43 45  0  0  0  0  0  0  0  0999 V2000
   -3.1738   -9.7244   18.6448 C   0  0  0  0  0  0  0  0  0  0  0  0
   -3.1353  -10.9539   19.5690 C   0  0  0  0  0  0  0  0  0  0  0  0
   -3.8403  -10.8261   20.8412 N   0  0  0  0  0  0  0  0  0  0  0  0
   -5.3326  -11.8900   21.0488 C   0  0  0  0  0  0  0  0  0  0  0  0
   -6.2958  -12.1472   22.8668 C   0  0  0  0  0  0  0  0  0  0  0  0
   -6.7222  -11.3781   24.3841 C   0  0  0  0  0  0  0  0  0  0  0  0
   -6.9714  -12.3195   25.9463 C   0  0  0  0  0  0  0  0  0  0  0  0
   -6.9777  -13.8190   25.6455 N   0  0  0  0  0  0  0  0  0  0  0  0
   -8.1562  -15.1178   26.4051 C   0  0  0  0  0  0  0  0  0  0  0  0
   -8.0793  -16.6860   25.9297 C   0  0  0  0  0  0  0  0  0  0  0  0
   -7.7243  -17.5748   26.9772 C   0  0  0  0  0  0  0  0  0  0  0  0
   -8.6907  -18.1424   27.8451 N   0  0  0  0  0  0  0  0  0  0  0  0
   -9.1517  -19.7818   28.1953 C   0  0  0  0  0  0  0  0  0  0  0  0
  -10.3932  -20.1098   29.3056 C   0  0  0  0  0  0  0  0  0  0  0  0
  -10.5333  -18.1239   29.1072 N   0  0  0  0  0  0  0  0  0  0  0  0
   -9.6263  -17.1465   28.1532 C   0  0  0  0  0  0  0  0  0  0  0  0
   -9.1303  -15.5254   27.6191 N   0  0  0  0  0  0  0  0  0  0  0  0
   -5.8650  -13.1634   24.0312 C   0  0  0  0  0  0  0  0  0  0  0  0
   -3.1645   -9.7645   21.8044 C   0  0  0  0  0  0  0  0  0  0  0  0
   -1.7920   -9.0131   21.5600 C   0  0  0  0  0  0  0  0  0  0  0  0
   -1.4054   -8.3018   22.6500 F   0  0  0  0  0  0  0  0  0  0  0  0
   -0.7925   -9.8733   21.2592 F   0  0  0  0  0  0  0  0  0  0  0  0
   -1.8654   -8.1156   20.5510 F   0  0  0  0  0  0  0  0  0  0  0  0
   -4.0303   -9.7984   17.9645 H   0  0  0  0  0  0  0  0  0  0  0  0
   -2.2725   -9.7019   18.0232 H   0  0  0  0  0  0  0  0  0  0  0  0
   -3.2593   -8.7663   19.1508 H   0  0  0  0  0  0  0  0  0  0  0  0
   -3.5305  -11.8103   19.0106 H   0  0  0  0  0  0  0  0  0  0  0  0
   -2.0910  -11.2153   19.7731 H   0  0  0  0  0  0  0  0  0  0  0  0
   -6.0619  -11.5925   20.2654 H   0  0  0  0  0  0  0  0  0  0  0  0
   -5.0371  -12.7487   20.4545 H   0  0  0  0  0  0  0  0  0  0  0  0
   -7.3076  -12.1046   22.5254 H   0  0  0  0  0  0  0  0  0  0  0  0
   -6.3539  -10.6644   25.0223 H   0  0  0  0  0  0  0  0  0  0  0  0
   -7.4847  -10.7141   24.0211 H   0  0  0  0  0  0  0  0  0  0  0  0
   -6.1843  -12.2014   26.6585 H   0  0  0  0  0  0  0  0  0  0  0  0
   -7.9273  -11.8873   26.2196 H   0  0  0  0  0  0  0  0  0  0  0  0
   -9.1034  -16.7503   25.5424 H   0  0  0  0  0  0  0  0  0  0  0  0
   -6.8372  -18.1988   26.9016 H   0  0  0  0  0  0  0  0  0  0  0  0
   -9.3396  -20.6294   27.5224 H   0  0  0  0  0  0  0  0  0  0  0  0
  -11.2632  -20.7755   29.3308 H   0  0  0  0  0  0  0  0  0  0  0  0
   -5.0934  -12.4890   24.4446 H   0  0  0  0  0  0  0  0  0  0  0  0
   -5.2270  -13.8898   23.5787 H   0  0  0  0  0  0  0  0  0  0  0  0
   -3.0756  -10.2008   22.7638 H   0  0  0  0  0  0  0  0  0  0  0  0
   -3.8004   -8.9575   22.1250 H   0  0  0  0  0  0  0  0  0  0  0  0
  1  2  1  0
  2  3  1  0
  3  4  1  0
  4  5  1  0
  5  6  1  0
  6  7  1  0
  7  8  1  0
  8  9  1  0
  9 10  1  0
 10 11  2  0
 11 12  1  0
 12 13  1  0
 13 14  2  0
 14 15  1  0
 15 16  2  0
 16 17  1  0
  8 18  1  0
  3 19  1  0
 19 20  1  0
 20 21  1  0
 20 22  1  0
 20 23  1  0
 18  5  1  0
 17  9  2  0
 16 12  1  0
  1 24  1  0
  1 25  1  0
  1 26  1  0
  2 27  1  0
  2 28  1  0
  4 29  1  0
  4 30  1  0
  5 31  1  0
  6 32  1  0
  6 33  1  0
  7 34  1  0
  7 35  1  0
 10 36  1  0
 11 37  1  0
 13 38  1  0
 14 39  1  0
 18 40  1  0
 18 41  1  0
 19 42  1  0
 19 43  1  0
M  END
>  <Energy>  (913) 
1141.1334266636268

>  <compound_id>  (913) 
8836

>  <target_id>  (913) 
1

>  <reference_id>  (913) 
107

>  <inspiration_ids>  (913) 
[53, 107]

>  <energy_score>  (913) 
1015.1736332870591

>  <distance_score>  (913) 
11.12266706830695

>  <path>  (913) 
/opt/xchem-fragalysis-2/maxwin/BulkDock/SCRATCH/511013/C8836-P107/C8836-P107.minimised.mol

>  <scratch_subdir>  (913) 
/opt/xchem-fragalysis-2/maxwin/BulkDock/SCRATCH/511013/C8836-P107

>  <fragmenstein_runtime>  (913) 
21.33028268814087

>  <fragmenstein_outcome>  (913) 
too moved

>  <fragmenstein_mode>  (913) 
expansion

>  <fragmenstein_error>  (913) 


$$$$
C8837-P53
     RDKit          3D

 44 47  0  0  0  0  0  0  0  0999 V2000
   -2.3850   -7.7638   31.8917 O   0  0  0  0  0  0  0  0  0  0  0  0
   -3.5194   -8.2729   31.1987 C   0  0  0  0  0  0  0  0  0  0  0  0
   -3.7522   -7.5109   29.3319 C   0  0  0  0  0  0  0  0  0  0  0  0
   -1.8425   -7.2695   29.3686 C   0  0  0  0  0  0  0  0  0  0  0  0
   -0.7670   -8.4454   29.4819 C   0  0  0  0  0  0  0  0  0  0  0  0
    0.6229   -8.0677   29.9577 C   0  0  0  0  0  0  0  0  0  0  0  0
    0.5787   -7.7664   31.3270 O   0  0  0  0  0  0  0  0  0  0  0  0
    0.0629   -6.4723   31.4653 C   0  0  0  0  0  0  0  0  0  0  0  0
   -1.0166   -6.1200   30.4346 C   0  0  0  0  0  0  0  0  0  0  0  0
   -5.5122   -7.9813   29.1469 C   0  0  0  0  0  0  0  0  0  0  0  0
   -6.7216   -9.1670   28.5841 C   0  0  0  0  0  0  0  0  0  0  0  0
   -6.2902   -9.2370   27.1907 N   0  0  0  0  0  0  0  0  0  0  0  0
   -6.3526  -10.7893   26.0924 C   0  0  0  0  0  0  0  0  0  0  0  0
   -7.3000  -11.3184   24.9266 C   0  0  0  0  0  0  0  0  0  0  0  0
   -7.7832  -12.5792   24.8850 C   0  0  0  0  0  0  0  0  0  0  0  0
   -7.3657  -13.5244   25.7937 N   0  0  0  0  0  0  0  0  0  0  0  0
   -7.7810  -14.8191   26.0054 C   0  0  0  0  0  0  0  0  0  0  0  0
   -6.9702  -15.2929   27.0076 C   0  0  0  0  0  0  0  0  0  0  0  0
   -6.0566  -14.3369   27.3769 N   0  0  0  0  0  0  0  0  0  0  0  0
   -6.3230  -13.2597   26.6497 C   0  0  0  0  0  0  0  0  0  0  0  0
   -5.8266  -11.9789   26.7768 N   0  0  0  0  0  0  0  0  0  0  0  0
   -4.7230   -8.1079   27.6696 C   0  0  0  0  0  0  0  0  0  0  0  0
   -2.1162   -8.4258   32.5616 H   0  0  0  0  0  0  0  0  0  0  0  0
   -4.4077   -8.3394   31.8225 H   0  0  0  0  0  0  0  0  0  0  0  0
   -3.2043   -9.2991   31.1801 H   0  0  0  0  0  0  0  0  0  0  0  0
   -1.8398   -6.7929   28.4147 H   0  0  0  0  0  0  0  0  0  0  0  0
   -1.0775   -9.2177   30.1960 H   0  0  0  0  0  0  0  0  0  0  0  0
   -0.5896   -8.9550   28.5413 H   0  0  0  0  0  0  0  0  0  0  0  0
    1.1668   -7.2561   29.4717 H   0  0  0  0  0  0  0  0  0  0  0  0
    1.2091   -8.9538   29.7604 H   0  0  0  0  0  0  0  0  0  0  0  0
    0.8882   -5.7519   31.3986 H   0  0  0  0  0  0  0  0  0  0  0  0
   -0.3237   -6.3800   32.4870 H   0  0  0  0  0  0  0  0  0  0  0  0
   -0.5403   -5.4027   29.7477 H   0  0  0  0  0  0  0  0  0  0  0  0
   -1.6692   -5.5396   31.0845 H   0  0  0  0  0  0  0  0  0  0  0  0
   -5.5060   -8.4619   30.1618 H   0  0  0  0  0  0  0  0  0  0  0  0
   -5.9819   -6.9308   29.1675 H   0  0  0  0  0  0  0  0  0  0  0  0
   -7.7984   -9.0500   28.6124 H   0  0  0  0  0  0  0  0  0  0  0  0
   -6.6785   -9.9986   29.2903 H   0  0  0  0  0  0  0  0  0  0  0  0
   -7.5191  -10.7107   24.0781 H   0  0  0  0  0  0  0  0  0  0  0  0
   -8.4657  -12.9125   24.1148 H   0  0  0  0  0  0  0  0  0  0  0  0
   -8.5975  -15.2592   25.4546 H   0  0  0  0  0  0  0  0  0  0  0  0
   -6.9821  -16.2670   27.4780 H   0  0  0  0  0  0  0  0  0  0  0  0
   -3.9196   -7.9061   26.9538 H   0  0  0  0  0  0  0  0  0  0  0  0
   -5.3106   -7.3585   27.5398 H   0  0  0  0  0  0  0  0  0  0  0  0
  1  2  1  0
  2  3  1  0
  3  4  1  0
  4  5  1  0
  5  6  1  0
  6  7  1  0
  7  8  1  0
  8  9  1  0
  3 10  1  0
 10 11  1  0
 11 12  1  0
 12 13  1  0
 13 14  1  0
 14 15  2  0
 15 16  1  0
 16 17  1  0
 17 18  2  0
 18 19  1  0
 19 20  2  0
 20 21  1  0
 12 22  1  0
 22  3  1  0
  9  4  1  0
 21 13  2  0
 20 16  1  0
  1 23  1  0
  2 24  1  0
  2 25  1  0
  4 26  1  0
  5 27  1  0
  5 28  1  0
  6 29  1  0
  6 30  1  0
  8 31  1  0
  8 32  1  0
  9 33  1  0
  9 34  1  0
 10 35  1  0
 10 36  1  0
 11 37  1  0
 11 38  1  0
 14 39  1  0
 15 40  1  0
 17 41  1  0
 18 42  1  0
 22 43  1  0
 22 44  1  0
M  END
>  <Energy>  (914) 
747.36194952312542

>  <compound_id>  (914) 
8837

>  <target_id>  (914) 
1

>  <reference_id>  (914) 
53

>  <inspiration_ids>  (914) 
[53, 107]

>  <energy_score>  (914) 
674.3922765793488

>  <distance_score>  (914) 
13.074138618932341

>  <path>  (914) 
/opt/xchem-fragalysis-2/maxwin/BulkDock/SCRATCH/511013/C8837-P53/C8837-P53.minimised.mol

>  <scratch_subdir>  (914) 
/opt/xchem-fragalysis-2/maxwin/BulkDock/SCRATCH/511013/C8837-P53

>  <fragmenstein_runtime>  (914) 
10.587385416030884

>  <fragmenstein_outcome>  (914) 
too moved

>  <fragmenstein_mode>  (914) 
expansion

>  <fragmenstein_error>  (914) 


$$$$
C8837-P107
     RDKit          3D

 44 47  0  0  0  0  0  0  0  0999 V2000
   -2.7554   -9.3575   31.3780 O   0  0  0  0  0  0  0  0  0  0  0  0
   -3.6352   -8.2353   31.0792 C   0  0  0  0  0  0  0  0  0  0  0  0
   -4.5276   -7.9363   29.2269 C   0  0  0  0  0  0  0  0  0  0  0  0
   -2.6844   -7.1293   28.8254 C   0  0  0  0  0  0  0  0  0  0  0  0
   -1.2344   -7.3930   29.7080 C   0  0  0  0  0  0  0  0  0  0  0  0
   -0.3922   -6.1813   30.1871 C   0  0  0  0  0  0  0  0  0  0  0  0
   -0.5860   -4.9920   29.4698 O   0  0  0  0  0  0  0  0  0  0  0  0
   -0.6606   -5.2115   28.0833 C   0  0  0  0  0  0  0  0  0  0  0  0
   -1.5709   -6.3923   27.6451 C   0  0  0  0  0  0  0  0  0  0  0  0
   -5.6562   -8.6614   30.1384 C   0  0  0  0  0  0  0  0  0  0  0  0
   -6.4097  -10.1309   30.2862 C   0  0  0  0  0  0  0  0  0  0  0  0
   -6.2382  -10.7484   29.1222 N   0  0  0  0  0  0  0  0  0  0  0  0
   -5.5993  -12.3401   28.5903 C   0  0  0  0  0  0  0  0  0  0  0  0
   -5.2583  -13.4191   29.5527 C   0  0  0  0  0  0  0  0  0  0  0  0
   -5.6855  -14.6733   29.3230 C   0  0  0  0  0  0  0  0  0  0  0  0
   -6.1663  -14.9814   28.0828 N   0  0  0  0  0  0  0  0  0  0  0  0
   -6.7130  -16.1461   27.6136 C   0  0  0  0  0  0  0  0  0  0  0  0
   -6.9724  -15.8839   26.2934 C   0  0  0  0  0  0  0  0  0  0  0  0
   -6.5856  -14.6067   25.9563 N   0  0  0  0  0  0  0  0  0  0  0  0
   -6.1209  -14.0486   27.0631 C   0  0  0  0  0  0  0  0  0  0  0  0
   -5.7620  -12.7340   27.3160 N   0  0  0  0  0  0  0  0  0  0  0  0
   -6.0332   -9.0403   28.3237 C   0  0  0  0  0  0  0  0  0  0  0  0
   -2.4192   -9.2305   32.2859 H   0  0  0  0  0  0  0  0  0  0  0  0
   -4.2570   -8.2769   31.9763 H   0  0  0  0  0  0  0  0  0  0  0  0
   -2.9692   -7.3919   31.2753 H   0  0  0  0  0  0  0  0  0  0  0  0
   -3.0213   -7.3005   27.8031 H   0  0  0  0  0  0  0  0  0  0  0  0
   -0.6029   -8.0508   29.0931 H   0  0  0  0  0  0  0  0  0  0  0  0
   -1.2707   -7.9841   30.6177 H   0  0  0  0  0  0  0  0  0  0  0  0
    0.6728   -6.4164   30.1977 H   0  0  0  0  0  0  0  0  0  0  0  0
   -0.6607   -5.9620   31.2274 H   0  0  0  0  0  0  0  0  0  0  0  0
    0.3380   -5.3526   27.6774 H   0  0  0  0  0  0  0  0  0  0  0  0
   -0.9791   -4.2604   27.6784 H   0  0  0  0  0  0  0  0  0  0  0  0
   -1.9872   -6.2023   26.6571 H   0  0  0  0  0  0  0  0  0  0  0  0
   -0.8653   -7.1890   27.3489 H   0  0  0  0  0  0  0  0  0  0  0  0
   -5.6135   -8.4524   31.1598 H   0  0  0  0  0  0  0  0  0  0  0  0
   -5.9460   -7.7710   29.3663 H   0  0  0  0  0  0  0  0  0  0  0  0
   -7.4758  -10.0378   30.2532 H   0  0  0  0  0  0  0  0  0  0  0  0
   -5.9403  -10.8302   31.0290 H   0  0  0  0  0  0  0  0  0  0  0  0
   -4.8947  -12.9562   30.4361 H   0  0  0  0  0  0  0  0  0  0  0  0
   -5.6993  -15.4831   30.0309 H   0  0  0  0  0  0  0  0  0  0  0  0
   -6.8595  -17.0152   28.2378 H   0  0  0  0  0  0  0  0  0  0  0  0
   -7.4082  -16.5361   25.5513 H   0  0  0  0  0  0  0  0  0  0  0  0
   -7.0868   -8.9138   28.5589 H   0  0  0  0  0  0  0  0  0  0  0  0
   -6.0408   -9.1020   27.2729 H   0  0  0  0  0  0  0  0  0  0  0  0
  1  2  1  0
  2  3  1  0
  3  4  1  0
  4  5  1  0
  5  6  1  0
  6  7  1  0
  7  8  1  0
  8  9  1  0
  3 10  1  0
 10 11  1  0
 11 12  1  0
 12 13  1  0
 13 14  1  0
 14 15  2  0
 15 16  1  0
 16 17  1  0
 17 18  2  0
 18 19  1  0
 19 20  2  0
 20 21  1  0
 12 22  1  0
 22  3  1  0
  9  4  1  0
 21 13  2  0
 20 16  1  0
  1 23  1  0
  2 24  1  0
  2 25  1  0
  4 26  1  0
  5 27  1  0
  5 28  1  0
  6 29  1  0
  6 30  1  0
  8 31  1  0
  8 32  1  0
  9 33  1  0
  9 34  1  0
 10 35  1  0
 10 36  1  0
 11 37  1  0
 11 38  1  0
 14 39  1  0
 15 40  1  0
 17 41  1  0
 18 42  1  0
 22 43  1  0
 22 44  1  0
M  END
>  <Energy>  (915) 
829.69423132812437

>  <compound_id>  (915) 
8837

>  <target_id>  (915) 
1

>  <reference_id>  (915) 
107

>  <inspiration_ids>  (915) 
[53, 107]

>  <energy_score>  (915) 
756.7245583843666

>  <distance_score>  (915) 
11.765124992296034

>  <path>  (915) 
/opt/xchem-fragalysis-2/maxwin/BulkDock/SCRATCH/511013/C8837-P107/C8837-P107.minimised.mol

>  <scratch_subdir>  (915) 
/opt/xchem-fragalysis-2/maxwin/BulkDock/SCRATCH/511013/C8837-P107

>  <fragmenstein_runtime>  (915) 
11.102772951126099

>  <fragmenstein_outcome>  (915) 
too moved

>  <fragmenstein_mode>  (915) 
expansion

>  <fragmenstein_error>  (915) 


$$$$
C8839-P53
     RDKit          3D

 45 48  0  0  0  0  0  0  0  0999 V2000
   -0.4376   -6.8751   32.2963 C   0  0  0  0  0  0  0  0  0  0  0  0
   -0.4231   -6.1854   30.9267 C   0  0  0  0  0  0  0  0  0  0  0  0
    0.9917   -5.7111   30.5836 C   0  0  0  0  0  0  0  0  0  0  0  0
   -1.0043   -7.1065   29.8614 C   0  0  0  0  0  0  0  0  0  0  0  0
   -1.8504   -6.6819   28.7902 C   0  0  0  0  0  0  0  0  0  0  0  0
   -2.5173   -7.1553   27.4378 C   0  0  0  0  0  0  0  0  0  0  0  0
   -1.8464   -8.0554   26.7407 C   0  0  0  0  0  0  0  0  0  0  0  0
   -2.2176  -10.1954   26.3874 C   0  0  0  0  0  0  0  0  0  0  0  0
   -1.8534  -11.2460   27.4677 C   0  0  0  0  0  0  0  0  0  0  0  0
   -1.8464  -12.7708   26.5590 C   0  0  0  0  0  0  0  0  0  0  0  0
   -3.0369  -12.5733   25.9337 C   0  0  0  0  0  0  0  0  0  0  0  0
   -3.6138  -11.6985   26.8257 N   0  0  0  0  0  0  0  0  0  0  0  0
   -5.5280  -11.8472   26.9221 C   0  0  0  0  0  0  0  0  0  0  0  0
   -6.6171  -13.2010   27.5976 C   0  0  0  0  0  0  0  0  0  0  0  0
   -7.6105  -13.8644   27.0003 C   0  0  0  0  0  0  0  0  0  0  0  0
   -8.0374  -13.3821   25.8171 N   0  0  0  0  0  0  0  0  0  0  0  0
   -9.0926  -13.8314   25.0739 C   0  0  0  0  0  0  0  0  0  0  0  0
   -9.2220  -12.8986   24.0837 C   0  0  0  0  0  0  0  0  0  0  0  0
   -8.2610  -11.9215   24.2007 N   0  0  0  0  0  0  0  0  0  0  0  0
   -7.5004  -12.2362   25.2391 C   0  0  0  0  0  0  0  0  0  0  0  0
   -6.3651  -11.5486   25.7034 N   0  0  0  0  0  0  0  0  0  0  0  0
   -0.6580   -8.5934   28.1192 C   0  0  0  0  0  0  0  0  0  0  0  0
   -0.4378   -8.2564   29.5079 C   0  0  0  0  0  0  0  0  0  0  0  0
   -1.4473   -7.2155   32.5526 H   0  0  0  0  0  0  0  0  0  0  0  0
   -0.1090   -6.1828   33.0790 H   0  0  0  0  0  0  0  0  0  0  0  0
    0.2261   -7.7463   32.3246 H   0  0  0  0  0  0  0  0  0  0  0  0
   -1.0480   -5.2932   31.0297 H   0  0  0  0  0  0  0  0  0  0  0  0
    1.3738   -5.0433   31.3634 H   0  0  0  0  0  0  0  0  0  0  0  0
    1.0023   -5.1555   29.6404 H   0  0  0  0  0  0  0  0  0  0  0  0
    1.6924   -6.5479   30.4886 H   0  0  0  0  0  0  0  0  0  0  0  0
   -1.5314   -5.6112   28.5565 H   0  0  0  0  0  0  0  0  0  0  0  0
   -2.5192   -6.3936   26.6881 H   0  0  0  0  0  0  0  0  0  0  0  0
   -1.8929  -10.0261   25.3069 H   0  0  0  0  0  0  0  0  0  0  0  0
   -1.0670  -10.7428   27.9455 H   0  0  0  0  0  0  0  0  0  0  0  0
   -2.4354  -11.4749   28.4067 H   0  0  0  0  0  0  0  0  0  0  0  0
   -1.8115  -13.7238   27.1621 H   0  0  0  0  0  0  0  0  0  0  0  0
   -1.0315  -12.9709   25.9151 H   0  0  0  0  0  0  0  0  0  0  0  0
   -3.0633  -12.0191   25.0326 H   0  0  0  0  0  0  0  0  0  0  0  0
   -2.9891  -13.6297   26.0048 H   0  0  0  0  0  0  0  0  0  0  0  0
   -6.4417  -13.5477   28.6149 H   0  0  0  0  0  0  0  0  0  0  0  0
   -8.1559  -14.6717   27.4679 H   0  0  0  0  0  0  0  0  0  0  0  0
   -9.6559  -14.7161   25.3284 H   0  0  0  0  0  0  0  0  0  0  0  0
   -9.9552  -12.8636   23.2885 H   0  0  0  0  0  0  0  0  0  0  0  0
    0.0290   -9.3958   27.9334 H   0  0  0  0  0  0  0  0  0  0  0  0
    0.2931   -8.7280   30.1182 H   0  0  0  0  0  0  0  0  0  0  0  0
  1  2  1  0
  2  3  1  0
  2  4  1  0
  4  5  2  0
  5  6  1  0
  6  7  2  0
  7  8  1  0
  8  9  1  0
  9 10  1  0
 10 11  1  0
 11 12  1  0
 12 13  1  0
 13 14  1  0
 14 15  2  0
 15 16  1  0
 16 17  1  0
 17 18  2  0
 18 19  1  0
 19 20  2  0
 20 21  1  0
  7 22  1  0
 22 23  2  0
 23  4  1  0
 12  8  1  0
 21 13  2  0
 20 16  1  0
  1 24  1  0
  1 25  1  0
  1 26  1  0
  2 27  1  0
  3 28  1  0
  3 29  1  0
  3 30  1  0
  5 31  1  0
  6 32  1  0
  8 33  1  0
  9 34  1  0
  9 35  1  0
 10 36  1  0
 10 37  1  0
 11 38  1  0
 11 39  1  0
 14 40  1  0
 15 41  1  0
 17 42  1  0
 18 43  1  0
 22 44  1  0
 23 45  1  0
M  END
>  <Energy>  (916) 
864.01321547916052

>  <compound_id>  (916) 
8839

>  <target_id>  (916) 
1

>  <reference_id>  (916) 
53

>  <inspiration_ids>  (916) 
[53, 107]

>  <energy_score>  (916) 
790.4896782891832

>  <distance_score>  (916) 
12.930986900855673

>  <path>  (916) 
/opt/xchem-fragalysis-2/maxwin/BulkDock/SCRATCH/511013/C8839-P53/C8839-P53.minimised.mol

>  <scratch_subdir>  (916) 
/opt/xchem-fragalysis-2/maxwin/BulkDock/SCRATCH/511013/C8839-P53

>  <fragmenstein_runtime>  (916) 
11.708083868026733

>  <fragmenstein_outcome>  (916) 
too moved

>  <fragmenstein_mode>  (916) 
expansion

>  <fragmenstein_error>  (916) 


$$$$
C8839-P107
     RDKit          3D

 45 48  0  0  0  0  0  0  0  0999 V2000
    1.3805   -4.9497   30.1997 C   0  0  0  0  0  0  0  0  0  0  0  0
    0.3897   -4.5722   29.0859 C   0  0  0  0  0  0  0  0  0  0  0  0
    1.0018   -3.4969   28.2007 C   0  0  0  0  0  0  0  0  0  0  0  0
   -0.3536   -5.7370   28.4163 C   0  0  0  0  0  0  0  0  0  0  0  0
   -1.0572   -6.5966   29.1865 C   0  0  0  0  0  0  0  0  0  0  0  0
   -2.3161   -7.0923   28.6626 C   0  0  0  0  0  0  0  0  0  0  0  0
   -2.9735   -7.2007   27.3273 C   0  0  0  0  0  0  0  0  0  0  0  0
   -4.6258   -8.3670   26.9064 C   0  0  0  0  0  0  0  0  0  0  0  0
   -2.8759   -9.0366   25.8273 C   0  0  0  0  0  0  0  0  0  0  0  0
   -2.6241  -10.9399   26.4912 C   0  0  0  0  0  0  0  0  0  0  0  0
   -4.3779  -11.7288   27.2454 C   0  0  0  0  0  0  0  0  0  0  0  0
   -5.7947  -10.1964   26.8616 N   0  0  0  0  0  0  0  0  0  0  0  0
   -6.7275  -11.1967   25.6505 C   0  0  0  0  0  0  0  0  0  0  0  0
   -7.8768  -10.7995   24.7017 C   0  0  0  0  0  0  0  0  0  0  0  0
   -8.8772  -11.6689   24.4283 C   0  0  0  0  0  0  0  0  0  0  0  0
   -8.8707  -12.9471   24.9590 N   0  0  0  0  0  0  0  0  0  0  0  0
   -9.7970  -13.9631   24.9261 C   0  0  0  0  0  0  0  0  0  0  0  0
   -9.2443  -14.9799   25.6689 C   0  0  0  0  0  0  0  0  0  0  0  0
   -8.0030  -14.6202   26.1166 N   0  0  0  0  0  0  0  0  0  0  0  0
   -7.8072  -13.3764   25.7041 C   0  0  0  0  0  0  0  0  0  0  0  0
   -6.7925  -12.5084   25.9872 N   0  0  0  0  0  0  0  0  0  0  0  0
   -1.8536   -6.6321   26.5407 C   0  0  0  0  0  0  0  0  0  0  0  0
   -0.6492   -5.9516   27.0824 C   0  0  0  0  0  0  0  0  0  0  0  0
    1.5473   -4.0865   30.8556 H   0  0  0  0  0  0  0  0  0  0  0  0
    2.3595   -5.2244   29.8059 H   0  0  0  0  0  0  0  0  0  0  0  0
    1.0258   -5.7667   30.8329 H   0  0  0  0  0  0  0  0  0  0  0  0
   -0.4206   -4.0423   29.6132 H   0  0  0  0  0  0  0  0  0  0  0  0
    1.5345   -2.7491   28.7992 H   0  0  0  0  0  0  0  0  0  0  0  0
    0.2176   -2.9577   27.6679 H   0  0  0  0  0  0  0  0  0  0  0  0
    1.7102   -3.9086   27.4850 H   0  0  0  0  0  0  0  0  0  0  0  0
   -0.9109   -6.6405   30.2646 H   0  0  0  0  0  0  0  0  0  0  0  0
   -2.9873   -7.2656   29.4972 H   0  0  0  0  0  0  0  0  0  0  0  0
   -4.9102   -8.1277   27.9596 H   0  0  0  0  0  0  0  0  0  0  0  0
   -1.8916   -8.5243   25.7601 H   0  0  0  0  0  0  0  0  0  0  0  0
   -2.7708   -9.2948   24.6914 H   0  0  0  0  0  0  0  0  0  0  0  0
   -1.7937  -10.4794   27.1933 H   0  0  0  0  0  0  0  0  0  0  0  0
   -2.3671  -11.6804   25.7095 H   0  0  0  0  0  0  0  0  0  0  0  0
   -4.1789  -12.0064   28.3145 H   0  0  0  0  0  0  0  0  0  0  0  0
   -3.8682  -12.4464   26.6288 H   0  0  0  0  0  0  0  0  0  0  0  0
   -7.9312   -9.7949   24.3484 H   0  0  0  0  0  0  0  0  0  0  0  0
   -9.7304  -11.3958   23.8207 H   0  0  0  0  0  0  0  0  0  0  0  0
  -10.7402  -13.8646   24.4106 H   0  0  0  0  0  0  0  0  0  0  0  0
   -9.6639  -15.9492   25.8998 H   0  0  0  0  0  0  0  0  0  0  0  0
   -1.7971   -6.6822   25.4511 H   0  0  0  0  0  0  0  0  0  0  0  0
    0.0941   -5.6671   26.3721 H   0  0  0  0  0  0  0  0  0  0  0  0
  1  2  1  0
  2  3  1  0
  2  4  1  0
  4  5  2  0
  5  6  1  0
  6  7  2  0
  7  8  1  0
  8  9  1  0
  9 10  1  0
 10 11  1  0
 11 12  1  0
 12 13  1  0
 13 14  1  0
 14 15  2  0
 15 16  1  0
 16 17  1  0
 17 18  2  0
 18 19  1  0
 19 20  2  0
 20 21  1  0
  7 22  1  0
 22 23  2  0
 23  4  1  0
 12  8  1  0
 21 13  2  0
 20 16  1  0
  1 24  1  0
  1 25  1  0
  1 26  1  0
  2 27  1  0
  3 28  1  0
  3 29  1  0
  3 30  1  0
  5 31  1  0
  6 32  1  0
  8 33  1  0
  9 34  1  0
  9 35  1  0
 10 36  1  0
 10 37  1  0
 11 38  1  0
 11 39  1  0
 14 40  1  0
 15 41  1  0
 17 42  1  0
 18 43  1  0
 22 44  1  0
 23 45  1  0
M  END
>  <Energy>  (917) 
911.10556215108932

>  <compound_id>  (917) 
8839

>  <target_id>  (917) 
1

>  <reference_id>  (917) 
107

>  <inspiration_ids>  (917) 
[53, 107]

>  <energy_score>  (917) 
837.5820249611222

>  <distance_score>  (917) 
12.730814525347617

>  <path>  (917) 
/opt/xchem-fragalysis-2/maxwin/BulkDock/SCRATCH/511013/C8839-P107/C8839-P107.minimised.mol

>  <scratch_subdir>  (917) 
/opt/xchem-fragalysis-2/maxwin/BulkDock/SCRATCH/511013/C8839-P107

>  <fragmenstein_runtime>  (917) 
12.900108814239502

>  <fragmenstein_outcome>  (917) 
too moved

>  <fragmenstein_mode>  (917) 
expansion

>  <fragmenstein_error>  (917) 


$$$$
C14704-P112
     RDKit          3D

 44 45  0  0  0  0  0  0  0  0999 V2000
   -8.5203  -12.9065   29.7003 C   0  0  0  0  0  0  0  0  0  0  0  0
   -7.3120  -12.1379   30.0262 O   0  0  0  0  0  0  0  0  0  0  0  0
   -6.2102  -12.5436   29.2291 C   0  0  0  0  0  0  0  0  0  0  0  0
   -4.4496  -12.9300   29.7041 C   0  0  0  0  0  0  0  0  0  0  0  0
   -2.9973  -11.6686   29.5024 C   0  0  0  0  0  0  0  0  0  0  0  0
   -1.6585  -10.5367   30.3382 N   0  0  0  0  0  0  0  0  0  0  0  0
   -1.8217   -9.1241   31.2721 C   0  0  0  0  0  0  0  0  0  0  0  0
   -2.8262   -8.6347   31.6405 O   0  0  0  0  0  0  0  0  0  0  0  0
   -0.4854   -8.6642   31.3845 N   0  0  0  0  0  0  0  0  0  0  0  0
   -0.1315   -7.8733   30.2156 C   0  0  0  0  0  0  0  0  0  0  0  0
    0.1146   -7.4053   32.1403 C   0  0  0  0  0  0  0  0  0  0  0  0
   -0.2433   -5.9173   31.8715 C   0  0  0  0  0  0  0  0  0  0  0  0
    0.0939   -5.0390   30.8387 C   0  0  0  0  0  0  0  0  0  0  0  0
   -0.4617   -3.7442   31.0443 C   0  0  0  0  0  0  0  0  0  0  0  0
   -1.1023   -3.5638   32.1897 N   0  0  0  0  0  0  0  0  0  0  0  0
   -0.9577   -4.9490   33.0938 S   0  0  0  0  0  0  0  0  0  0  0  0
   -5.5665  -14.2256   30.6704 C   0  0  0  0  0  0  0  0  0  0  0  0
   -5.1263  -15.4111   31.5465 C   0  0  0  0  0  0  0  0  0  0  0  0
   -4.0649  -16.2274   30.8877 C   0  0  0  0  0  0  0  0  0  0  0  0
   -2.9194  -15.2958   30.6739 C   0  0  0  0  0  0  0  0  0  0  0  0
   -3.1185  -14.1696   29.7953 O   0  0  0  0  0  0  0  0  0  0  0  0
   -8.4111  -13.9369   30.0501 H   0  0  0  0  0  0  0  0  0  0  0  0
   -8.7587  -12.8856   28.6337 H   0  0  0  0  0  0  0  0  0  0  0  0
   -9.3439  -12.4443   30.2512 H   0  0  0  0  0  0  0  0  0  0  0  0
   -6.6972  -13.3916   28.6997 H   0  0  0  0  0  0  0  0  0  0  0  0
   -6.0131  -11.8743   28.4345 H   0  0  0  0  0  0  0  0  0  0  0  0
   -3.0118  -11.4359   28.4501 H   0  0  0  0  0  0  0  0  0  0  0  0
   -2.3541  -12.4000   29.1043 H   0  0  0  0  0  0  0  0  0  0  0  0
   -0.6869  -10.7613   30.2466 H   0  0  0  0  0  0  0  0  0  0  0  0
    0.9119   -7.5469   30.1119 H   0  0  0  0  0  0  0  0  0  0  0  0
   -0.1912   -8.6055   29.3943 H   0  0  0  0  0  0  0  0  0  0  0  0
   -0.9215   -7.1693   29.9266 H   0  0  0  0  0  0  0  0  0  0  0  0
   -0.1890   -7.6167   33.1761 H   0  0  0  0  0  0  0  0  0  0  0  0
    1.2060   -7.4597   32.1569 H   0  0  0  0  0  0  0  0  0  0  0  0
    0.6684   -5.2930   29.9599 H   0  0  0  0  0  0  0  0  0  0  0  0
   -0.4041   -2.9042   30.3621 H   0  0  0  0  0  0  0  0  0  0  0  0
   -6.2020  -14.7405   29.9306 H   0  0  0  0  0  0  0  0  0  0  0  0
   -6.3155  -13.7003   31.2860 H   0  0  0  0  0  0  0  0  0  0  0  0
   -6.0016  -16.0483   31.7307 H   0  0  0  0  0  0  0  0  0  0  0  0
   -4.7959  -15.0982   32.5426 H   0  0  0  0  0  0  0  0  0  0  0  0
   -4.4185  -16.6796   29.9569 H   0  0  0  0  0  0  0  0  0  0  0  0
   -3.7648  -17.0525   31.5437 H   0  0  0  0  0  0  0  0  0  0  0  0
   -2.0888  -15.8663   30.2430 H   0  0  0  0  0  0  0  0  0  0  0  0
   -2.5833  -14.9608   31.6586 H   0  0  0  0  0  0  0  0  0  0  0  0
  1  2  1  0
  2  3  1  0
  3  4  1  0
  4  5  1  0
  5  6  1  0
  6  7  1  0
  7  8  2  0
  7  9  1  0
  9 10  1  0
  9 11  1  0
 11 12  1  0
 12 13  2  0
 13 14  1  0
 14 15  2  0
 15 16  1  0
  4 17  1  0
 17 18  1  0
 18 19  1  0
 19 20  1  0
 20 21  1  0
 21  4  1  0
 16 12  1  0
  1 22  1  0
  1 23  1  0
  1 24  1  0
  3 25  1  0
  3 26  1  0
  5 27  1  0
  5 28  1  0
  6 29  1  0
 10 30  1  0
 10 31  1  0
 10 32  1  0
 11 33  1  0
 11 34  1  0
 13 35  1  0
 14 36  1  0
 17 37  1  0
 17 38  1  0
 18 39  1  0
 18 40  1  0
 19 41  1  0
 19 42  1  0
 20 43  1  0
 20 44  1  0
M  END
>  <Energy>  (918) 
499.79332102823065

>  <compound_id>  (918) 
14704

>  <target_id>  (918) 
1

>  <reference_id>  (918) 
112

>  <inspiration_ids>  (918) 
[112, 186]

>  <energy_score>  (918) 
469.65745644015567

>  <distance_score>  (918) 
11.551265549288297

>  <path>  (918) 
/opt/xchem-fragalysis-2/maxwin/BulkDock/SCRATCH/511013/C14704-P112/C14704-P112.minimised.mol

>  <scratch_subdir>  (918) 
/opt/xchem-fragalysis-2/maxwin/BulkDock/SCRATCH/511013/C14704-P112

>  <fragmenstein_runtime>  (918) 
21.438411951065063

>  <fragmenstein_outcome>  (918) 
too moved

>  <fragmenstein_mode>  (918) 
expansion

>  <fragmenstein_error>  (918) 


$$$$
C14704-P186
     RDKit          3D

 44 45  0  0  0  0  0  0  0  0999 V2000
   -3.2603  -15.5053   25.1498 C   0  0  0  0  0  0  0  0  0  0  0  0
   -2.6500  -14.3497   26.5023 O   0  0  0  0  0  0  0  0  0  0  0  0
   -2.8623  -12.7374   27.2330 C   0  0  0  0  0  0  0  0  0  0  0  0
   -2.0690  -11.5014   28.6007 C   0  0  0  0  0  0  0  0  0  0  0  0
   -2.9121  -11.1300   29.6513 C   0  0  0  0  0  0  0  0  0  0  0  0
   -2.6048   -9.6180   31.0124 N   0  0  0  0  0  0  0  0  0  0  0  0
   -1.9096   -8.0060   30.8308 C   0  0  0  0  0  0  0  0  0  0  0  0
   -1.5779   -7.5214   29.8046 O   0  0  0  0  0  0  0  0  0  0  0  0
   -1.7604   -7.4984   32.2266 N   0  0  0  0  0  0  0  0  0  0  0  0
   -0.5146   -7.9604   32.8030 C   0  0  0  0  0  0  0  0  0  0  0  0
   -1.2165   -6.1041   32.7646 C   0  0  0  0  0  0  0  0  0  0  0  0
   -0.9373   -4.9987   31.7593 C   0  0  0  0  0  0  0  0  0  0  0  0
   -1.4194   -3.6947   31.7142 C   0  0  0  0  0  0  0  0  0  0  0  0
   -0.7929   -2.9469   30.6756 C   0  0  0  0  0  0  0  0  0  0  0  0
    0.1741   -3.5618   30.0091 N   0  0  0  0  0  0  0  0  0  0  0  0
    0.3355   -5.0954   30.6079 S   0  0  0  0  0  0  0  0  0  0  0  0
   -1.3194  -10.5500   27.7595 C   0  0  0  0  0  0  0  0  0  0  0  0
   -0.3637   -9.3675   28.1977 C   0  0  0  0  0  0  0  0  0  0  0  0
    0.3767   -9.2973   29.4340 C   0  0  0  0  0  0  0  0  0  0  0  0
   -0.5090  -10.1302   30.2657 C   0  0  0  0  0  0  0  0  0  0  0  0
   -1.1369  -11.3818   30.0548 O   0  0  0  0  0  0  0  0  0  0  0  0
   -2.8478  -16.4879   25.4953 H   0  0  0  0  0  0  0  0  0  0  0  0
   -4.2948  -15.7206   24.9213 H   0  0  0  0  0  0  0  0  0  0  0  0
   -2.9623  -15.0405   24.2057 H   0  0  0  0  0  0  0  0  0  0  0  0
   -3.9103  -12.5927   27.4152 H   0  0  0  0  0  0  0  0  0  0  0  0
   -2.7406  -12.2268   26.2811 H   0  0  0  0  0  0  0  0  0  0  0  0
   -3.9277  -11.5571   29.5858 H   0  0  0  0  0  0  0  0  0  0  0  0
   -2.7661  -12.2239   29.9353 H   0  0  0  0  0  0  0  0  0  0  0  0
   -2.8714   -9.7532   31.9616 H   0  0  0  0  0  0  0  0  0  0  0  0
   -0.4024   -7.8172   33.8923 H   0  0  0  0  0  0  0  0  0  0  0  0
   -0.6596   -9.0149   32.8020 H   0  0  0  0  0  0  0  0  0  0  0  0
    0.3747   -7.7295   32.2086 H   0  0  0  0  0  0  0  0  0  0  0  0
   -1.9850   -5.7932   33.4517 H   0  0  0  0  0  0  0  0  0  0  0  0
   -0.3337   -6.0505   33.4358 H   0  0  0  0  0  0  0  0  0  0  0  0
   -2.1591   -3.2854   32.3904 H   0  0  0  0  0  0  0  0  0  0  0  0
   -1.0080   -1.9211   30.4035 H   0  0  0  0  0  0  0  0  0  0  0  0
   -1.2392  -11.3584   27.1537 H   0  0  0  0  0  0  0  0  0  0  0  0
   -1.7339  -10.4165   26.7446 H   0  0  0  0  0  0  0  0  0  0  0  0
   -0.9644   -8.4844   28.2153 H   0  0  0  0  0  0  0  0  0  0  0  0
    0.4783   -9.0842   27.6679 H   0  0  0  0  0  0  0  0  0  0  0  0
    0.4858   -8.2790   29.8255 H   0  0  0  0  0  0  0  0  0  0  0  0
    1.4071   -9.5214   29.2179 H   0  0  0  0  0  0  0  0  0  0  0  0
   -1.2402   -9.5791   29.8697 H   0  0  0  0  0  0  0  0  0  0  0  0
   -0.4759   -9.9088   31.2991 H   0  0  0  0  0  0  0  0  0  0  0  0
  1  2  1  0
  2  3  1  0
  3  4  1  0
  4  5  1  0
  5  6  1  0
  6  7  1  0
  7  8  2  0
  7  9  1  0
  9 10  1  0
  9 11  1  0
 11 12  1  0
 12 13  2  0
 13 14  1  0
 14 15  2  0
 15 16  1  0
  4 17  1  0
 17 18  1  0
 18 19  1  0
 19 20  1  0
 20 21  1  0
 21  4  1  0
 16 12  1  0
  1 22  1  0
  1 23  1  0
  1 24  1  0
  3 25  1  0
  3 26  1  0
  5 27  1  0
  5 28  1  0
  6 29  1  0
 10 30  1  0
 10 31  1  0
 10 32  1  0
 11 33  1  0
 11 34  1  0
 13 35  1  0
 14 36  1  0
 17 37  1  0
 17 38  1  0
 18 39  1  0
 18 40  1  0
 19 41  1  0
 19 42  1  0
 20 43  1  0
 20 44  1  0
M  END
>  <Energy>  (919) 
782.90090277171839

>  <compound_id>  (919) 
14704

>  <target_id>  (919) 
1

>  <reference_id>  (919) 
186

>  <inspiration_ids>  (919) 
[112, 186]

>  <energy_score>  (919) 
752.765038183651

>  <distance_score>  (919) 
9.134941388593758

>  <path>  (919) 
/opt/xchem-fragalysis-2/maxwin/BulkDock/SCRATCH/511013/C14704-P186/C14704-P186.minimised.mol

>  <scratch_subdir>  (919) 
/opt/xchem-fragalysis-2/maxwin/BulkDock/SCRATCH/511013/C14704-P186

>  <fragmenstein_runtime>  (919) 
19.781818866729736

>  <fragmenstein_outcome>  (919) 
too moved

>  <fragmenstein_mode>  (919) 
expansion

>  <fragmenstein_error>  (919) 


$$$$
C14707-P112
     RDKit          3D

 44 45  0  0  0  0  0  0  0  0999 V2000
   -2.7015  -11.8313   29.1639 C   0  0  0  0  0  0  0  0  0  0  0  0
   -1.8097  -10.6878   29.4248 O   0  0  0  0  0  0  0  0  0  0  0  0
   -1.0643   -9.8841   30.4039 C   0  0  0  0  0  0  0  0  0  0  0  0
   -1.0091   -8.3211   31.2245 C   0  0  0  0  0  0  0  0  0  0  0  0
   -1.1170   -7.2574   30.1529 C   0  0  0  0  0  0  0  0  0  0  0  0
   -0.4251   -5.9732   30.2911 N   0  0  0  0  0  0  0  0  0  0  0  0
   -0.8039   -4.7357   31.0412 C   0  0  0  0  0  0  0  0  0  0  0  0
   -1.7066   -4.5361   31.7560 O   0  0  0  0  0  0  0  0  0  0  0  0
    0.3021   -3.8555   30.6451 N   0  0  0  0  0  0  0  0  0  0  0  0
    0.5522   -2.4633   30.9405 C   0  0  0  0  0  0  0  0  0  0  0  0
    2.0474   -2.2120   31.0514 C   0  0  0  0  0  0  0  0  0  0  0  0
   -0.1124   -1.6059   29.9072 C   0  0  0  0  0  0  0  0  0  0  0  0
   -0.7673   -1.9183   28.7291 C   0  0  0  0  0  0  0  0  0  0  0  0
   -1.2548   -0.7408   28.0936 C   0  0  0  0  0  0  0  0  0  0  0  0
   -1.0122    0.4123   28.7084 N   0  0  0  0  0  0  0  0  0  0  0  0
   -0.2035    0.0975   30.1153 S   0  0  0  0  0  0  0  0  0  0  0  0
   -2.0465   -8.2375   32.3175 C   0  0  0  0  0  0  0  0  0  0  0  0
   -1.7816   -7.3316   33.5180 C   0  0  0  0  0  0  0  0  0  0  0  0
   -0.3677   -7.3415   34.0137 C   0  0  0  0  0  0  0  0  0  0  0  0
    0.5327   -7.1632   32.8343 C   0  0  0  0  0  0  0  0  0  0  0  0
    0.2956   -8.1361   31.8209 O   0  0  0  0  0  0  0  0  0  0  0  0
   -2.3535  -12.8185   29.3963 H   0  0  0  0  0  0  0  0  0  0  0  0
   -2.8838  -11.8637   28.0870 H   0  0  0  0  0  0  0  0  0  0  0  0
   -3.6664  -11.7996   29.6265 H   0  0  0  0  0  0  0  0  0  0  0  0
   -0.8772  -10.5698   31.1647 H   0  0  0  0  0  0  0  0  0  0  0  0
   -0.2335   -9.6631   29.7325 H   0  0  0  0  0  0  0  0  0  0  0  0
   -0.6588   -7.7329   29.3077 H   0  0  0  0  0  0  0  0  0  0  0  0
   -2.1442   -7.1300   29.8631 H   0  0  0  0  0  0  0  0  0  0  0  0
    0.3609   -5.7778   29.7054 H   0  0  0  0  0  0  0  0  0  0  0  0
    0.9471   -4.3701   30.0828 H   0  0  0  0  0  0  0  0  0  0  0  0
    0.0793   -2.2667   31.9109 H   0  0  0  0  0  0  0  0  0  0  0  0
    2.2661   -1.1845   31.3601 H   0  0  0  0  0  0  0  0  0  0  0  0
    2.4996   -2.8836   31.7900 H   0  0  0  0  0  0  0  0  0  0  0  0
    2.5541   -2.3880   30.0951 H   0  0  0  0  0  0  0  0  0  0  0  0
   -0.9114   -2.9177   28.3426 H   0  0  0  0  0  0  0  0  0  0  0  0
   -1.8033   -0.7089   27.1593 H   0  0  0  0  0  0  0  0  0  0  0  0
   -2.0960   -9.2202   32.7346 H   0  0  0  0  0  0  0  0  0  0  0  0
   -3.0305   -8.0720   31.8930 H   0  0  0  0  0  0  0  0  0  0  0  0
   -2.4308   -7.6138   34.3535 H   0  0  0  0  0  0  0  0  0  0  0  0
   -2.0058   -6.3029   33.2614 H   0  0  0  0  0  0  0  0  0  0  0  0
   -0.1555   -8.2745   34.5329 H   0  0  0  0  0  0  0  0  0  0  0  0
   -0.2099   -6.5391   34.7432 H   0  0  0  0  0  0  0  0  0  0  0  0
    1.5662   -7.2620   33.1747 H   0  0  0  0  0  0  0  0  0  0  0  0
    0.4878   -6.1497   32.4551 H   0  0  0  0  0  0  0  0  0  0  0  0
  1  2  1  0
  2  3  1  0
  3  4  1  0
  4  5  1  0
  5  6  1  0
  6  7  1  0
  7  8  2  0
  7  9  1  0
  9 10  1  0
 10 11  1  0
 10 12  1  0
 12 13  2  0
 13 14  1  0
 14 15  2  0
 15 16  1  0
  4 17  1  0
 17 18  1  0
 18 19  1  0
 19 20  1  0
 20 21  1  0
 21  4  1  0
 16 12  1  0
  1 22  1  0
  1 23  1  0
  1 24  1  0
  3 25  1  0
  3 26  1  0
  5 27  1  0
  5 28  1  0
  6 29  1  0
  9 30  1  0
 10 31  1  0
 11 32  1  0
 11 33  1  0
 11 34  1  0
 13 35  1  0
 14 36  1  0
 17 37  1  0
 17 38  1  0
 18 39  1  0
 18 40  1  0
 19 41  1  0
 19 42  1  0
 20 43  1  0
 20 44  1  0
M  END
>  <Energy>  (920) 
75.241932906659102

>  <compound_id>  (920) 
14707

>  <target_id>  (920) 
1

>  <reference_id>  (920) 
112

>  <inspiration_ids>  (920) 
[112, 186]

>  <energy_score>  (920) 
49.86226012212808

>  <distance_score>  (920) 
10.177843353100629

>  <path>  (920) 
/opt/xchem-fragalysis-2/maxwin/BulkDock/SCRATCH/511013/C14707-P112/C14707-P112.minimised.mol

>  <scratch_subdir>  (920) 
/opt/xchem-fragalysis-2/maxwin/BulkDock/SCRATCH/511013/C14707-P112

>  <fragmenstein_runtime>  (920) 
19.172241687774658

>  <fragmenstein_outcome>  (920) 
too moved

>  <fragmenstein_mode>  (920) 
expansion

>  <fragmenstein_error>  (920) 


$$$$
C14707-P186
     RDKit          3D

 44 45  0  0  0  0  0  0  0  0999 V2000
   -7.5430  -17.0824   23.3185 C   0  0  0  0  0  0  0  0  0  0  0  0
   -8.0253  -15.8197   24.7325 O   0  0  0  0  0  0  0  0  0  0  0  0
   -8.6181  -15.6742   26.1136 C   0  0  0  0  0  0  0  0  0  0  0  0
   -8.2808  -14.3848   27.4373 C   0  0  0  0  0  0  0  0  0  0  0  0
   -6.9418  -13.0357   27.0707 C   0  0  0  0  0  0  0  0  0  0  0  0
   -5.4999  -12.2811   28.0291 N   0  0  0  0  0  0  0  0  0  0  0  0
   -3.7345  -12.2653   27.6673 C   0  0  0  0  0  0  0  0  0  0  0  0
   -3.1615  -12.6608   26.6806 O   0  0  0  0  0  0  0  0  0  0  0  0
   -3.1791  -11.4960   28.9350 N   0  0  0  0  0  0  0  0  0  0  0  0
   -1.7042  -10.8800   29.2473 C   0  0  0  0  0  0  0  0  0  0  0  0
   -1.0452  -10.8777   30.5477 C   0  0  0  0  0  0  0  0  0  0  0  0
   -0.9061   -9.1374   29.4014 C   0  0  0  0  0  0  0  0  0  0  0  0
   -1.1147   -8.0532   30.3444 C   0  0  0  0  0  0  0  0  0  0  0  0
   -0.1367   -7.0350   30.2867 C   0  0  0  0  0  0  0  0  0  0  0  0
    0.8620   -7.2817   29.4646 N   0  0  0  0  0  0  0  0  0  0  0  0
    0.6635   -8.7916   28.8263 S   0  0  0  0  0  0  0  0  0  0  0  0
   -7.8540  -15.1243   28.8923 C   0  0  0  0  0  0  0  0  0  0  0  0
   -8.6894  -16.3092   29.3163 C   0  0  0  0  0  0  0  0  0  0  0  0
  -10.1323  -15.9013   29.3750 C   0  0  0  0  0  0  0  0  0  0  0  0
  -10.5556  -15.1046   28.1523 C   0  0  0  0  0  0  0  0  0  0  0  0
   -9.6552  -14.0785   27.6820 O   0  0  0  0  0  0  0  0  0  0  0  0
   -6.6068  -17.5180   23.5409 H   0  0  0  0  0  0  0  0  0  0  0  0
   -7.8409  -18.1893   23.0917 H   0  0  0  0  0  0  0  0  0  0  0  0
   -8.0732  -16.8222   22.3708 H   0  0  0  0  0  0  0  0  0  0  0  0
   -9.6666  -15.7400   25.9194 H   0  0  0  0  0  0  0  0  0  0  0  0
   -8.6236  -16.5521   26.7372 H   0  0  0  0  0  0  0  0  0  0  0  0
   -6.4482  -13.9268   27.0697 H   0  0  0  0  0  0  0  0  0  0  0  0
   -6.9446  -12.6214   26.0631 H   0  0  0  0  0  0  0  0  0  0  0  0
   -5.6705  -11.8163   28.8715 H   0  0  0  0  0  0  0  0  0  0  0  0
   -3.8943  -11.4004   29.5962 H   0  0  0  0  0  0  0  0  0  0  0  0
   -1.4587  -10.7405   28.1770 H   0  0  0  0  0  0  0  0  0  0  0  0
   -1.2785  -11.7177   31.0714 H   0  0  0  0  0  0  0  0  0  0  0  0
   -1.1613  -10.0833   31.2869 H   0  0  0  0  0  0  0  0  0  0  0  0
   -0.1013  -11.2675   30.3832 H   0  0  0  0  0  0  0  0  0  0  0  0
   -1.9108   -8.0153   31.0833 H   0  0  0  0  0  0  0  0  0  0  0  0
   -0.1110   -6.1175   30.8600 H   0  0  0  0  0  0  0  0  0  0  0  0
   -7.8985  -14.4625   29.7202 H   0  0  0  0  0  0  0  0  0  0  0  0
   -6.8181  -15.4109   28.9971 H   0  0  0  0  0  0  0  0  0  0  0  0
   -8.5496  -17.1670   28.6556 H   0  0  0  0  0  0  0  0  0  0  0  0
   -8.3693  -16.6533   30.3079 H   0  0  0  0  0  0  0  0  0  0  0  0
  -10.2995  -15.3299   30.2897 H   0  0  0  0  0  0  0  0  0  0  0  0
  -10.7705  -16.7875   29.4747 H   0  0  0  0  0  0  0  0  0  0  0  0
  -11.5152  -14.6225   28.3709 H   0  0  0  0  0  0  0  0  0  0  0  0
  -10.8253  -15.8042   27.3598 H   0  0  0  0  0  0  0  0  0  0  0  0
  1  2  1  0
  2  3  1  0
  3  4  1  0
  4  5  1  0
  5  6  1  0
  6  7  1  0
  7  8  2  0
  7  9  1  0
  9 10  1  0
 10 11  1  0
 10 12  1  0
 12 13  2  0
 13 14  1  0
 14 15  2  0
 15 16  1  0
  4 17  1  0
 17 18  1  0
 18 19  1  0
 19 20  1  0
 20 21  1  0
 21  4  1  0
 16 12  1  0
  1 22  1  0
  1 23  1  0
  1 24  1  0
  3 25  1  0
  3 26  1  0
  5 27  1  0
  5 28  1  0
  6 29  1  0
  9 30  1  0
 10 31  1  0
 11 32  1  0
 11 33  1  0
 11 34  1  0
 13 35  1  0
 14 36  1  0
 17 37  1  0
 17 38  1  0
 18 39  1  0
 18 40  1  0
 19 41  1  0
 19 42  1  0
 20 43  1  0
 20 44  1  0
M  END
>  <Energy>  (921) 
526.83745543950965

>  <compound_id>  (921) 
14707

>  <target_id>  (921) 
1

>  <reference_id>  (921) 
186

>  <inspiration_ids>  (921) 
[112, 186]

>  <energy_score>  (921) 
501.45778265496847

>  <distance_score>  (921) 
11.08924945476142

>  <path>  (921) 
/opt/xchem-fragalysis-2/maxwin/BulkDock/SCRATCH/511013/C14707-P186/C14707-P186.minimised.mol

>  <scratch_subdir>  (921) 
/opt/xchem-fragalysis-2/maxwin/BulkDock/SCRATCH/511013/C14707-P186

>  <fragmenstein_runtime>  (921) 
23.225157976150513

>  <fragmenstein_outcome>  (921) 
too moved

>  <fragmenstein_mode>  (921) 
expansion

>  <fragmenstein_error>  (921) 


$$$$
C14709-P112
     RDKit          3D

 38 40  0  0  0  0  0  0  0  0999 V2000
   -4.8885  -20.0653   18.2716 C   0  0  0  0  0  0  0  0  0  0  0  0
   -3.4735  -19.6603   17.8804 C   0  0  0  0  0  0  0  0  0  0  0  0
   -2.9648  -18.7623   18.8820 O   0  0  0  0  0  0  0  0  0  0  0  0
   -1.5861  -18.3473   18.6500 C   0  0  0  0  0  0  0  0  0  0  0  0
   -0.9335  -17.4806   19.7382 C   0  0  0  0  0  0  0  0  0  0  0  0
    0.4363  -17.4489   19.9191 N   0  0  0  0  0  0  0  0  0  0  0  0
    0.6956  -16.5352   20.8435 C   0  0  0  0  0  0  0  0  0  0  0  0
    2.1058  -16.0759   21.0474 C   0  0  0  0  0  0  0  0  0  0  0  0
    2.9855  -15.9215   22.1288 C   0  0  0  0  0  0  0  0  0  0  0  0
    4.1347  -15.1371   21.7908 C   0  0  0  0  0  0  0  0  0  0  0  0
    4.2818  -14.8176   20.5157 N   0  0  0  0  0  0  0  0  0  0  0  0
    3.0724  -15.5806   19.6658 S   0  0  0  0  0  0  0  0  0  0  0  0
   -0.6333  -16.1019   21.3720 N   0  0  0  0  0  0  0  0  0  0  0  0
   -1.1680  -14.8690   22.6921 C   0  0  0  0  0  0  0  0  0  0  0  0
   -2.7914  -14.9995   23.8494 C   0  0  0  0  0  0  0  0  0  0  0  0
   -2.8506  -15.5147   25.1919 C   0  0  0  0  0  0  0  0  0  0  0  0
   -2.3572  -14.3575   26.0576 O   0  0  0  0  0  0  0  0  0  0  0  0
   -1.5977  -13.2487   25.3818 C   0  0  0  0  0  0  0  0  0  0  0  0
   -0.4978  -13.4701   23.6831 C   0  0  0  0  0  0  0  0  0  0  0  0
   -1.6026  -16.6102   20.4866 N   0  0  0  0  0  0  0  0  0  0  0  0
   -4.9125  -20.4157   19.3091 H   0  0  0  0  0  0  0  0  0  0  0  0
   -5.5617  -19.2039   18.2129 H   0  0  0  0  0  0  0  0  0  0  0  0
   -5.2652  -20.8587   17.6337 H   0  0  0  0  0  0  0  0  0  0  0  0
   -2.8331  -20.5475   17.8374 H   0  0  0  0  0  0  0  0  0  0  0  0
   -3.4717  -19.1621   16.9057 H   0  0  0  0  0  0  0  0  0  0  0  0
   -0.9752  -19.2504   18.5347 H   0  0  0  0  0  0  0  0  0  0  0  0
   -1.5573  -17.7841   17.7101 H   0  0  0  0  0  0  0  0  0  0  0  0
    2.8474  -16.2388   23.1440 H   0  0  0  0  0  0  0  0  0  0  0  0
    4.8990  -14.8011   22.4789 H   0  0  0  0  0  0  0  0  0  0  0  0
   -1.6308  -14.6490   21.6397 H   0  0  0  0  0  0  0  0  0  0  0  0
   -3.6691  -15.5218   23.4198 H   0  0  0  0  0  0  0  0  0  0  0  0
   -3.5480  -14.3074   23.6609 H   0  0  0  0  0  0  0  0  0  0  0  0
   -3.8787  -15.7545   25.1515 H   0  0  0  0  0  0  0  0  0  0  0  0
   -2.4570  -16.4898   25.5759 H   0  0  0  0  0  0  0  0  0  0  0  0
   -2.3724  -12.4565   25.4162 H   0  0  0  0  0  0  0  0  0  0  0  0
   -0.9141  -13.0550   26.1827 H   0  0  0  0  0  0  0  0  0  0  0  0
   -0.2555  -12.5161   23.2185 H   0  0  0  0  0  0  0  0  0  0  0  0
    0.5739  -13.6900   23.8676 H   0  0  0  0  0  0  0  0  0  0  0  0
  1  2  1  0
  2  3  1  0
  3  4  1  0
  4  5  1  0
  5  6  1  0
  6  7  2  0
  7  8  1  0
  8  9  2  0
  9 10  1  0
 10 11  2  0
 11 12  1  0
  7 13  1  0
 13 14  1  0
 14 15  1  0
 15 16  1  0
 16 17  1  0
 17 18  1  0
 18 19  1  0
 13 20  1  0
 20  5  2  0
 12  8  1  0
 19 14  1  0
  1 21  1  0
  1 22  1  0
  1 23  1  0
  2 24  1  0
  2 25  1  0
  4 26  1  0
  4 27  1  0
  9 28  1  0
 10 29  1  0
 14 30  1  0
 15 31  1  0
 15 32  1  0
 16 33  1  0
 16 34  1  0
 18 35  1  0
 18 36  1  0
 19 37  1  0
 19 38  1  0
M  END
>  <Energy>  (922) 
400.1893466078352

>  <compound_id>  (922) 
14709

>  <target_id>  (922) 
1

>  <reference_id>  (922) 
112

>  <inspiration_ids>  (922) 
[112, 186]

>  <energy_score>  (922) 
291.1095910533731

>  <distance_score>  (922) 
13.761321432333853

>  <path>  (922) 
/opt/xchem-fragalysis-2/maxwin/BulkDock/SCRATCH/511013/C14709-P112/C14709-P112.minimised.mol

>  <scratch_subdir>  (922) 
/opt/xchem-fragalysis-2/maxwin/BulkDock/SCRATCH/511013/C14709-P112

>  <fragmenstein_runtime>  (922) 
17.331655025482178

>  <fragmenstein_outcome>  (922) 
too moved

>  <fragmenstein_mode>  (922) 
expansion

>  <fragmenstein_error>  (922) 


$$$$
C14709-P186
     RDKit          3D

 38 40  0  0  0  0  0  0  0  0999 V2000
   -0.8507  -12.9038   16.5912 C   0  0  0  0  0  0  0  0  0  0  0  0
    0.4454  -12.1836   17.0223 C   0  0  0  0  0  0  0  0  0  0  0  0
    0.3365  -11.5208   18.3032 O   0  0  0  0  0  0  0  0  0  0  0  0
    1.5797  -10.7958   18.7916 C   0  0  0  0  0  0  0  0  0  0  0  0
    1.7627  -10.7200   20.3827 C   0  0  0  0  0  0  0  0  0  0  0  0
    2.9141  -10.9574   21.1017 N   0  0  0  0  0  0  0  0  0  0  0  0
    2.5347  -10.9798   22.3945 C   0  0  0  0  0  0  0  0  0  0  0  0
    3.2451  -10.0153   23.2589 C   0  0  0  0  0  0  0  0  0  0  0  0
    3.0739   -8.6264   23.3115 C   0  0  0  0  0  0  0  0  0  0  0  0
    3.9972   -8.0014   24.1835 C   0  0  0  0  0  0  0  0  0  0  0  0
    4.9154   -8.7977   24.7142 N   0  0  0  0  0  0  0  0  0  0  0  0
    4.7549  -10.3077   24.0050 S   0  0  0  0  0  0  0  0  0  0  0  0
    1.0422  -11.4056   22.4034 N   0  0  0  0  0  0  0  0  0  0  0  0
   -0.1826  -11.3649   23.7549 C   0  0  0  0  0  0  0  0  0  0  0  0
   -0.4610  -12.7984   24.0599 C   0  0  0  0  0  0  0  0  0  0  0  0
   -1.9507  -13.0227   25.2553 C   0  0  0  0  0  0  0  0  0  0  0  0
   -2.0416  -12.7840   26.5264 O   0  0  0  0  0  0  0  0  0  0  0  0
   -2.4142  -11.4587   26.3753 C   0  0  0  0  0  0  0  0  0  0  0  0
   -1.8485  -10.3296   24.7053 C   0  0  0  0  0  0  0  0  0  0  0  0
    0.6810  -10.7867   21.1504 N   0  0  0  0  0  0  0  0  0  0  0  0
   -0.8307  -13.0937   15.5137 H   0  0  0  0  0  0  0  0  0  0  0  0
   -0.9511  -13.8723   17.0849 H   0  0  0  0  0  0  0  0  0  0  0  0
   -1.7294  -12.3007   16.8376 H   0  0  0  0  0  0  0  0  0  0  0  0
    1.2693  -12.9037   17.0634 H   0  0  0  0  0  0  0  0  0  0  0  0
    0.6899  -11.4163   16.2800 H   0  0  0  0  0  0  0  0  0  0  0  0
    1.5213   -9.7749   18.4026 H   0  0  0  0  0  0  0  0  0  0  0  0
    2.4575  -11.3058   18.3800 H   0  0  0  0  0  0  0  0  0  0  0  0
    2.3279   -8.0950   22.7361 H   0  0  0  0  0  0  0  0  0  0  0  0
    4.0416   -6.9479   24.4277 H   0  0  0  0  0  0  0  0  0  0  0  0
    0.7707  -11.2124   24.3155 H   0  0  0  0  0  0  0  0  0  0  0  0
    0.4978  -13.0328   24.5416 H   0  0  0  0  0  0  0  0  0  0  0  0
   -0.5497  -13.4850   23.2337 H   0  0  0  0  0  0  0  0  0  0  0  0
   -2.7962  -12.3567   24.9090 H   0  0  0  0  0  0  0  0  0  0  0  0
   -2.4122  -13.9920   25.2809 H   0  0  0  0  0  0  0  0  0  0  0  0
   -1.9093  -11.0696   27.2563 H   0  0  0  0  0  0  0  0  0  0  0  0
   -3.4266  -11.7991   26.5567 H   0  0  0  0  0  0  0  0  0  0  0  0
   -2.6315   -9.9759   23.9512 H   0  0  0  0  0  0  0  0  0  0  0  0
   -1.9453   -9.8266   25.6487 H   0  0  0  0  0  0  0  0  0  0  0  0
  1  2  1  0
  2  3  1  0
  3  4  1  0
  4  5  1  0
  5  6  1  0
  6  7  2  0
  7  8  1  0
  8  9  2  0
  9 10  1  0
 10 11  2  0
 11 12  1  0
  7 13  1  0
 13 14  1  0
 14 15  1  0
 15 16  1  0
 16 17  1  0
 17 18  1  0
 18 19  1  0
 13 20  1  0
 20  5  2  0
 12  8  1  0
 19 14  1  0
  1 21  1  0
  1 22  1  0
  1 23  1  0
  2 24  1  0
  2 25  1  0
  4 26  1  0
  4 27  1  0
  9 28  1  0
 10 29  1  0
 14 30  1  0
 15 31  1  0
 15 32  1  0
 16 33  1  0
 16 34  1  0
 18 35  1  0
 18 36  1  0
 19 37  1  0
 19 38  1  0
M  END
>  <Energy>  (923) 
529.64896039482244

>  <compound_id>  (923) 
14709

>  <target_id>  (923) 
1

>  <reference_id>  (923) 
186

>  <inspiration_ids>  (923) 
[112, 186]

>  <energy_score>  (923) 
420.5692048403771

>  <distance_score>  (923) 
12.908644849472429

>  <path>  (923) 
/opt/xchem-fragalysis-2/maxwin/BulkDock/SCRATCH/511013/C14709-P186/C14709-P186.minimised.mol

>  <scratch_subdir>  (923) 
/opt/xchem-fragalysis-2/maxwin/BulkDock/SCRATCH/511013/C14709-P186

>  <fragmenstein_runtime>  (923) 
13.443571329116821

>  <fragmenstein_outcome>  (923) 
too moved

>  <fragmenstein_mode>  (923) 
expansion

>  <fragmenstein_error>  (923) 


$$$$
C17021-P187
     RDKit          3D

 38 39  0  0  0  0  0  0  0  0999 V2000
    6.1463   -6.2308   27.1358 C   0  0  0  0  0  0  0  0  0  0  0  0
    6.7757   -5.2503   28.1296 C   0  0  0  0  0  0  0  0  0  0  0  0
    7.8461   -4.3217   27.4874 C   0  0  0  0  0  0  0  0  0  0  0  0
    9.0202   -4.9330   26.8900 N   0  0  0  0  0  0  0  0  0  0  0  0
   10.3400   -4.3875   26.6089 C   0  0  0  0  0  0  0  0  0  0  0  0
   10.8164   -3.3184   26.8731 O   0  0  0  0  0  0  0  0  0  0  0  0
   11.2236   -5.4336   25.8845 C   0  0  0  0  0  0  0  0  0  0  0  0
   11.9981   -4.9800   24.6535 C   0  0  0  0  0  0  0  0  0  0  0  0
   12.2566   -3.6521   24.1771 C   0  0  0  0  0  0  0  0  0  0  0  0
   13.0506   -3.6669   23.0465 C   0  0  0  0  0  0  0  0  0  0  0  0
   13.3988   -5.2800   22.6443 S   0  0  0  0  0  0  0  0  0  0  0  0
   12.5524   -5.9483   23.9057 N   0  0  0  0  0  0  0  0  0  0  0  0
    5.7346   -4.4300   28.7642 N   0  0  0  0  0  0  0  0  0  0  0  0
    4.3587   -4.7404   29.1142 C   0  0  0  0  0  0  0  0  0  0  0  0
    3.7002   -5.7192   28.9020 O   0  0  0  0  0  0  0  0  0  0  0  0
    3.7727   -3.5140   29.8425 C   0  0  0  0  0  0  0  0  0  0  0  0
    2.3276   -3.6736   30.2254 C   0  0  0  0  0  0  0  0  0  0  0  0
    1.2064   -3.2599   29.5312 C   0  0  0  0  0  0  0  0  0  0  0  0
   -0.0020   -3.4948   30.2512 C   0  0  0  0  0  0  0  0  0  0  0  0
    0.2343   -4.0824   31.4730 C   0  0  0  0  0  0  0  0  0  0  0  0
    1.9013   -4.3721   31.7333 S   0  0  0  0  0  0  0  0  0  0  0  0
    6.9144   -6.8151   26.6198 H   0  0  0  0  0  0  0  0  0  0  0  0
    5.5552   -5.7033   26.3792 H   0  0  0  0  0  0  0  0  0  0  0  0
    5.4908   -6.9460   27.6419 H   0  0  0  0  0  0  0  0  0  0  0  0
    7.2469   -5.8267   28.9341 H   0  0  0  0  0  0  0  0  0  0  0  0
    7.3775   -3.7159   26.7024 H   0  0  0  0  0  0  0  0  0  0  0  0
    8.2123   -3.6081   28.2356 H   0  0  0  0  0  0  0  0  0  0  0  0
    8.9351   -5.8373   26.4457 H   0  0  0  0  0  0  0  0  0  0  0  0
   11.9488   -5.7849   26.6307 H   0  0  0  0  0  0  0  0  0  0  0  0
   10.6262   -6.3081   25.6029 H   0  0  0  0  0  0  0  0  0  0  0  0
   11.8990   -2.7394   24.6374 H   0  0  0  0  0  0  0  0  0  0  0  0
   13.4215   -2.8322   22.4700 H   0  0  0  0  0  0  0  0  0  0  0  0
    5.9894   -3.5390   29.1786 H   0  0  0  0  0  0  0  0  0  0  0  0
    3.8697   -2.6458   29.1780 H   0  0  0  0  0  0  0  0  0  0  0  0
    4.3791   -3.3180   30.7356 H   0  0  0  0  0  0  0  0  0  0  0  0
    1.2435   -2.7854   28.5574 H   0  0  0  0  0  0  0  0  0  0  0  0
   -0.9883   -3.2307   29.8868 H   0  0  0  0  0  0  0  0  0  0  0  0
   -0.4877   -4.3606   32.2287 H   0  0  0  0  0  0  0  0  0  0  0  0
  1  2  1  0
  2  3  1  0
  3  4  1  0
  4  5  1  0
  5  6  2  0
  5  7  1  0
  7  8  1  0
  8  9  1  0
  9 10  2  0
 10 11  1  0
 11 12  1  0
  2 13  1  0
 13 14  1  0
 14 15  2  0
 14 16  1  0
 16 17  1  0
 17 18  2  0
 18 19  1  0
 19 20  2  0
 20 21  1  0
 12  8  2  0
 21 17  1  0
  1 22  1  0
  1 23  1  0
  1 24  1  0
  2 25  1  0
  3 26  1  0
  3 27  1  0
  4 28  1  0
  7 29  1  0
  7 30  1  0
  9 31  1  0
 10 32  1  0
 13 33  1  0
 16 34  1  0
 16 35  1  0
 18 36  1  0
 19 37  1  0
 20 38  1  0
M  END
>  <Energy>  (924) 
43.905613073345172

>  <compound_id>  (924) 
17021

>  <target_id>  (924) 
1

>  <reference_id>  (924) 
187

>  <inspiration_ids>  (924) 
[187, 66]

>  <energy_score>  (924) 
-35.595491532057395

>  <distance_score>  (924) 
7.51797066003314

>  <path>  (924) 
/opt/xchem-fragalysis-2/maxwin/BulkDock/SCRATCH/511013/C17021-P187/C17021-P187.minimised.mol

>  <scratch_subdir>  (924) 
/opt/xchem-fragalysis-2/maxwin/BulkDock/SCRATCH/511013/C17021-P187

>  <fragmenstein_runtime>  (924) 
20.461504220962524

>  <fragmenstein_outcome>  (924) 
too moved

>  <fragmenstein_mode>  (924) 
expansion

>  <fragmenstein_error>  (924) 


$$$$
C17021-P66
     RDKit          3D

 38 39  0  0  0  0  0  0  0  0999 V2000
    8.6594   -6.6606   29.4668 C   0  0  0  0  0  0  0  0  0  0  0  0
    8.4965   -5.3867   28.6322 C   0  0  0  0  0  0  0  0  0  0  0  0
    9.8377   -4.6704   28.3293 C   0  0  0  0  0  0  0  0  0  0  0  0
   10.5997   -5.2223   27.2147 N   0  0  0  0  0  0  0  0  0  0  0  0
   11.6131   -4.6150   26.3560 C   0  0  0  0  0  0  0  0  0  0  0  0
   12.0154   -3.4889   26.3016 O   0  0  0  0  0  0  0  0  0  0  0  0
   12.1992   -5.7033   25.4286 C   0  0  0  0  0  0  0  0  0  0  0  0
   12.8766   -5.3010   24.1306 C   0  0  0  0  0  0  0  0  0  0  0  0
   13.2033   -4.0024   23.6217 C   0  0  0  0  0  0  0  0  0  0  0  0
   13.8458   -4.0850   22.4013 C   0  0  0  0  0  0  0  0  0  0  0  0
   13.9600   -5.7185   21.9565 S   0  0  0  0  0  0  0  0  0  0  0  0
   13.2372   -6.3132   23.3244 N   0  0  0  0  0  0  0  0  0  0  0  0
    7.5166   -4.5143   29.2665 N   0  0  0  0  0  0  0  0  0  0  0  0
    6.1766   -4.7808   29.7400 C   0  0  0  0  0  0  0  0  0  0  0  0
    5.5609   -5.8064   29.8027 O   0  0  0  0  0  0  0  0  0  0  0  0
    5.5702   -3.4600   30.2776 C   0  0  0  0  0  0  0  0  0  0  0  0
    4.0707   -3.5054   30.4553 C   0  0  0  0  0  0  0  0  0  0  0  0
    3.3141   -4.2611   31.3325 C   0  0  0  0  0  0  0  0  0  0  0  0
    1.9149   -4.0055   31.2197 C   0  0  0  0  0  0  0  0  0  0  0  0
    1.6442   -3.0359   30.2828 C   0  0  0  0  0  0  0  0  0  0  0  0
    3.0692   -2.4491   29.5405 S   0  0  0  0  0  0  0  0  0  0  0  0
    9.4010   -7.3269   29.0140 H   0  0  0  0  0  0  0  0  0  0  0  0
    7.7204   -7.2180   29.5412 H   0  0  0  0  0  0  0  0  0  0  0  0
    8.9900   -6.4238   30.4839 H   0  0  0  0  0  0  0  0  0  0  0  0
    8.0459   -5.6978   27.6915 H   0  0  0  0  0  0  0  0  0  0  0  0
   10.4909   -4.6796   29.2089 H   0  0  0  0  0  0  0  0  0  0  0  0
    9.6593   -3.6176   28.0809 H   0  0  0  0  0  0  0  0  0  0  0  0
   10.5747   -6.2191   27.0433 H   0  0  0  0  0  0  0  0  0  0  0  0
   11.3920   -6.3989   25.1637 H   0  0  0  0  0  0  0  0  0  0  0  0
   12.9275   -6.2611   26.0321 H   0  0  0  0  0  0  0  0  0  0  0  0
   12.9878   -3.0596   24.1085 H   0  0  0  0  0  0  0  0  0  0  0  0
   14.2129   -3.2840   21.7766 H   0  0  0  0  0  0  0  0  0  0  0  0
    7.7408   -3.5385   29.4382 H   0  0  0  0  0  0  0  0  0  0  0  0
    6.0364   -3.2556   31.2493 H   0  0  0  0  0  0  0  0  0  0  0  0
    5.8429   -2.6431   29.5982 H   0  0  0  0  0  0  0  0  0  0  0  0
    3.7376   -4.9842   32.0194 H   0  0  0  0  0  0  0  0  0  0  0  0
    1.1530   -4.5145   31.7988 H   0  0  0  0  0  0  0  0  0  0  0  0
    0.6792   -2.6459   29.9895 H   0  0  0  0  0  0  0  0  0  0  0  0
  1  2  1  0
  2  3  1  0
  3  4  1  0
  4  5  1  0
  5  6  2  0
  5  7  1  0
  7  8  1  0
  8  9  1  0
  9 10  2  0
 10 11  1  0
 11 12  1  0
  2 13  1  0
 13 14  1  0
 14 15  2  0
 14 16  1  0
 16 17  1  0
 17 18  2  0
 18 19  1  0
 19 20  2  0
 20 21  1  0
 12  8  2  0
 21 17  1  0
  1 22  1  0
  1 23  1  0
  1 24  1  0
  2 25  1  0
  3 26  1  0
  3 27  1  0
  4 28  1  0
  7 29  1  0
  7 30  1  0
  9 31  1  0
 10 32  1  0
 13 33  1  0
 16 34  1  0
 16 35  1  0
 18 36  1  0
 19 37  1  0
 20 38  1  0
M  END
>  <Energy>  (925) 
43.694973909969498

>  <compound_id>  (925) 
17021

>  <target_id>  (925) 
1

>  <reference_id>  (925) 
66

>  <inspiration_ids>  (925) 
[187, 66]

>  <energy_score>  (925) 
-35.80613069543102

>  <distance_score>  (925) 
8.075223609839126

>  <path>  (925) 
/opt/xchem-fragalysis-2/maxwin/BulkDock/SCRATCH/511013/C17021-P66/C17021-P66.minimised.mol

>  <scratch_subdir>  (925) 
/opt/xchem-fragalysis-2/maxwin/BulkDock/SCRATCH/511013/C17021-P66

>  <fragmenstein_runtime>  (925) 
21.286270141601562

>  <fragmenstein_outcome>  (925) 
too moved

>  <fragmenstein_mode>  (925) 
expansion

>  <fragmenstein_error>  (925) 


$$$$
C17043-P187
     RDKit          3D

 24 25  0  0  0  0  0  0  0  0999 V2000
    6.8877   -7.4932   24.9034 N   0  0  0  0  0  0  0  0  0  0  0  0
    6.9826   -6.0050   24.4472 C   0  0  0  0  0  0  0  0  0  0  0  0
    6.8632   -6.1283   22.7085 C   0  0  0  0  0  0  0  0  0  0  0  0
    6.3110   -7.1352   22.4179 O   0  0  0  0  0  0  0  0  0  0  0  0
    7.3853   -4.9285   21.5780 N   0  0  0  0  0  0  0  0  0  0  0  0
    7.1659   -4.7949   19.9107 C   0  0  0  0  0  0  0  0  0  0  0  0
    8.4859   -3.8537   19.7805 C   0  0  0  0  0  0  0  0  0  0  0  0
    8.3304   -2.1042   18.8736 N   0  0  0  0  0  0  0  0  0  0  0  0
    7.5374   -2.7956   16.4499 S   0  0  0  0  0  0  0  0  0  0  0  0
    6.8794   -4.7529   18.1607 C   0  0  0  0  0  0  0  0  0  0  0  0
    5.8324   -5.4076   25.3098 C   0  0  0  0  0  0  0  0  0  0  0  0
    4.6461   -6.0134   25.7416 C   0  0  0  0  0  0  0  0  0  0  0  0
    3.8882   -5.2346   26.6654 C   0  0  0  0  0  0  0  0  0  0  0  0
    4.5151   -4.0484   26.9527 C   0  0  0  0  0  0  0  0  0  0  0  0
    6.0212   -3.9141   26.1569 S   0  0  0  0  0  0  0  0  0  0  0  0
    6.1503   -7.8866   24.2812 H   0  0  0  0  0  0  0  0  0  0  0  0
    7.6991   -7.9650   24.5188 H   0  0  0  0  0  0  0  0  0  0  0  0
    7.9617   -5.8854   24.8795 H   0  0  0  0  0  0  0  0  0  0  0  0
    7.7223   -4.1851   22.0479 H   0  0  0  0  0  0  0  0  0  0  0  0
    8.8095   -3.4995   20.6616 H   0  0  0  0  0  0  0  0  0  0  0  0
    6.3457   -5.6244   17.6681 H   0  0  0  0  0  0  0  0  0  0  0  0
    4.3457   -6.9959   25.3947 H   0  0  0  0  0  0  0  0  0  0  0  0
    2.9443   -5.5347   27.0989 H   0  0  0  0  0  0  0  0  0  0  0  0
    4.1825   -3.2618   27.6161 H   0  0  0  0  0  0  0  0  0  0  0  0
  1  2  1  0
  2  3  1  0
  3  4  2  0
  3  5  1  0
  5  6  1  0
  6  7  1  0
  7  8  2  0
  8  9  1  0
  9 10  1  0
  2 11  1  0
 11 12  2  0
 12 13  1  0
 13 14  2  0
 14 15  1  0
 10  6  2  0
 15 11  1  0
  1 16  1  0
  1 17  1  0
  2 18  1  0
  5 19  1  0
  7 20  1  0
 10 21  1  0
 12 22  1  0
 13 23  1  0
 14 24  1  0
M  END
>  <Energy>  (926) 
1031.1619389920932

>  <compound_id>  (926) 
17043

>  <target_id>  (926) 
1

>  <reference_id>  (926) 
187

>  <inspiration_ids>  (926) 
[187, 66]

>  <energy_score>  (926) 
935.2895350328522

>  <distance_score>  (926) 
8.483939460074362

>  <path>  (926) 
/opt/xchem-fragalysis-2/maxwin/BulkDock/SCRATCH/511013/C17043-P187/C17043-P187.minimised.mol

>  <scratch_subdir>  (926) 
/opt/xchem-fragalysis-2/maxwin/BulkDock/SCRATCH/511013/C17043-P187

>  <fragmenstein_runtime>  (926) 
5.585808038711548

>  <fragmenstein_outcome>  (926) 
too moved

>  <fragmenstein_mode>  (926) 
expansion

>  <fragmenstein_error>  (926) 


$$$$
C17043-P66
     RDKit          3D

 24 25  0  0  0  0  0  0  0  0999 V2000
    4.7487   -4.5937   31.2946 N   0  0  0  0  0  0  0  0  0  0  0  0
    4.8262   -3.4055   30.3942 C   0  0  0  0  0  0  0  0  0  0  0  0
    6.0532   -3.6016   29.3749 C   0  0  0  0  0  0  0  0  0  0  0  0
    6.6336   -4.6590   29.3885 O   0  0  0  0  0  0  0  0  0  0  0  0
    6.3278   -2.3765   28.6356 N   0  0  0  0  0  0  0  0  0  0  0  0
    7.3871   -2.0324   27.8005 C   0  0  0  0  0  0  0  0  0  0  0  0
    7.4787   -0.8450   26.9920 C   0  0  0  0  0  0  0  0  0  0  0  0
    8.6106   -0.6214   26.3224 N   0  0  0  0  0  0  0  0  0  0  0  0
    9.6445   -1.8756   26.6491 S   0  0  0  0  0  0  0  0  0  0  0  0
    8.5367   -2.7739   27.6055 C   0  0  0  0  0  0  0  0  0  0  0  0
    3.4637   -3.1905   29.7682 C   0  0  0  0  0  0  0  0  0  0  0  0
    2.3103   -3.9551   29.9059 C   0  0  0  0  0  0  0  0  0  0  0  0
    1.2041   -3.4380   29.1752 C   0  0  0  0  0  0  0  0  0  0  0  0
    1.5266   -2.2728   28.5226 C   0  0  0  0  0  0  0  0  0  0  0  0
    3.1300   -1.7812   28.8436 S   0  0  0  0  0  0  0  0  0  0  0  0
    5.7008   -4.8119   31.5909 H   0  0  0  0  0  0  0  0  0  0  0  0
    4.2281   -4.3311   32.1300 H   0  0  0  0  0  0  0  0  0  0  0  0
    5.0828   -2.5412   31.0208 H   0  0  0  0  0  0  0  0  0  0  0  0
    5.5807   -1.7124   28.8058 H   0  0  0  0  0  0  0  0  0  0  0  0
    6.7016   -0.0986   26.8936 H   0  0  0  0  0  0  0  0  0  0  0  0
    8.8056   -3.7356   28.0154 H   0  0  0  0  0  0  0  0  0  0  0  0
    2.2653   -4.8696   30.4876 H   0  0  0  0  0  0  0  0  0  0  0  0
    0.2277   -3.9030   29.1190 H   0  0  0  0  0  0  0  0  0  0  0  0
    0.8936   -1.6776   27.8774 H   0  0  0  0  0  0  0  0  0  0  0  0
  1  2  1  0
  2  3  1  0
  3  4  2  0
  3  5  1  0
  5  6  1  0
  6  7  1  0
  7  8  2  0
  8  9  1  0
  9 10  1  0
  2 11  1  0
 11 12  2  0
 12 13  1  0
 13 14  2  0
 14 15  1  0
 10  6  2  0
 15 11  1  0
  1 16  1  0
  1 17  1  0
  2 18  1  0
  5 19  1  0
  7 20  1  0
 10 21  1  0
 12 22  1  0
 13 23  1  0
 14 24  1  0
M  END
>  <Energy>  (927) 
66.855280784016429

>  <compound_id>  (927) 
17043

>  <target_id>  (927) 
1

>  <reference_id>  (927) 
66

>  <inspiration_ids>  (927) 
[187, 66]

>  <energy_score>  (927) 
-29.01712317522197

>  <distance_score>  (927) 
8.888473637476322

>  <path>  (927) 
/opt/xchem-fragalysis-2/maxwin/BulkDock/SCRATCH/511013/C17043-P66/C17043-P66.minimised.mol

>  <scratch_subdir>  (927) 
/opt/xchem-fragalysis-2/maxwin/BulkDock/SCRATCH/511013/C17043-P66

>  <fragmenstein_runtime>  (927) 
8.652111530303955

>  <fragmenstein_outcome>  (927) 
too moved

>  <fragmenstein_mode>  (927) 
expansion

>  <fragmenstein_error>  (927) 


$$$$
C17065-P187
     RDKit          3D

 36 38  0  0  0  0  0  0  0  0999 V2000
    6.7246   -4.5407   23.6072 O   0  0  0  0  0  0  0  0  0  0  0  0
    6.9617   -5.4700   22.8823 C   0  0  0  0  0  0  0  0  0  0  0  0
    7.7825   -4.8045   21.1588 C   0  0  0  0  0  0  0  0  0  0  0  0
    9.4911   -5.2579   20.3535 O   0  0  0  0  0  0  0  0  0  0  0  0
   11.2011   -5.1196   20.7321 C   0  0  0  0  0  0  0  0  0  0  0  0
   12.3629   -5.0832   19.7777 C   0  0  0  0  0  0  0  0  0  0  0  0
   13.5772   -4.7869   20.3601 C   0  0  0  0  0  0  0  0  0  0  0  0
   13.2659   -4.3888   21.9670 S   0  0  0  0  0  0  0  0  0  0  0  0
   11.6373   -4.5154   21.8635 N   0  0  0  0  0  0  0  0  0  0  0  0
    6.6549   -6.8959   23.0447 N   0  0  0  0  0  0  0  0  0  0  0  0
    6.0620   -7.6332   24.1671 C   0  0  0  0  0  0  0  0  0  0  0  0
    5.3236   -6.9514   25.3130 C   0  0  0  0  0  0  0  0  0  0  0  0
    4.0613   -7.4100   25.7150 C   0  0  0  0  0  0  0  0  0  0  0  0
    3.3836   -6.8477   26.8204 C   0  0  0  0  0  0  0  0  0  0  0  0
    3.9263   -5.8047   27.5788 C   0  0  0  0  0  0  0  0  0  0  0  0
    3.1791   -5.1847   28.7056 C   0  0  0  0  0  0  0  0  0  0  0  0
    2.0974   -5.6616   29.4316 C   0  0  0  0  0  0  0  0  0  0  0  0
    1.6429   -4.7697   30.4467 C   0  0  0  0  0  0  0  0  0  0  0  0
    2.3741   -3.6076   30.4615 C   0  0  0  0  0  0  0  0  0  0  0  0
    3.5933   -3.6055   29.2698 S   0  0  0  0  0  0  0  0  0  0  0  0
    5.2096   -5.3873   27.2040 C   0  0  0  0  0  0  0  0  0  0  0  0
    5.8957   -5.9555   26.1079 C   0  0  0  0  0  0  0  0  0  0  0  0
    7.7942   -3.7534   21.2594 H   0  0  0  0  0  0  0  0  0  0  0  0
    7.0913   -4.9654   20.3029 H   0  0  0  0  0  0  0  0  0  0  0  0
   12.3144   -5.1127   18.7026 H   0  0  0  0  0  0  0  0  0  0  0  0
   14.5547   -4.7111   19.9079 H   0  0  0  0  0  0  0  0  0  0  0  0
    6.9128   -7.3772   22.2205 H   0  0  0  0  0  0  0  0  0  0  0  0
    5.3954   -8.3661   23.6971 H   0  0  0  0  0  0  0  0  0  0  0  0
    6.8834   -8.2130   24.6054 H   0  0  0  0  0  0  0  0  0  0  0  0
    3.5739   -8.2175   25.1689 H   0  0  0  0  0  0  0  0  0  0  0  0
    2.4161   -7.2626   27.0659 H   0  0  0  0  0  0  0  0  0  0  0  0
    1.6386   -6.6216   29.2534 H   0  0  0  0  0  0  0  0  0  0  0  0
    0.8150   -4.9630   31.1176 H   0  0  0  0  0  0  0  0  0  0  0  0
    2.2463   -2.7513   31.1096 H   0  0  0  0  0  0  0  0  0  0  0  0
    5.7276   -4.5972   27.7443 H   0  0  0  0  0  0  0  0  0  0  0  0
    6.8923   -5.5795   25.8742 H   0  0  0  0  0  0  0  0  0  0  0  0
  1  2  2  0
  2  3  1  0
  3  4  1  0
  4  5  1  0
  5  6  1  0
  6  7  2  0
  7  8  1  0
  8  9  1  0
  2 10  1  0
 10 11  1  0
 11 12  1  0
 12 13  2  0
 13 14  1  0
 14 15  2  0
 15 16  1  0
 16 17  2  0
 17 18  1  0
 18 19  2  0
 19 20  1  0
 15 21  1  0
 21 22  2  0
  9  5  2  0
 22 12  1  0
 20 16  1  0
  3 23  1  0
  3 24  1  0
  6 25  1  0
  7 26  1  0
 10 27  1  0
 11 28  1  0
 11 29  1  0
 13 30  1  0
 14 31  1  0
 17 32  1  0
 18 33  1  0
 19 34  1  0
 21 35  1  0
 22 36  1  0
M  END
>  <Energy>  (928) 
266.66451505390171

>  <compound_id>  (928) 
17065

>  <target_id>  (928) 
1

>  <reference_id>  (928) 
187

>  <inspiration_ids>  (928) 
[187, 66]

>  <energy_score>  (928) 
195.76208359235068

>  <distance_score>  (928) 
7.989181033503462

>  <path>  (928) 
/opt/xchem-fragalysis-2/maxwin/BulkDock/SCRATCH/511013/C17065-P187/C17065-P187.minimised.mol

>  <scratch_subdir>  (928) 
/opt/xchem-fragalysis-2/maxwin/BulkDock/SCRATCH/511013/C17065-P187

>  <fragmenstein_runtime>  (928) 
9.197235345840454

>  <fragmenstein_outcome>  (928) 
too moved

>  <fragmenstein_mode>  (928) 
expansion

>  <fragmenstein_error>  (928) 


$$$$
C17065-P66
     RDKit          3D

 36 38  0  0  0  0  0  0  0  0999 V2000
    5.3446   -1.7663   22.2359 O   0  0  0  0  0  0  0  0  0  0  0  0
    5.7230   -2.2856   23.2388 C   0  0  0  0  0  0  0  0  0  0  0  0
    7.0011   -3.7191   22.8805 C   0  0  0  0  0  0  0  0  0  0  0  0
    7.7869   -3.6520   21.3468 O   0  0  0  0  0  0  0  0  0  0  0  0
    8.5599   -4.4900   20.3455 C   0  0  0  0  0  0  0  0  0  0  0  0
   10.0990   -5.5587   20.1988 C   0  0  0  0  0  0  0  0  0  0  0  0
   11.4138   -5.6379   20.5925 C   0  0  0  0  0  0  0  0  0  0  0  0
   11.6018   -4.1035   21.0129 S   0  0  0  0  0  0  0  0  0  0  0  0
    9.5201   -3.4897   20.3558 N   0  0  0  0  0  0  0  0  0  0  0  0
    5.3151   -2.0892   24.6181 N   0  0  0  0  0  0  0  0  0  0  0  0
    4.2377   -1.2614   25.2056 C   0  0  0  0  0  0  0  0  0  0  0  0
    3.8700   -1.6087   26.6790 C   0  0  0  0  0  0  0  0  0  0  0  0
    2.5259   -1.7447   27.0495 C   0  0  0  0  0  0  0  0  0  0  0  0
    2.1161   -2.2479   28.2999 C   0  0  0  0  0  0  0  0  0  0  0  0
    3.0558   -2.5624   29.2799 C   0  0  0  0  0  0  0  0  0  0  0  0
    2.6336   -3.1860   30.5479 C   0  0  0  0  0  0  0  0  0  0  0  0
    1.6588   -4.1488   30.7568 C   0  0  0  0  0  0  0  0  0  0  0  0
    1.5263   -4.5153   32.1266 C   0  0  0  0  0  0  0  0  0  0  0  0
    2.3992   -3.8201   32.9302 C   0  0  0  0  0  0  0  0  0  0  0  0
    3.3650   -2.7320   32.0358 S   0  0  0  0  0  0  0  0  0  0  0  0
    4.3991   -2.2836   28.9806 C   0  0  0  0  0  0  0  0  0  0  0  0
    4.7955   -1.7984   27.7102 C   0  0  0  0  0  0  0  0  0  0  0  0
    6.8709   -4.7821   23.1094 H   0  0  0  0  0  0  0  0  0  0  0  0
    7.5450   -3.5691   23.7672 H   0  0  0  0  0  0  0  0  0  0  0  0
    9.7502   -5.9231   19.2384 H   0  0  0  0  0  0  0  0  0  0  0  0
   12.2285   -6.3200   20.5597 H   0  0  0  0  0  0  0  0  0  0  0  0
    5.9046   -2.6373   25.2159 H   0  0  0  0  0  0  0  0  0  0  0  0
    4.4422   -0.1955   25.1474 H   0  0  0  0  0  0  0  0  0  0  0  0
    3.3613   -1.5020   24.6085 H   0  0  0  0  0  0  0  0  0  0  0  0
    1.7609   -1.4742   26.3381 H   0  0  0  0  0  0  0  0  0  0  0  0
    1.0521   -2.3785   28.4801 H   0  0  0  0  0  0  0  0  0  0  0  0
    1.0722   -4.5860   29.9579 H   0  0  0  0  0  0  0  0  0  0  0  0
    0.8346   -5.2602   32.5016 H   0  0  0  0  0  0  0  0  0  0  0  0
    2.5163   -3.9022   34.0018 H   0  0  0  0  0  0  0  0  0  0  0  0
    5.1798   -2.4798   29.7117 H   0  0  0  0  0  0  0  0  0  0  0  0
    5.8543   -1.6414   27.5147 H   0  0  0  0  0  0  0  0  0  0  0  0
  1  2  2  0
  2  3  1  0
  3  4  1  0
  4  5  1  0
  5  6  1  0
  6  7  2  0
  7  8  1  0
  8  9  1  0
  2 10  1  0
 10 11  1  0
 11 12  1  0
 12 13  2  0
 13 14  1  0
 14 15  2  0
 15 16  1  0
 16 17  2  0
 17 18  1  0
 18 19  2  0
 19 20  1  0
 15 21  1  0
 21 22  2  0
  9  5  2  0
 22 12  1  0
 20 16  1  0
  3 23  1  0
  3 24  1  0
  6 25  1  0
  7 26  1  0
 10 27  1  0
 11 28  1  0
 11 29  1  0
 13 30  1  0
 14 31  1  0
 17 32  1  0
 18 33  1  0
 19 34  1  0
 21 35  1  0
 22 36  1  0
M  END
>  <Energy>  (929) 
400.3687420098359

>  <compound_id>  (929) 
17065

>  <target_id>  (929) 
1

>  <reference_id>  (929) 
66

>  <inspiration_ids>  (929) 
[187, 66]

>  <energy_score>  (929) 
329.4663105482849

>  <distance_score>  (929) 
7.584269274291117

>  <path>  (929) 
/opt/xchem-fragalysis-2/maxwin/BulkDock/SCRATCH/511013/C17065-P66/C17065-P66.minimised.mol

>  <scratch_subdir>  (929) 
/opt/xchem-fragalysis-2/maxwin/BulkDock/SCRATCH/511013/C17065-P66

>  <fragmenstein_runtime>  (929) 
9.869852066040039

>  <fragmenstein_outcome>  (929) 
too moved

>  <fragmenstein_mode>  (929) 
expansion

>  <fragmenstein_error>  (929) 


$$$$
C7067-P187
     RDKit          3D

 42 43  0  0  0  0  0  0  0  0999 V2000
    9.1039  -10.5946   27.8551 O   0  0  0  0  0  0  0  0  0  0  0  0
    9.0421   -9.8234   26.9437 C   0  0  0  0  0  0  0  0  0  0  0  0
    9.2241  -10.3204   25.5076 C   0  0  0  0  0  0  0  0  0  0  0  0
    7.9489  -10.9331   24.9033 C   0  0  0  0  0  0  0  0  0  0  0  0
    6.6374  -10.5181   25.5497 C   0  0  0  0  0  0  0  0  0  0  0  0
    5.4409  -11.3279   25.0977 C   0  0  0  0  0  0  0  0  0  0  0  0
    5.2906  -12.7301   25.3553 C   0  0  0  0  0  0  0  0  0  0  0  0
    4.1321  -13.2562   24.8309 C   0  0  0  0  0  0  0  0  0  0  0  0
    3.1868  -12.0616   24.0671 S   0  0  0  0  0  0  0  0  0  0  0  0
    4.2926  -10.8319   24.5032 C   0  0  0  0  0  0  0  0  0  0  0  0
    8.7205   -8.4322   26.9186 N   0  0  0  0  0  0  0  0  0  0  0  0
    8.4626   -7.5000   27.9894 C   0  0  0  0  0  0  0  0  0  0  0  0
    8.0281   -6.1259   27.4281 C   0  0  0  0  0  0  0  0  0  0  0  0
    7.1592   -5.3512   28.4565 C   0  0  0  0  0  0  0  0  0  0  0  0
    5.9426   -6.0387   28.7938 O   0  0  0  0  0  0  0  0  0  0  0  0
    9.1838   -5.3820   26.8707 N   0  0  0  0  0  0  0  0  0  0  0  0
   10.2795   -5.8205   26.0401 C   0  0  0  0  0  0  0  0  0  0  0  0
   10.5783   -6.9163   25.6544 O   0  0  0  0  0  0  0  0  0  0  0  0
   11.1204   -4.6884   25.5031 C   0  0  0  0  0  0  0  0  0  0  0  0
   12.1049   -4.8603   24.4455 C   0  0  0  0  0  0  0  0  0  0  0  0
   12.6272   -3.6570   24.0300 C   0  0  0  0  0  0  0  0  0  0  0  0
   11.9519   -2.4306   25.0004 S   0  0  0  0  0  0  0  0  0  0  0  0
   10.9679   -3.4185   25.9044 N   0  0  0  0  0  0  0  0  0  0  0  0
    9.5836   -9.5114   24.8629 H   0  0  0  0  0  0  0  0  0  0  0  0
   10.0321  -11.0625   25.5067 H   0  0  0  0  0  0  0  0  0  0  0  0
    8.0539  -12.0238   24.9825 H   0  0  0  0  0  0  0  0  0  0  0  0
    7.9279  -10.7316   23.8262 H   0  0  0  0  0  0  0  0  0  0  0  0
    6.7620  -10.7195   26.6173 H   0  0  0  0  0  0  0  0  0  0  0  0
    6.4643   -9.4457   25.4110 H   0  0  0  0  0  0  0  0  0  0  0  0
    6.0262  -13.3375   25.8707 H   0  0  0  0  0  0  0  0  0  0  0  0
    3.8009  -14.2854   24.8518 H   0  0  0  0  0  0  0  0  0  0  0  0
    4.0679   -9.8032   24.2582 H   0  0  0  0  0  0  0  0  0  0  0  0
    8.8493   -8.0797   25.9748 H   0  0  0  0  0  0  0  0  0  0  0  0
    9.3717   -7.4192   28.5950 H   0  0  0  0  0  0  0  0  0  0  0  0
    7.6909   -7.9620   28.6116 H   0  0  0  0  0  0  0  0  0  0  0  0
    7.3806   -6.3173   26.5610 H   0  0  0  0  0  0  0  0  0  0  0  0
    6.8751   -4.3811   28.0349 H   0  0  0  0  0  0  0  0  0  0  0  0
    7.7209   -5.1560   29.3767 H   0  0  0  0  0  0  0  0  0  0  0  0
    6.1748   -6.7111   29.4563 H   0  0  0  0  0  0  0  0  0  0  0  0
    9.1949   -4.3637   26.9236 H   0  0  0  0  0  0  0  0  0  0  0  0
   12.3626   -5.8172   24.0110 H   0  0  0  0  0  0  0  0  0  0  0  0
   13.3534   -3.4548   23.2559 H   0  0  0  0  0  0  0  0  0  0  0  0
  1  2  2  0
  2  3  1  0
  3  4  1  0
  4  5  1  0
  5  6  1  0
  6  7  1  0
  7  8  2  0
  8  9  1  0
  9 10  1  0
  2 11  1  0
 11 12  1  0
 12 13  1  0
 13 14  1  0
 14 15  1  0
 13 16  1  0
 16 17  1  0
 17 18  2  0
 17 19  1  0
 19 20  1  0
 20 21  2  0
 21 22  1  0
 22 23  1  0
 10  6  2  0
 23 19  2  0
  3 24  1  0
  3 25  1  0
  4 26  1  0
  4 27  1  0
  5 28  1  0
  5 29  1  0
  7 30  1  0
  8 31  1  0
 10 32  1  0
 11 33  1  0
 12 34  1  0
 12 35  1  0
 13 36  1  0
 14 37  1  0
 14 38  1  0
 15 39  1  0
 16 40  1  0
 20 41  1  0
 21 42  1  0
M  END
>  <Energy>  (930) 
44.652868331502376

>  <compound_id>  (930) 
7067

>  <target_id>  (930) 
1

>  <reference_id>  (930) 
187

>  <inspiration_ids>  (930) 
[187, 66]

>  <energy_score>  (930) 
-36.58824552522077

>  <distance_score>  (930) 
10.830925875529756

>  <path>  (930) 
/opt/xchem-fragalysis-2/maxwin/BulkDock/SCRATCH/511013/C7067-P187/C7067-P187.minimised.mol

>  <scratch_subdir>  (930) 
/opt/xchem-fragalysis-2/maxwin/BulkDock/SCRATCH/511013/C7067-P187

>  <fragmenstein_runtime>  (930) 
19.452102422714233

>  <fragmenstein_outcome>  (930) 
too moved

>  <fragmenstein_mode>  (930) 
expansion

>  <fragmenstein_error>  (930) 


$$$$
C7067-P66
     RDKit          3D

 42 43  0  0  0  0  0  0  0  0999 V2000
   -0.9097    0.2477   30.7297 O   0  0  0  0  0  0  0  0  0  0  0  0
    0.0772   -0.3611   30.7991 C   0  0  0  0  0  0  0  0  0  0  0  0
    1.0476   -0.3643   31.9687 C   0  0  0  0  0  0  0  0  0  0  0  0
    1.3134   -1.8186   32.5007 C   0  0  0  0  0  0  0  0  0  0  0  0
    0.1904   -2.8722   32.4136 C   0  0  0  0  0  0  0  0  0  0  0  0
   -1.1692   -2.3298   32.7211 C   0  0  0  0  0  0  0  0  0  0  0  0
   -1.5220   -1.6796   33.9461 C   0  0  0  0  0  0  0  0  0  0  0  0
   -2.8018   -1.1729   33.9305 C   0  0  0  0  0  0  0  0  0  0  0  0
   -3.5941   -1.4896   32.4526 S   0  0  0  0  0  0  0  0  0  0  0  0
   -2.2382   -2.3365   31.8441 C   0  0  0  0  0  0  0  0  0  0  0  0
    0.6724   -1.4019   29.8436 N   0  0  0  0  0  0  0  0  0  0  0  0
    0.1381   -1.9815   28.6545 C   0  0  0  0  0  0  0  0  0  0  0  0
    0.9553   -3.2832   28.4499 C   0  0  0  0  0  0  0  0  0  0  0  0
   -0.0042   -4.5402   28.2606 C   0  0  0  0  0  0  0  0  0  0  0  0
   -0.2025   -5.3891   29.4183 O   0  0  0  0  0  0  0  0  0  0  0  0
    2.1315   -2.8384   27.6286 N   0  0  0  0  0  0  0  0  0  0  0  0
    3.3517   -1.9101   28.0071 C   0  0  0  0  0  0  0  0  0  0  0  0
    3.6480   -1.4269   29.0367 O   0  0  0  0  0  0  0  0  0  0  0  0
    4.3365   -1.5962   26.8525 C   0  0  0  0  0  0  0  0  0  0  0  0
    4.1700   -1.7130   25.4136 C   0  0  0  0  0  0  0  0  0  0  0  0
    5.3950   -1.7146   24.7936 C   0  0  0  0  0  0  0  0  0  0  0  0
    6.6494   -1.3159   25.9599 S   0  0  0  0  0  0  0  0  0  0  0  0
    5.5825   -1.1619   27.1850 N   0  0  0  0  0  0  0  0  0  0  0  0
    0.6050    0.2369   32.7714 H   0  0  0  0  0  0  0  0  0  0  0  0
    1.9866    0.1180   31.6771 H   0  0  0  0  0  0  0  0  0  0  0  0
    1.5946   -1.7074   33.5575 H   0  0  0  0  0  0  0  0  0  0  0  0
    2.2143   -2.2282   32.0255 H   0  0  0  0  0  0  0  0  0  0  0  0
    0.1888   -3.3493   31.4293 H   0  0  0  0  0  0  0  0  0  0  0  0
    0.4157   -3.6800   33.1222 H   0  0  0  0  0  0  0  0  0  0  0  0
   -0.8572   -1.5637   34.7927 H   0  0  0  0  0  0  0  0  0  0  0  0
   -3.3086   -0.6291   34.7140 H   0  0  0  0  0  0  0  0  0  0  0  0
   -2.2605   -2.7314   30.8394 H   0  0  0  0  0  0  0  0  0  0  0  0
    1.5939   -1.6761   30.1723 H   0  0  0  0  0  0  0  0  0  0  0  0
    0.2380   -1.2629   27.8355 H   0  0  0  0  0  0  0  0  0  0  0  0
   -0.9260   -2.1579   28.8314 H   0  0  0  0  0  0  0  0  0  0  0  0
    1.4604   -3.5399   29.3921 H   0  0  0  0  0  0  0  0  0  0  0  0
    0.2796   -5.1541   27.4078 H   0  0  0  0  0  0  0  0  0  0  0  0
   -1.0005   -4.1712   28.0197 H   0  0  0  0  0  0  0  0  0  0  0  0
    0.5840   -5.9523   29.5436 H   0  0  0  0  0  0  0  0  0  0  0  0
    2.1319   -3.0095   26.6270 H   0  0  0  0  0  0  0  0  0  0  0  0
    3.2530   -1.9699   24.9100 H   0  0  0  0  0  0  0  0  0  0  0  0
    5.5765   -2.0002   23.7828 H   0  0  0  0  0  0  0  0  0  0  0  0
  1  2  2  0
  2  3  1  0
  3  4  1  0
  4  5  1  0
  5  6  1  0
  6  7  1  0
  7  8  2  0
  8  9  1  0
  9 10  1  0
  2 11  1  0
 11 12  1  0
 12 13  1  0
 13 14  1  0
 14 15  1  0
 13 16  1  0
 16 17  1  0
 17 18  2  0
 17 19  1  0
 19 20  1  0
 20 21  2  0
 21 22  1  0
 22 23  1  0
 10  6  2  0
 23 19  2  0
  3 24  1  0
  3 25  1  0
  4 26  1  0
  4 27  1  0
  5 28  1  0
  5 29  1  0
  7 30  1  0
  8 31  1  0
 10 32  1  0
 11 33  1  0
 12 34  1  0
 12 35  1  0
 13 36  1  0
 14 37  1  0
 14 38  1  0
 15 39  1  0
 16 40  1  0
 20 41  1  0
 21 42  1  0
M  END
>  <Energy>  (931) 
110.83753421042999

>  <compound_id>  (931) 
7067

>  <target_id>  (931) 
1

>  <reference_id>  (931) 
66

>  <inspiration_ids>  (931) 
[187, 66]

>  <energy_score>  (931) 
24.399283309481575

>  <distance_score>  (931) 
8.497285766377956

>  <path>  (931) 
/opt/xchem-fragalysis-2/maxwin/BulkDock/SCRATCH/511013/C7067-P66/C7067-P66.minimised.mol

>  <scratch_subdir>  (931) 
/opt/xchem-fragalysis-2/maxwin/BulkDock/SCRATCH/511013/C7067-P66

>  <fragmenstein_runtime>  (931) 
8.8673415184021

>  <fragmenstein_outcome>  (931) 
too moved

>  <fragmenstein_mode>  (931) 
expansion

>  <fragmenstein_error>  (931) 


$$$$
C7079-P187
     RDKit          3D

 39 40  0  0  0  0  0  0  0  0999 V2000
    5.7293   -3.5877   25.0791 C   0  0  0  0  0  0  0  0  0  0  0  0
    4.0999   -2.8135   24.7107 C   0  0  0  0  0  0  0  0  0  0  0  0
    4.1938   -1.4430   25.7744 C   0  0  0  0  0  0  0  0  0  0  0  0
    3.3007   -1.3065   26.8653 O   0  0  0  0  0  0  0  0  0  0  0  0
    3.7725   -4.0494   25.9781 C   0  0  0  0  0  0  0  0  0  0  0  0
    2.7171   -4.0766   27.0045 N   0  0  0  0  0  0  0  0  0  0  0  0
    2.6837   -3.5299   28.3509 C   0  0  0  0  0  0  0  0  0  0  0  0
    3.4801   -2.8485   28.9393 O   0  0  0  0  0  0  0  0  0  0  0  0
    1.3320   -3.8338   29.0358 C   0  0  0  0  0  0  0  0  0  0  0  0
    1.3717   -4.6680   30.2920 C   0  0  0  0  0  0  0  0  0  0  0  0
    2.2257   -4.4314   31.4187 C   0  0  0  0  0  0  0  0  0  0  0  0
    1.9497   -5.2504   32.4914 C   0  0  0  0  0  0  0  0  0  0  0  0
    0.6532   -6.3108   32.1665 S   0  0  0  0  0  0  0  0  0  0  0  0
    0.4919   -5.6990   30.5784 C   0  0  0  0  0  0  0  0  0  0  0  0
    5.0370   -1.9631   23.4814 N   0  0  0  0  0  0  0  0  0  0  0  0
    5.3961   -2.3326   21.6392 C   0  0  0  0  0  0  0  0  0  0  0  0
    4.9624   -3.1999   20.9223 O   0  0  0  0  0  0  0  0  0  0  0  0
    6.7981   -1.3179   20.6829 C   0  0  0  0  0  0  0  0  0  0  0  0
    6.9286    0.0475   20.3050 C   0  0  0  0  0  0  0  0  0  0  0  0
    7.2334    1.0521   19.3164 N   0  0  0  0  0  0  0  0  0  0  0  0
    6.9233    0.1521   18.0054 S   0  0  0  0  0  0  0  0  0  0  0  0
    7.2579   -1.0224   19.3634 C   0  0  0  0  0  0  0  0  0  0  0  0
    5.7440   -4.6176   25.4747 H   0  0  0  0  0  0  0  0  0  0  0  0
    6.3218   -2.9652   25.7574 H   0  0  0  0  0  0  0  0  0  0  0  0
    6.2556   -3.8270   24.1583 H   0  0  0  0  0  0  0  0  0  0  0  0
    5.2126   -1.3253   26.1566 H   0  0  0  0  0  0  0  0  0  0  0  0
    4.0147   -0.5514   25.1695 H   0  0  0  0  0  0  0  0  0  0  0  0
    3.7637   -1.5967   27.6786 H   0  0  0  0  0  0  0  0  0  0  0  0
    3.7382   -5.0437   25.5270 H   0  0  0  0  0  0  0  0  0  0  0  0
    4.5788   -3.9955   26.7241 H   0  0  0  0  0  0  0  0  0  0  0  0
    1.9195   -4.6713   26.8733 H   0  0  0  0  0  0  0  0  0  0  0  0
    0.9059   -2.8548   29.2982 H   0  0  0  0  0  0  0  0  0  0  0  0
    0.6202   -4.2570   28.3274 H   0  0  0  0  0  0  0  0  0  0  0  0
    2.9883   -3.6601   31.4544 H   0  0  0  0  0  0  0  0  0  0  0  0
    2.4300   -5.2545   33.4603 H   0  0  0  0  0  0  0  0  0  0  0  0
   -0.2869   -6.0959   29.9460 H   0  0  0  0  0  0  0  0  0  0  0  0
    5.5856   -1.2523   23.8226 H   0  0  0  0  0  0  0  0  0  0  0  0
    6.0671    0.1781   21.1204 H   0  0  0  0  0  0  0  0  0  0  0  0
    8.2723   -1.1171   19.2672 H   0  0  0  0  0  0  0  0  0  0  0  0
  1  2  1  0
  2  3  1  0
  3  4  1  0
  2  5  1  0
  5  6  1  0
  6  7  1  0
  7  8  2  0
  7  9  1  0
  9 10  1  0
 10 11  1  0
 11 12  2  0
 12 13  1  0
 13 14  1  0
  2 15  1  0
 15 16  1  0
 16 17  2  0
 16 18  1  0
 18 19  1  0
 19 20  2  0
 20 21  1  0
 21 22  1  0
 14 10  2  0
 22 18  2  0
  1 23  1  0
  1 24  1  0
  1 25  1  0
  3 26  1  0
  3 27  1  0
  4 28  1  0
  5 29  1  0
  5 30  1  0
  6 31  1  0
  9 32  1  0
  9 33  1  0
 11 34  1  0
 12 35  1  0
 14 36  1  0
 15 37  1  0
 19 38  1  0
 22 39  1  0
M  END
>  <Energy>  (932) 
638.4417215528232

>  <compound_id>  (932) 
7079

>  <target_id>  (932) 
1

>  <reference_id>  (932) 
187

>  <inspiration_ids>  (932) 
[187, 66]

>  <energy_score>  (932) 
533.6713164304089

>  <distance_score>  (932) 
6.617349615932839

>  <path>  (932) 
/opt/xchem-fragalysis-2/maxwin/BulkDock/SCRATCH/511013/C7079-P187/C7079-P187.minimised.mol

>  <scratch_subdir>  (932) 
/opt/xchem-fragalysis-2/maxwin/BulkDock/SCRATCH/511013/C7079-P187

>  <fragmenstein_runtime>  (932) 
11.252779722213745

>  <fragmenstein_outcome>  (932) 
too moved

>  <fragmenstein_mode>  (932) 
expansion

>  <fragmenstein_error>  (932) 


$$$$
C7079-P66
     RDKit          3D

 39 40  0  0  0  0  0  0  0  0999 V2000
    8.1909   -0.6366   26.0793 C   0  0  0  0  0  0  0  0  0  0  0  0
    7.1241   -1.7392   26.1835 C   0  0  0  0  0  0  0  0  0  0  0  0
    7.1317   -2.1055   27.7571 C   0  0  0  0  0  0  0  0  0  0  0  0
    6.9170   -0.9980   28.6358 O   0  0  0  0  0  0  0  0  0  0  0  0
    5.5906   -1.2419   25.9587 C   0  0  0  0  0  0  0  0  0  0  0  0
    4.3852   -1.7832   26.6044 N   0  0  0  0  0  0  0  0  0  0  0  0
    3.8191   -1.5424   27.9070 C   0  0  0  0  0  0  0  0  0  0  0  0
    4.2300   -0.8974   28.8312 O   0  0  0  0  0  0  0  0  0  0  0  0
    2.4063   -2.1829   27.9931 C   0  0  0  0  0  0  0  0  0  0  0  0
    2.1006   -3.0738   29.1860 C   0  0  0  0  0  0  0  0  0  0  0  0
    3.0006   -3.4940   30.2214 C   0  0  0  0  0  0  0  0  0  0  0  0
    2.4044   -4.3091   31.1590 C   0  0  0  0  0  0  0  0  0  0  0  0
    0.7569   -4.5901   30.8117 S   0  0  0  0  0  0  0  0  0  0  0  0
    0.8416   -3.6166   29.4097 C   0  0  0  0  0  0  0  0  0  0  0  0
    7.6283   -3.0903   25.4464 N   0  0  0  0  0  0  0  0  0  0  0  0
    7.2037   -3.8000   23.8194 C   0  0  0  0  0  0  0  0  0  0  0  0
    6.5235   -3.2439   23.0472 O   0  0  0  0  0  0  0  0  0  0  0  0
    7.6000   -5.4903   23.1891 C   0  0  0  0  0  0  0  0  0  0  0  0
    6.9565   -6.8065   23.4714 C   0  0  0  0  0  0  0  0  0  0  0  0
    7.5348   -7.9454   23.0814 N   0  0  0  0  0  0  0  0  0  0  0  0
    8.4326   -7.5471   21.7639 S   0  0  0  0  0  0  0  0  0  0  0  0
    7.9212   -5.9060   21.8420 C   0  0  0  0  0  0  0  0  0  0  0  0
    7.8354    0.3106   26.4981 H   0  0  0  0  0  0  0  0  0  0  0  0
    8.5267   -0.4484   25.0714 H   0  0  0  0  0  0  0  0  0  0  0  0
    9.0990   -0.9202   26.6257 H   0  0  0  0  0  0  0  0  0  0  0  0
    8.1179   -2.5139   28.0120 H   0  0  0  0  0  0  0  0  0  0  0  0
    6.4195   -2.8908   28.0251 H   0  0  0  0  0  0  0  0  0  0  0  0
    5.9494   -0.8530   28.7102 H   0  0  0  0  0  0  0  0  0  0  0  0
    5.3351   -1.4569   24.9185 H   0  0  0  0  0  0  0  0  0  0  0  0
    5.5425   -0.1727   26.1942 H   0  0  0  0  0  0  0  0  0  0  0  0
    3.8012   -2.4467   26.1071 H   0  0  0  0  0  0  0  0  0  0  0  0
    1.6965   -1.3447   27.9926 H   0  0  0  0  0  0  0  0  0  0  0  0
    2.1880   -2.7657   27.0938 H   0  0  0  0  0  0  0  0  0  0  0  0
    4.0400   -3.1927   30.2885 H   0  0  0  0  0  0  0  0  0  0  0  0
    2.8488   -4.7500   32.0409 H   0  0  0  0  0  0  0  0  0  0  0  0
   -0.0459   -3.4798   28.8048 H   0  0  0  0  0  0  0  0  0  0  0  0
    8.2944   -3.6945   25.9158 H   0  0  0  0  0  0  0  0  0  0  0  0
    6.0618   -6.9630   24.0456 H   0  0  0  0  0  0  0  0  0  0  0  0
    8.0844   -5.3342   20.9423 H   0  0  0  0  0  0  0  0  0  0  0  0
  1  2  1  0
  2  3  1  0
  3  4  1  0
  2  5  1  0
  5  6  1  0
  6  7  1  0
  7  8  2  0
  7  9  1  0
  9 10  1  0
 10 11  1  0
 11 12  2  0
 12 13  1  0
 13 14  1  0
  2 15  1  0
 15 16  1  0
 16 17  2  0
 16 18  1  0
 18 19  1  0
 19 20  2  0
 20 21  1  0
 21 22  1  0
 14 10  2  0
 22 18  2  0
  1 23  1  0
  1 24  1  0
  1 25  1  0
  3 26  1  0
  3 27  1  0
  4 28  1  0
  5 29  1  0
  5 30  1  0
  6 31  1  0
  9 32  1  0
  9 33  1  0
 11 34  1  0
 12 35  1  0
 14 36  1  0
 15 37  1  0
 19 38  1  0
 22 39  1  0
M  END
>  <Energy>  (933) 
200.38272957435021

>  <compound_id>  (933) 
7079

>  <target_id>  (933) 
1

>  <reference_id>  (933) 
66

>  <inspiration_ids>  (933) 
[187, 66]

>  <energy_score>  (933) 
95.61232445193514

>  <distance_score>  (933) 
8.32998009970171

>  <path>  (933) 
/opt/xchem-fragalysis-2/maxwin/BulkDock/SCRATCH/511013/C7079-P66/C7079-P66.minimised.mol

>  <scratch_subdir>  (933) 
/opt/xchem-fragalysis-2/maxwin/BulkDock/SCRATCH/511013/C7079-P66

>  <fragmenstein_runtime>  (933) 
11.800608158111572

>  <fragmenstein_outcome>  (933) 
too moved

>  <fragmenstein_mode>  (933) 
expansion

>  <fragmenstein_error>  (933) 


$$$$
C7084-P187
     RDKit          3D

 37 39  0  0  0  0  0  0  0  0999 V2000
    6.3968   -3.8544   24.0000 O   0  0  0  0  0  0  0  0  0  0  0  0
    6.6939   -4.9762   23.8048 C   0  0  0  0  0  0  0  0  0  0  0  0
    7.3514   -5.6381   22.5506 N   0  0  0  0  0  0  0  0  0  0  0  0
    8.0965   -4.8236   20.8486 C   0  0  0  0  0  0  0  0  0  0  0  0
   10.1354   -5.4425   20.5130 C   0  0  0  0  0  0  0  0  0  0  0  0
   11.7260   -5.3438   19.7147 C   0  0  0  0  0  0  0  0  0  0  0  0
   12.9298   -5.6791   20.3239 C   0  0  0  0  0  0  0  0  0  0  0  0
   12.6327   -5.0932   21.8495 S   0  0  0  0  0  0  0  0  0  0  0  0
   11.1531   -4.4967   21.3689 N   0  0  0  0  0  0  0  0  0  0  0  0
    6.6549   -6.1757   24.8192 N   0  0  0  0  0  0  0  0  0  0  0  0
    5.2011   -6.9348   24.7631 C   0  0  0  0  0  0  0  0  0  0  0  0
    4.0106   -6.3818   25.7111 C   0  0  0  0  0  0  0  0  0  0  0  0
    3.2651   -7.2401   26.5745 C   0  0  0  0  0  0  0  0  0  0  0  0
    2.7336   -6.5683   27.6537 C   0  0  0  0  0  0  0  0  0  0  0  0
    2.8475   -4.8804   27.5039 S   0  0  0  0  0  0  0  0  0  0  0  0
    3.7020   -5.0590   26.0326 C   0  0  0  0  0  0  0  0  0  0  0  0
    6.3596   -6.1995   26.2724 C   0  0  0  0  0  0  0  0  0  0  0  0
    6.5457   -7.3344   27.0851 C   0  0  0  0  0  0  0  0  0  0  0  0
    6.5142   -7.2355   28.4852 C   0  0  0  0  0  0  0  0  0  0  0  0
    6.4034   -5.9947   29.1117 C   0  0  0  0  0  0  0  0  0  0  0  0
    6.3945   -4.8443   28.3419 C   0  0  0  0  0  0  0  0  0  0  0  0
    6.4423   -4.9537   26.9472 C   0  0  0  0  0  0  0  0  0  0  0  0
    7.3877   -6.6275   22.6826 H   0  0  0  0  0  0  0  0  0  0  0  0
    7.7085   -3.9376   21.3530 H   0  0  0  0  0  0  0  0  0  0  0  0
    8.4731   -3.9860   20.3491 H   0  0  0  0  0  0  0  0  0  0  0  0
   11.8420   -4.8848   18.7205 H   0  0  0  0  0  0  0  0  0  0  0  0
   13.9206   -5.8254   19.9217 H   0  0  0  0  0  0  0  0  0  0  0  0
    4.9107   -6.9820   23.7269 H   0  0  0  0  0  0  0  0  0  0  0  0
    5.3732   -8.0011   24.9854 H   0  0  0  0  0  0  0  0  0  0  0  0
    3.2733   -8.3108   26.4659 H   0  0  0  0  0  0  0  0  0  0  0  0
    2.2196   -6.9664   28.5145 H   0  0  0  0  0  0  0  0  0  0  0  0
    4.1002   -4.1553   25.5934 H   0  0  0  0  0  0  0  0  0  0  0  0
    6.7618   -8.3015   26.6412 H   0  0  0  0  0  0  0  0  0  0  0  0
    6.6459   -8.1334   29.0834 H   0  0  0  0  0  0  0  0  0  0  0  0
    6.4216   -5.9171   30.1942 H   0  0  0  0  0  0  0  0  0  0  0  0
    6.4025   -3.8627   28.8070 H   0  0  0  0  0  0  0  0  0  0  0  0
    6.5307   -4.0303   26.3767 H   0  0  0  0  0  0  0  0  0  0  0  0
  1  2  2  0
  2  3  1  0
  3  4  1  0
  4  5  1  0
  5  6  1  0
  6  7  2  0
  7  8  1  0
  8  9  1  0
  2 10  1  0
 10 11  1  0
 11 12  1  0
 12 13  1  0
 13 14  2  0
 14 15  1  0
 15 16  1  0
 10 17  1  0
 17 18  2  0
 18 19  1  0
 19 20  2  0
 20 21  1  0
 21 22  2  0
  9  5  2  0
 16 12  2  0
 22 17  1  0
  3 23  1  0
  4 24  1  0
  4 25  1  0
  6 26  1  0
  7 27  1  0
 11 28  1  0
 11 29  1  0
 13 30  1  0
 14 31  1  0
 16 32  1  0
 18 33  1  0
 19 34  1  0
 20 35  1  0
 21 36  1  0
 22 37  1  0
M  END
>  <Energy>  (934) 
526.98155257246253

>  <compound_id>  (934) 
7084

>  <target_id>  (934) 
1

>  <reference_id>  (934) 
187

>  <inspiration_ids>  (934) 
[187, 66]

>  <energy_score>  (934) 
475.36861155245947

>  <distance_score>  (934) 
7.925089952422597

>  <path>  (934) 
/opt/xchem-fragalysis-2/maxwin/BulkDock/SCRATCH/511013/C7084-P187/C7084-P187.minimised.mol

>  <scratch_subdir>  (934) 
/opt/xchem-fragalysis-2/maxwin/BulkDock/SCRATCH/511013/C7084-P187

>  <fragmenstein_runtime>  (934) 
9.193179845809937

>  <fragmenstein_outcome>  (934) 
too moved

>  <fragmenstein_mode>  (934) 
expansion

>  <fragmenstein_error>  (934) 


$$$$
C7084-P66
     RDKit          3D

 37 39  0  0  0  0  0  0  0  0999 V2000
    5.4804   -1.7915   21.9304 O   0  0  0  0  0  0  0  0  0  0  0  0
    5.8981   -2.4463   22.8421 C   0  0  0  0  0  0  0  0  0  0  0  0
    7.2006   -3.8613   22.5902 N   0  0  0  0  0  0  0  0  0  0  0  0
    8.2382   -4.4714   20.9067 C   0  0  0  0  0  0  0  0  0  0  0  0
   10.2522   -5.2433   20.6035 C   0  0  0  0  0  0  0  0  0  0  0  0
   11.6731   -5.7801   20.2312 C   0  0  0  0  0  0  0  0  0  0  0  0
   12.5881   -6.1469   21.2348 C   0  0  0  0  0  0  0  0  0  0  0  0
   12.6903   -4.5691   21.8369 S   0  0  0  0  0  0  0  0  0  0  0  0
   11.2410   -4.1413   21.0505 N   0  0  0  0  0  0  0  0  0  0  0  0
    5.5021   -2.0894   24.5873 N   0  0  0  0  0  0  0  0  0  0  0  0
    4.0705   -2.9139   25.1021 C   0  0  0  0  0  0  0  0  0  0  0  0
    3.6122   -2.7035   26.8237 C   0  0  0  0  0  0  0  0  0  0  0  0
    4.5223   -2.4703   27.9578 C   0  0  0  0  0  0  0  0  0  0  0  0
    3.9089   -2.3595   29.1860 C   0  0  0  0  0  0  0  0  0  0  0  0
    2.2278   -2.5725   29.0707 S   0  0  0  0  0  0  0  0  0  0  0  0
    2.3243   -2.7443   27.3656 C   0  0  0  0  0  0  0  0  0  0  0  0
    4.6553   -0.8118   25.2986 C   0  0  0  0  0  0  0  0  0  0  0  0
    5.5452   -0.2119   26.2745 C   0  0  0  0  0  0  0  0  0  0  0  0
    5.2036    0.7491   27.2536 C   0  0  0  0  0  0  0  0  0  0  0  0
    3.8908    1.1492   27.4015 C   0  0  0  0  0  0  0  0  0  0  0  0
    2.9418    0.5406   26.6090 C   0  0  0  0  0  0  0  0  0  0  0  0
    3.3254   -0.4440   25.6564 C   0  0  0  0  0  0  0  0  0  0  0  0
    7.3524   -4.3379   23.4686 H   0  0  0  0  0  0  0  0  0  0  0  0
    7.5521   -5.0151   20.2584 H   0  0  0  0  0  0  0  0  0  0  0  0
    8.4390   -3.4626   20.5632 H   0  0  0  0  0  0  0  0  0  0  0  0
   12.1930   -5.4461   19.3234 H   0  0  0  0  0  0  0  0  0  0  0  0
   13.5078   -6.7094   21.2517 H   0  0  0  0  0  0  0  0  0  0  0  0
    3.2734   -2.5899   24.4301 H   0  0  0  0  0  0  0  0  0  0  0  0
    4.1545   -3.9502   24.8914 H   0  0  0  0  0  0  0  0  0  0  0  0
    5.5970   -2.3846   27.8559 H   0  0  0  0  0  0  0  0  0  0  0  0
    4.3777   -2.1759   30.1420 H   0  0  0  0  0  0  0  0  0  0  0  0
    1.3876   -2.8583   26.8662 H   0  0  0  0  0  0  0  0  0  0  0  0
    6.5847   -0.5560   26.2864 H   0  0  0  0  0  0  0  0  0  0  0  0
    5.9758    1.1406   27.9098 H   0  0  0  0  0  0  0  0  0  0  0  0
    3.6065    1.8679   28.1624 H   0  0  0  0  0  0  0  0  0  0  0  0
    1.8852    0.7406   26.7711 H   0  0  0  0  0  0  0  0  0  0  0  0
    2.4602   -0.9889   25.2815 H   0  0  0  0  0  0  0  0  0  0  0  0
  1  2  2  0
  2  3  1  0
  3  4  1  0
  4  5  1  0
  5  6  1  0
  6  7  2  0
  7  8  1  0
  8  9  1  0
  2 10  1  0
 10 11  1  0
 11 12  1  0
 12 13  1  0
 13 14  2  0
 14 15  1  0
 15 16  1  0
 10 17  1  0
 17 18  2  0
 18 19  1  0
 19 20  2  0
 20 21  1  0
 21 22  2  0
  9  5  2  0
 16 12  2  0
 22 17  1  0
  3 23  1  0
  4 24  1  0
  4 25  1  0
  6 26  1  0
  7 27  1  0
 11 28  1  0
 11 29  1  0
 13 30  1  0
 14 31  1  0
 16 32  1  0
 18 33  1  0
 19 34  1  0
 20 35  1  0
 21 36  1  0
 22 37  1  0
M  END
>  <Energy>  (935) 
693.41491878342413

>  <compound_id>  (935) 
7084

>  <target_id>  (935) 
1

>  <reference_id>  (935) 
66

>  <inspiration_ids>  (935) 
[187, 66]

>  <energy_score>  (935) 
641.801977763409

>  <distance_score>  (935) 
7.975930547741166

>  <path>  (935) 
/opt/xchem-fragalysis-2/maxwin/BulkDock/SCRATCH/511013/C7084-P66/C7084-P66.minimised.mol

>  <scratch_subdir>  (935) 
/opt/xchem-fragalysis-2/maxwin/BulkDock/SCRATCH/511013/C7084-P66

>  <fragmenstein_runtime>  (935) 
9.95761775970459

>  <fragmenstein_outcome>  (935) 
too moved

>  <fragmenstein_mode>  (935) 
expansion

>  <fragmenstein_error>  (935) 


$$$$
C7088-P187
     RDKit          3D

 39 41  0  0  0  0  0  0  0  0999 V2000
    7.7779   -6.7090   24.6238 C   0  0  0  0  0  0  0  0  0  0  0  0
    6.6247   -6.2950   23.6817 N   0  0  0  0  0  0  0  0  0  0  0  0
    5.8091   -6.8910   24.8513 C   0  0  0  0  0  0  0  0  0  0  0  0
    5.1409   -6.0832   25.9943 C   0  0  0  0  0  0  0  0  0  0  0  0
    3.9846   -6.6311   26.5938 C   0  0  0  0  0  0  0  0  0  0  0  0
    3.3056   -5.9821   27.6386 C   0  0  0  0  0  0  0  0  0  0  0  0
    3.7402   -4.7457   28.1186 C   0  0  0  0  0  0  0  0  0  0  0  0
    3.0259   -4.0574   29.1988 C   0  0  0  0  0  0  0  0  0  0  0  0
    3.6032   -3.4116   30.3421 C   0  0  0  0  0  0  0  0  0  0  0  0
    2.6596   -2.8624   31.1818 C   0  0  0  0  0  0  0  0  0  0  0  0
    1.0718   -3.1059   30.6035 S   0  0  0  0  0  0  0  0  0  0  0  0
    1.6480   -3.9336   29.2203 C   0  0  0  0  0  0  0  0  0  0  0  0
    4.8988   -4.2044   27.5508 C   0  0  0  0  0  0  0  0  0  0  0  0
    5.5956   -4.8707   26.5158 C   0  0  0  0  0  0  0  0  0  0  0  0
    6.8045   -4.7810   23.1577 C   0  0  0  0  0  0  0  0  0  0  0  0
    6.3356   -3.8577   23.7576 O   0  0  0  0  0  0  0  0  0  0  0  0
    7.6169   -4.1137   21.3562 C   0  0  0  0  0  0  0  0  0  0  0  0
    8.7170   -3.0076   20.2534 O   0  0  0  0  0  0  0  0  0  0  0  0
    8.0584   -1.2720   19.5445 C   0  0  0  0  0  0  0  0  0  0  0  0
    7.9406   -0.2785   17.9776 C   0  0  0  0  0  0  0  0  0  0  0  0
    7.1090    0.8120   18.0131 C   0  0  0  0  0  0  0  0  0  0  0  0
    6.6266    0.9683   19.6120 S   0  0  0  0  0  0  0  0  0  0  0  0
    7.2475   -0.4952   20.2117 N   0  0  0  0  0  0  0  0  0  0  0  0
    7.5718   -6.8293   25.7114 H   0  0  0  0  0  0  0  0  0  0  0  0
    8.5473   -6.0038   24.8572 H   0  0  0  0  0  0  0  0  0  0  0  0
    8.1495   -7.6956   24.3515 H   0  0  0  0  0  0  0  0  0  0  0  0
    6.0870   -7.9124   25.1827 H   0  0  0  0  0  0  0  0  0  0  0  0
    4.9142   -7.1564   24.2683 H   0  0  0  0  0  0  0  0  0  0  0  0
    3.5995   -7.5795   26.2221 H   0  0  0  0  0  0  0  0  0  0  0  0
    2.4349   -6.4550   28.0793 H   0  0  0  0  0  0  0  0  0  0  0  0
    4.6667   -3.3592   30.5421 H   0  0  0  0  0  0  0  0  0  0  0  0
    2.8254   -2.3264   32.1061 H   0  0  0  0  0  0  0  0  0  0  0  0
    0.9298   -4.2725   28.4898 H   0  0  0  0  0  0  0  0  0  0  0  0
    5.2795   -3.2410   27.8852 H   0  0  0  0  0  0  0  0  0  0  0  0
    6.4880   -4.3985   26.1074 H   0  0  0  0  0  0  0  0  0  0  0  0
    6.7962   -3.4485   21.1977 H   0  0  0  0  0  0  0  0  0  0  0  0
    7.3672   -4.8172   20.5740 H   0  0  0  0  0  0  0  0  0  0  0  0
    8.3952   -0.5848   17.0272 H   0  0  0  0  0  0  0  0  0  0  0  0
    6.8491    1.5065   17.2281 H   0  0  0  0  0  0  0  0  0  0  0  0
  1  2  1  0
  2  3  1  0
  3  4  1  0
  4  5  2  0
  5  6  1  0
  6  7  2  0
  7  8  1  0
  8  9  1  0
  9 10  2  0
 10 11  1  0
 11 12  1  0
  7 13  1  0
 13 14  2  0
  2 15  1  0
 15 16  2  0
 15 17  1  0
 17 18  1  0
 18 19  1  0
 19 20  1  0
 20 21  2  0
 21 22  1  0
 22 23  1  0
 14  4  1  0
 23 19  2  0
 12  8  2  0
  1 24  1  0
  1 25  1  0
  1 26  1  0
  3 27  1  0
  3 28  1  0
  5 29  1  0
  6 30  1  0
  9 31  1  0
 10 32  1  0
 12 33  1  0
 13 34  1  0
 14 35  1  0
 17 36  1  0
 17 37  1  0
 20 38  1  0
 21 39  1  0
M  END
>  <Energy>  (936) 
549.68574242140994

>  <compound_id>  (936) 
7088

>  <target_id>  (936) 
1

>  <reference_id>  (936) 
187

>  <inspiration_ids>  (936) 
[187, 66]

>  <energy_score>  (936) 
455.7097029799056

>  <distance_score>  (936) 
7.941555335361195

>  <path>  (936) 
/opt/xchem-fragalysis-2/maxwin/BulkDock/SCRATCH/511013/C7088-P187/C7088-P187.minimised.mol

>  <scratch_subdir>  (936) 
/opt/xchem-fragalysis-2/maxwin/BulkDock/SCRATCH/511013/C7088-P187

>  <fragmenstein_runtime>  (936) 
10.445200681686401

>  <fragmenstein_outcome>  (936) 
too moved

>  <fragmenstein_mode>  (936) 
expansion

>  <fragmenstein_error>  (936) 


$$$$
C7088-P66
     RDKit          3D

 39 41  0  0  0  0  0  0  0  0999 V2000
    6.8612   -1.7415   25.3770 C   0  0  0  0  0  0  0  0  0  0  0  0
    5.9176   -2.3848   23.9566 N   0  0  0  0  0  0  0  0  0  0  0  0
    4.6986   -2.3266   25.0645 C   0  0  0  0  0  0  0  0  0  0  0  0
    4.1033   -1.5598   26.3064 C   0  0  0  0  0  0  0  0  0  0  0  0
    2.9719   -2.1663   26.9017 C   0  0  0  0  0  0  0  0  0  0  0  0
    2.3081   -1.6783   28.0287 C   0  0  0  0  0  0  0  0  0  0  0  0
    2.7434   -0.5130   28.6350 C   0  0  0  0  0  0  0  0  0  0  0  0
    2.0634   -0.0036   29.8290 C   0  0  0  0  0  0  0  0  0  0  0  0
    1.8288    1.3656   30.1787 C   0  0  0  0  0  0  0  0  0  0  0  0
    1.1516    1.5081   31.3697 C   0  0  0  0  0  0  0  0  0  0  0  0
    0.7902   -0.0002   32.0831 S   0  0  0  0  0  0  0  0  0  0  0  0
    1.5387   -0.8459   30.7963 C   0  0  0  0  0  0  0  0  0  0  0  0
    3.8124    0.1651   28.0275 C   0  0  0  0  0  0  0  0  0  0  0  0
    4.4639   -0.3357   26.8676 C   0  0  0  0  0  0  0  0  0  0  0  0
    6.7947   -3.8164   23.1936 C   0  0  0  0  0  0  0  0  0  0  0  0
    6.6198   -4.9849   23.5301 O   0  0  0  0  0  0  0  0  0  0  0  0
    7.9444   -3.7663   21.5952 C   0  0  0  0  0  0  0  0  0  0  0  0
    8.6508   -4.4977   20.0438 O   0  0  0  0  0  0  0  0  0  0  0  0
    9.9182   -5.6400   19.4641 C   0  0  0  0  0  0  0  0  0  0  0  0
   10.9017   -5.1852   17.6940 C   0  0  0  0  0  0  0  0  0  0  0  0
   12.3663   -4.7735   18.0565 C   0  0  0  0  0  0  0  0  0  0  0  0
   12.7011   -5.0182   19.8652 S   0  0  0  0  0  0  0  0  0  0  0  0
   11.1159   -5.6580   20.4269 N   0  0  0  0  0  0  0  0  0  0  0  0
    6.3607   -1.6477   26.3312 H   0  0  0  0  0  0  0  0  0  0  0  0
    7.4833   -0.8429   25.2478 H   0  0  0  0  0  0  0  0  0  0  0  0
    7.6029   -2.5311   25.5755 H   0  0  0  0  0  0  0  0  0  0  0  0
    4.1163   -1.6958   24.3696 H   0  0  0  0  0  0  0  0  0  0  0  0
    4.0891   -3.2280   24.9031 H   0  0  0  0  0  0  0  0  0  0  0  0
    2.5338   -3.0351   26.4342 H   0  0  0  0  0  0  0  0  0  0  0  0
    1.4333   -2.2151   28.3849 H   0  0  0  0  0  0  0  0  0  0  0  0
    2.1343    2.2120   29.5759 H   0  0  0  0  0  0  0  0  0  0  0  0
    0.8491    2.4262   31.8538 H   0  0  0  0  0  0  0  0  0  0  0  0
    1.5637   -1.9266   30.8277 H   0  0  0  0  0  0  0  0  0  0  0  0
    4.1667    1.1051   28.4446 H   0  0  0  0  0  0  0  0  0  0  0  0
    5.2580    0.2611   26.4301 H   0  0  0  0  0  0  0  0  0  0  0  0
    7.2549   -3.1881   21.0440 H   0  0  0  0  0  0  0  0  0  0  0  0
    7.7851   -4.8450   21.7244 H   0  0  0  0  0  0  0  0  0  0  0  0
   10.6062   -4.7130   16.7668 H   0  0  0  0  0  0  0  0  0  0  0  0
   13.1147   -4.3442   17.4082 H   0  0  0  0  0  0  0  0  0  0  0  0
  1  2  1  0
  2  3  1  0
  3  4  1  0
  4  5  2  0
  5  6  1  0
  6  7  2  0
  7  8  1  0
  8  9  1  0
  9 10  2  0
 10 11  1  0
 11 12  1  0
  7 13  1  0
 13 14  2  0
  2 15  1  0
 15 16  2  0
 15 17  1  0
 17 18  1  0
 18 19  1  0
 19 20  1  0
 20 21  2  0
 21 22  1  0
 22 23  1  0
 14  4  1  0
 23 19  2  0
 12  8  2  0
  1 24  1  0
  1 25  1  0
  1 26  1  0
  3 27  1  0
  3 28  1  0
  5 29  1  0
  6 30  1  0
  9 31  1  0
 10 32  1  0
 12 33  1  0
 13 34  1  0
 14 35  1  0
 17 36  1  0
 17 37  1  0
 20 38  1  0
 21 39  1  0
M  END
>  <Energy>  (937) 
670.36537710004461

>  <compound_id>  (937) 
7088

>  <target_id>  (937) 
1

>  <reference_id>  (937) 
66

>  <inspiration_ids>  (937) 
[187, 66]

>  <energy_score>  (937) 
576.3893376585403

>  <distance_score>  (937) 
7.630097444984966

>  <path>  (937) 
/opt/xchem-fragalysis-2/maxwin/BulkDock/SCRATCH/511013/C7088-P66/C7088-P66.minimised.mol

>  <scratch_subdir>  (937) 
/opt/xchem-fragalysis-2/maxwin/BulkDock/SCRATCH/511013/C7088-P66

>  <fragmenstein_runtime>  (937) 
9.903550863265991

>  <fragmenstein_outcome>  (937) 
too moved

>  <fragmenstein_mode>  (937) 
expansion

>  <fragmenstein_error>  (937) 


$$$$
C7095-P187
     RDKit          3D

 40 42  0  0  0  0  0  0  0  0999 V2000
    6.7548   -1.3536   28.4722 O   0  0  0  0  0  0  0  0  0  0  0  0
    6.8039   -2.4599   28.0649 C   0  0  0  0  0  0  0  0  0  0  0  0
    5.9483   -3.7492   28.4705 N   0  0  0  0  0  0  0  0  0  0  0  0
    4.8678   -3.9430   29.6000 C   0  0  0  0  0  0  0  0  0  0  0  0
    3.1797   -4.0787   29.4937 C   0  0  0  0  0  0  0  0  0  0  0  0
    2.5508   -2.7376   29.6382 N   0  0  0  0  0  0  0  0  0  0  0  0
    1.1092   -2.6473   29.3468 C   0  0  0  0  0  0  0  0  0  0  0  0
    0.2208   -2.5265   30.5601 C   0  0  0  0  0  0  0  0  0  0  0  0
    0.5787   -2.0357   31.8617 C   0  0  0  0  0  0  0  0  0  0  0  0
   -0.4756   -2.0358   32.7471 C   0  0  0  0  0  0  0  0  0  0  0  0
   -1.9208   -2.5716   32.0157 S   0  0  0  0  0  0  0  0  0  0  0  0
   -1.1334   -2.8219   30.5244 C   0  0  0  0  0  0  0  0  0  0  0  0
    2.4489   -5.0003   30.5421 C   0  0  0  0  0  0  0  0  0  0  0  0
    1.3895   -5.8390   30.1297 C   0  0  0  0  0  0  0  0  0  0  0  0
    0.5433   -6.5124   31.0342 C   0  0  0  0  0  0  0  0  0  0  0  0
    0.7390   -6.3661   32.4009 C   0  0  0  0  0  0  0  0  0  0  0  0
    1.7770   -5.5475   32.8455 C   0  0  0  0  0  0  0  0  0  0  0  0
    2.6150   -4.8682   31.9311 C   0  0  0  0  0  0  0  0  0  0  0  0
    8.0378   -2.6742   26.9959 C   0  0  0  0  0  0  0  0  0  0  0  0
    8.8687   -3.8527   26.7554 C   0  0  0  0  0  0  0  0  0  0  0  0
   10.0756   -3.5806   26.1011 C   0  0  0  0  0  0  0  0  0  0  0  0
   10.1422   -1.9152   25.8086 S   0  0  0  0  0  0  0  0  0  0  0  0
    8.5808   -1.6073   26.3323 N   0  0  0  0  0  0  0  0  0  0  0  0
    6.1920   -4.5236   27.8645 H   0  0  0  0  0  0  0  0  0  0  0  0
    5.0743   -3.1350   30.3127 H   0  0  0  0  0  0  0  0  0  0  0  0
    5.2024   -4.8719   30.0750 H   0  0  0  0  0  0  0  0  0  0  0  0
    2.9943   -4.4734   28.4865 H   0  0  0  0  0  0  0  0  0  0  0  0
    3.0414   -2.0877   29.0227 H   0  0  0  0  0  0  0  0  0  0  0  0
    0.7777   -3.4572   28.6870 H   0  0  0  0  0  0  0  0  0  0  0  0
    0.9572   -1.7265   28.7668 H   0  0  0  0  0  0  0  0  0  0  0  0
    1.5779   -1.7163   32.1310 H   0  0  0  0  0  0  0  0  0  0  0  0
   -0.4701   -1.7378   33.7859 H   0  0  0  0  0  0  0  0  0  0  0  0
   -1.6958   -3.1538   29.6622 H   0  0  0  0  0  0  0  0  0  0  0  0
    1.1926   -5.9221   29.0714 H   0  0  0  0  0  0  0  0  0  0  0  0
   -0.2711   -7.1280   30.6643 H   0  0  0  0  0  0  0  0  0  0  0  0
    0.0804   -6.8572   33.1125 H   0  0  0  0  0  0  0  0  0  0  0  0
    1.9166   -5.3906   33.9130 H   0  0  0  0  0  0  0  0  0  0  0  0
    3.3599   -4.1765   32.3204 H   0  0  0  0  0  0  0  0  0  0  0  0
    8.6330   -4.8353   27.1382 H   0  0  0  0  0  0  0  0  0  0  0  0
   10.8759   -4.2589   25.8465 H   0  0  0  0  0  0  0  0  0  0  0  0
  1  2  2  0
  2  3  1  0
  3  4  1  0
  4  5  1  0
  5  6  1  0
  6  7  1  0
  7  8  1  0
  8  9  1  0
  9 10  2  0
 10 11  1  0
 11 12  1  0
  5 13  1  0
 13 14  2  0
 14 15  1  0
 15 16  2  0
 16 17  1  0
 17 18  2  0
  2 19  1  0
 19 20  1  0
 20 21  2  0
 21 22  1  0
 22 23  1  0
 12  8  2  0
 18 13  1  0
 23 19  2  0
  3 24  1  0
  4 25  1  0
  4 26  1  0
  5 27  1  0
  6 28  1  0
  7 29  1  0
  7 30  1  0
  9 31  1  0
 10 32  1  0
 12 33  1  0
 14 34  1  0
 15 35  1  0
 16 36  1  0
 17 37  1  0
 18 38  1  0
 20 39  1  0
 21 40  1  0
M  END
>  <Energy>  (938) 
129.96427364424602

>  <compound_id>  (938) 
7095

>  <target_id>  (938) 
1

>  <reference_id>  (938) 
187

>  <inspiration_ids>  (938) 
[187, 66]

>  <energy_score>  (938) 
35.505988879262986

>  <distance_score>  (938) 
6.96329421551729

>  <path>  (938) 
/opt/xchem-fragalysis-2/maxwin/BulkDock/SCRATCH/511013/C7095-P187/C7095-P187.minimised.mol

>  <scratch_subdir>  (938) 
/opt/xchem-fragalysis-2/maxwin/BulkDock/SCRATCH/511013/C7095-P187

>  <fragmenstein_runtime>  (938) 
8.754271507263184

>  <fragmenstein_outcome>  (938) 
too moved

>  <fragmenstein_mode>  (938) 
expansion

>  <fragmenstein_error>  (938) 


$$$$
C7095-P66
     RDKit          3D

 40 42  0  0  0  0  0  0  0  0999 V2000
    7.7833   -4.5456   19.8650 O   0  0  0  0  0  0  0  0  0  0  0  0
    8.3256   -4.7098   20.8927 C   0  0  0  0  0  0  0  0  0  0  0  0
    7.7674   -4.3047   22.6108 N   0  0  0  0  0  0  0  0  0  0  0  0
    6.6055   -3.5817   23.1073 C   0  0  0  0  0  0  0  0  0  0  0  0
    5.8533   -2.2605   24.4640 C   0  0  0  0  0  0  0  0  0  0  0  0
    4.4093   -1.5501   24.5174 N   0  0  0  0  0  0  0  0  0  0  0  0
    4.0571   -0.4607   25.4737 C   0  0  0  0  0  0  0  0  0  0  0  0
    2.9757   -0.7070   26.5270 C   0  0  0  0  0  0  0  0  0  0  0  0
    2.4362   -1.9511   26.9736 C   0  0  0  0  0  0  0  0  0  0  0  0
    1.5009   -1.8357   27.9759 C   0  0  0  0  0  0  0  0  0  0  0  0
    1.2485   -0.2076   28.4102 S   0  0  0  0  0  0  0  0  0  0  0  0
    2.3897    0.3215   27.2544 C   0  0  0  0  0  0  0  0  0  0  0  0
    6.6798   -1.7754   25.9831 C   0  0  0  0  0  0  0  0  0  0  0  0
    5.9440   -1.7496   27.2323 C   0  0  0  0  0  0  0  0  0  0  0  0
    6.4947   -1.5676   28.5016 C   0  0  0  0  0  0  0  0  0  0  0  0
    7.8538   -1.3907   28.5982 C   0  0  0  0  0  0  0  0  0  0  0  0
    8.6165   -1.3873   27.4296 C   0  0  0  0  0  0  0  0  0  0  0  0
    8.0470   -1.5688   26.1465 C   0  0  0  0  0  0  0  0  0  0  0  0
   10.2603   -5.3736   20.5606 C   0  0  0  0  0  0  0  0  0  0  0  0
   11.5957   -6.3260   20.7162 C   0  0  0  0  0  0  0  0  0  0  0  0
   12.6720   -6.1936   21.6110 C   0  0  0  0  0  0  0  0  0  0  0  0
   12.7925   -4.5287   21.5712 S   0  0  0  0  0  0  0  0  0  0  0  0
   11.2636   -4.2664   20.9452 N   0  0  0  0  0  0  0  0  0  0  0  0
    8.4034   -4.6458   23.2875 H   0  0  0  0  0  0  0  0  0  0  0  0
    6.1191   -3.0936   22.2359 H   0  0  0  0  0  0  0  0  0  0  0  0
    6.4337   -4.4358   23.7422 H   0  0  0  0  0  0  0  0  0  0  0  0
    5.0679   -2.9717   24.6541 H   0  0  0  0  0  0  0  0  0  0  0  0
    4.1308   -1.2364   23.5869 H   0  0  0  0  0  0  0  0  0  0  0  0
    4.9140    0.0268   25.9433 H   0  0  0  0  0  0  0  0  0  0  0  0
    3.6282    0.3572   24.8974 H   0  0  0  0  0  0  0  0  0  0  0  0
    2.7233   -2.8878   26.5306 H   0  0  0  0  0  0  0  0  0  0  0  0
    0.9450   -2.6287   28.4541 H   0  0  0  0  0  0  0  0  0  0  0  0
    2.5917    1.3786   27.1560 H   0  0  0  0  0  0  0  0  0  0  0  0
    4.9019   -2.0309   27.2293 H   0  0  0  0  0  0  0  0  0  0  0  0
    5.8622   -1.5991   29.3818 H   0  0  0  0  0  0  0  0  0  0  0  0
    8.3288   -1.2545   29.5639 H   0  0  0  0  0  0  0  0  0  0  0  0
    9.6936   -1.2463   27.5023 H   0  0  0  0  0  0  0  0  0  0  0  0
    8.7460   -1.5609   25.3270 H   0  0  0  0  0  0  0  0  0  0  0  0
   12.1188   -5.9837   19.8092 H   0  0  0  0  0  0  0  0  0  0  0  0
   13.4571   -6.8825   21.8853 H   0  0  0  0  0  0  0  0  0  0  0  0
  1  2  2  0
  2  3  1  0
  3  4  1  0
  4  5  1  0
  5  6  1  0
  6  7  1  0
  7  8  1  0
  8  9  1  0
  9 10  2  0
 10 11  1  0
 11 12  1  0
  5 13  1  0
 13 14  2  0
 14 15  1  0
 15 16  2  0
 16 17  1  0
 17 18  2  0
  2 19  1  0
 19 20  1  0
 20 21  2  0
 21 22  1  0
 22 23  1  0
 12  8  2  0
 18 13  1  0
 23 19  2  0
  3 24  1  0
  4 25  1  0
  4 26  1  0
  5 27  1  0
  6 28  1  0
  7 29  1  0
  7 30  1  0
  9 31  1  0
 10 32  1  0
 12 33  1  0
 14 34  1  0
 15 35  1  0
 16 36  1  0
 17 37  1  0
 18 38  1  0
 20 39  1  0
 21 40  1  0
M  END
>  <Energy>  (939) 
590.10981892517191

>  <compound_id>  (939) 
7095

>  <target_id>  (939) 
1

>  <reference_id>  (939) 
66

>  <inspiration_ids>  (939) 
[187, 66]

>  <energy_score>  (939) 
481.31134036920025

>  <distance_score>  (939) 
8.567184615796114

>  <path>  (939) 
/opt/xchem-fragalysis-2/maxwin/BulkDock/SCRATCH/511013/C7095-P66/C7095-P66.minimised.mol

>  <scratch_subdir>  (939) 
/opt/xchem-fragalysis-2/maxwin/BulkDock/SCRATCH/511013/C7095-P66

>  <fragmenstein_runtime>  (939) 
8.69170331954956

>  <fragmenstein_outcome>  (939) 
too moved

>  <fragmenstein_mode>  (939) 
expansion

>  <fragmenstein_error>  (939) 


$$$$
C35733-P40
     RDKit          3D

 41 44  0  0  0  0  0  0  0  0999 V2000
   -0.4985   -6.7513   14.1244 O   0  0  0  0  0  0  0  0  0  0  0  0
   -0.7200   -7.6004   13.3074 C   0  0  0  0  0  0  0  0  0  0  0  0
   -0.3911   -9.2346   13.8441 C   0  0  0  0  0  0  0  0  0  0  0  0
    0.4528   -9.4718   15.2487 C   0  0  0  0  0  0  0  0  0  0  0  0
    1.8405   -9.5585   15.2987 C   0  0  0  0  0  0  0  0  0  0  0  0
    2.2725   -9.6012   16.5956 N   0  0  0  0  0  0  0  0  0  0  0  0
    1.2289   -9.9049   17.4253 C   0  0  0  0  0  0  0  0  0  0  0  0
    1.2754  -10.2910   18.7738 C   0  0  0  0  0  0  0  0  0  0  0  0
    0.0943  -10.7046   19.3684 C   0  0  0  0  0  0  0  0  0  0  0  0
   -1.0978  -10.6520   18.6544 C   0  0  0  0  0  0  0  0  0  0  0  0
   -2.5311  -11.2645   19.4028 Cl  0  0  0  0  0  0  0  0  0  0  0  0
   -1.1383  -10.1966   17.3201 C   0  0  0  0  0  0  0  0  0  0  0  0
    0.0621   -9.8426   16.6429 C   0  0  0  0  0  0  0  0  0  0  0  0
   -1.2967   -7.5045   12.0006 N   0  0  0  0  0  0  0  0  0  0  0  0
   -1.8891   -6.3571   11.2920 C   0  0  0  0  0  0  0  0  0  0  0  0
   -3.5599   -6.2121   10.8212 C   0  0  0  0  0  0  0  0  0  0  0  0
   -4.5054   -7.0622   11.2479 N   0  0  0  0  0  0  0  0  0  0  0  0
   -5.7149   -7.1017   10.5475 N   0  0  0  0  0  0  0  0  0  0  0  0
   -5.8563   -6.0057    9.7865 C   0  0  0  0  0  0  0  0  0  0  0  0
   -4.1154   -5.5084    9.7120 N   0  0  0  0  0  0  0  0  0  0  0  0
   -3.5758   -4.5238    8.4028 C   0  0  0  0  0  0  0  0  0  0  0  0
   -4.8500   -3.6242    7.3992 C   0  0  0  0  0  0  0  0  0  0  0  0
   -6.3018   -4.1097    7.3783 N   0  0  0  0  0  0  0  0  0  0  0  0
   -6.9609   -5.0464    8.5730 C   0  0  0  0  0  0  0  0  0  0  0  0
   -1.3223   -9.7992   13.9366 H   0  0  0  0  0  0  0  0  0  0  0  0
    0.1986   -9.7011   13.0436 H   0  0  0  0  0  0  0  0  0  0  0  0
    2.5719   -9.5131   14.5053 H   0  0  0  0  0  0  0  0  0  0  0  0
    3.2421   -9.5981   16.8767 H   0  0  0  0  0  0  0  0  0  0  0  0
    2.2166  -10.3763   19.3054 H   0  0  0  0  0  0  0  0  0  0  0  0
    0.1310  -11.1114   20.3758 H   0  0  0  0  0  0  0  0  0  0  0  0
   -2.0760  -10.1863   16.7729 H   0  0  0  0  0  0  0  0  0  0  0  0
   -1.4090   -8.4293   11.6259 H   0  0  0  0  0  0  0  0  0  0  0  0
   -1.7592   -5.5984   12.0697 H   0  0  0  0  0  0  0  0  0  0  0  0
   -1.1988   -6.2197   10.4952 H   0  0  0  0  0  0  0  0  0  0  0  0
   -3.0101   -3.7165    8.8174 H   0  0  0  0  0  0  0  0  0  0  0  0
   -3.0690   -5.1700    7.7082 H   0  0  0  0  0  0  0  0  0  0  0  0
   -4.8251   -2.5571    7.6759 H   0  0  0  0  0  0  0  0  0  0  0  0
   -4.4543   -3.6014    6.3778 H   0  0  0  0  0  0  0  0  0  0  0  0
   -6.9569   -3.3553    7.1726 H   0  0  0  0  0  0  0  0  0  0  0  0
   -7.5990   -5.6117    7.8844 H   0  0  0  0  0  0  0  0  0  0  0  0
   -7.7361   -4.5264    9.1301 H   0  0  0  0  0  0  0  0  0  0  0  0
  1  2  2  0
  2  3  1  0
  3  4  1  0
  4  5  2  0
  5  6  1  0
  6  7  1  0
  7  8  2  0
  8  9  1  0
  9 10  2  0
 10 11  1  0
 10 12  1  0
 12 13  2  0
  2 14  1  0
 14 15  1  0
 15 16  1  0
 16 17  2  0
 17 18  1  0
 18 19  2  0
 19 20  1  0
 20 21  1  0
 21 22  1  0
 22 23  1  0
 23 24  1  0
 13  4  1  0
 20 16  1  0
 13  7  1  0
 24 19  1  0
  3 25  1  0
  3 26  1  0
  5 27  1  0
  6 28  1  0
  8 29  1  0
  9 30  1  0
 12 31  1  0
 14 32  1  0
 15 33  1  0
 15 34  1  0
 21 35  1  0
 21 36  1  0
 22 37  1  0
 22 38  1  0
 23 39  1  0
 24 40  1  0
 24 41  1  0
M  END
>  <Energy>  (940) 
274.04568803723191

>  <compound_id>  (940) 
35733

>  <target_id>  (940) 
1

>  <reference_id>  (940) 
40

>  <inspiration_ids>  (940) 
[40, 65]

>  <energy_score>  (940) 
220.65733200718807

>  <distance_score>  (940) 
10.07227193639933

>  <path>  (940) 
/opt/xchem-fragalysis-2/maxwin/BulkDock/SCRATCH/511013/C35733-P40/C35733-P40.minimised.mol

>  <scratch_subdir>  (940) 
/opt/xchem-fragalysis-2/maxwin/BulkDock/SCRATCH/511013/C35733-P40

>  <fragmenstein_runtime>  (940) 
17.652560234069824

>  <fragmenstein_outcome>  (940) 
too moved

>  <fragmenstein_mode>  (940) 
expansion

>  <fragmenstein_error>  (940) 


$$$$
C35733-P65
     RDKit          3D

 41 44  0  0  0  0  0  0  0  0999 V2000
   -2.3250  -10.2779   15.6507 O   0  0  0  0  0  0  0  0  0  0  0  0
   -3.4235  -10.5839   16.0106 C   0  0  0  0  0  0  0  0  0  0  0  0
   -3.4347  -10.7971   18.0110 C   0  0  0  0  0  0  0  0  0  0  0  0
   -3.1990   -9.9055   19.8272 C   0  0  0  0  0  0  0  0  0  0  0  0
   -3.6050  -10.8036   21.0160 C   0  0  0  0  0  0  0  0  0  0  0  0
   -3.8710   -9.9204   22.4232 N   0  0  0  0  0  0  0  0  0  0  0  0
   -4.0735   -8.4352   22.1800 C   0  0  0  0  0  0  0  0  0  0  0  0
   -4.0712   -7.0333   22.7503 C   0  0  0  0  0  0  0  0  0  0  0  0
   -2.7082   -6.0830   23.6733 C   0  0  0  0  0  0  0  0  0  0  0  0
   -1.6877   -6.8919   23.8305 C   0  0  0  0  0  0  0  0  0  0  0  0
    0.0957   -5.5822   23.7305 Cl  0  0  0  0  0  0  0  0  0  0  0  0
   -2.0602   -7.8433   22.3260 C   0  0  0  0  0  0  0  0  0  0  0  0
   -3.2784   -8.3169   21.0077 C   0  0  0  0  0  0  0  0  0  0  0  0
   -4.8293  -10.6353   14.8095 N   0  0  0  0  0  0  0  0  0  0  0  0
   -4.9405  -10.0997   12.8985 C   0  0  0  0  0  0  0  0  0  0  0  0
   -5.4478   -8.5293   11.6728 C   0  0  0  0  0  0  0  0  0  0  0  0
   -4.1522   -8.3011   11.2979 N   0  0  0  0  0  0  0  0  0  0  0  0
   -3.5972   -6.8295   11.3037 N   0  0  0  0  0  0  0  0  0  0  0  0
   -4.3278   -6.1376   10.5117 C   0  0  0  0  0  0  0  0  0  0  0  0
   -5.5039   -6.9912   10.6838 N   0  0  0  0  0  0  0  0  0  0  0  0
   -6.5691   -6.2138    9.6006 C   0  0  0  0  0  0  0  0  0  0  0  0
   -6.6807   -4.7795    8.2993 C   0  0  0  0  0  0  0  0  0  0  0  0
   -5.2297   -3.8902    8.0065 N   0  0  0  0  0  0  0  0  0  0  0  0
   -3.9466   -4.9352    9.0811 C   0  0  0  0  0  0  0  0  0  0  0  0
   -4.0896  -11.6606   18.2196 H   0  0  0  0  0  0  0  0  0  0  0  0
   -2.4219  -11.2447   18.0792 H   0  0  0  0  0  0  0  0  0  0  0  0
   -3.8376  -11.8527   21.1478 H   0  0  0  0  0  0  0  0  0  0  0  0
   -4.1320  -10.3953   23.2748 H   0  0  0  0  0  0  0  0  0  0  0  0
   -4.5749   -6.2891   22.0789 H   0  0  0  0  0  0  0  0  0  0  0  0
   -2.7763   -5.1002   24.1340 H   0  0  0  0  0  0  0  0  0  0  0  0
   -0.9895   -7.8921   21.8091 H   0  0  0  0  0  0  0  0  0  0  0  0
   -5.6502  -10.9940   15.2830 H   0  0  0  0  0  0  0  0  0  0  0  0
   -3.9431  -10.3782   12.5364 H   0  0  0  0  0  0  0  0  0  0  0  0
   -5.6964  -10.8181   12.5556 H   0  0  0  0  0  0  0  0  0  0  0  0
   -6.9663   -7.1726    9.2283 H   0  0  0  0  0  0  0  0  0  0  0  0
   -6.9439   -5.4092   10.2172 H   0  0  0  0  0  0  0  0  0  0  0  0
   -7.5587   -4.1588    8.5675 H   0  0  0  0  0  0  0  0  0  0  0  0
   -7.0741   -5.0362    7.2912 H   0  0  0  0  0  0  0  0  0  0  0  0
   -4.9209   -3.9244    7.0279 H   0  0  0  0  0  0  0  0  0  0  0  0
   -3.3758   -5.4818    8.3484 H   0  0  0  0  0  0  0  0  0  0  0  0
   -3.2533   -4.1844    9.3497 H   0  0  0  0  0  0  0  0  0  0  0  0
  1  2  2  0
  2  3  1  0
  3  4  1  0
  4  5  2  0
  5  6  1  0
  6  7  1  0
  7  8  2  0
  8  9  1  0
  9 10  2  0
 10 11  1  0
 10 12  1  0
 12 13  2  0
  2 14  1  0
 14 15  1  0
 15 16  1  0
 16 17  2  0
 17 18  1  0
 18 19  2  0
 19 20  1  0
 20 21  1  0
 21 22  1  0
 22 23  1  0
 23 24  1  0
 13  4  1  0
 20 16  1  0
 13  7  1  0
 24 19  1  0
  3 25  1  0
  3 26  1  0
  5 27  1  0
  6 28  1  0
  8 29  1  0
  9 30  1  0
 12 31  1  0
 14 32  1  0
 15 33  1  0
 15 34  1  0
 21 35  1  0
 21 36  1  0
 22 37  1  0
 22 38  1  0
 23 39  1  0
 24 40  1  0
 24 41  1  0
M  END
>  <Energy>  (941) 
1415.2177636648667

>  <compound_id>  (941) 
35733

>  <target_id>  (941) 
1

>  <reference_id>  (941) 
65

>  <inspiration_ids>  (941) 
[40, 65]

>  <energy_score>  (941) 
1361.8294076348225

>  <distance_score>  (941) 
8.044417981667946

>  <path>  (941) 
/opt/xchem-fragalysis-2/maxwin/BulkDock/SCRATCH/511013/C35733-P65/C35733-P65.minimised.mol

>  <scratch_subdir>  (941) 
/opt/xchem-fragalysis-2/maxwin/BulkDock/SCRATCH/511013/C35733-P65

>  <fragmenstein_runtime>  (941) 
15.0990629196167

>  <fragmenstein_outcome>  (941) 
too moved

>  <fragmenstein_mode>  (941) 
expansion

>  <fragmenstein_error>  (941) 


$$$$
C35733-P40
     RDKit          3D

 41 44  0  0  0  0  0  0  0  0999 V2000
   -0.4985   -6.7513   14.1244 O   0  0  0  0  0  0  0  0  0  0  0  0
   -0.7200   -7.6004   13.3074 C   0  0  0  0  0  0  0  0  0  0  0  0
   -0.3911   -9.2346   13.8441 C   0  0  0  0  0  0  0  0  0  0  0  0
    0.4528   -9.4718   15.2487 C   0  0  0  0  0  0  0  0  0  0  0  0
    1.8405   -9.5585   15.2987 C   0  0  0  0  0  0  0  0  0  0  0  0
    2.2725   -9.6012   16.5956 N   0  0  0  0  0  0  0  0  0  0  0  0
    1.2289   -9.9049   17.4253 C   0  0  0  0  0  0  0  0  0  0  0  0
    1.2754  -10.2910   18.7738 C   0  0  0  0  0  0  0  0  0  0  0  0
    0.0943  -10.7046   19.3684 C   0  0  0  0  0  0  0  0  0  0  0  0
   -1.0978  -10.6520   18.6544 C   0  0  0  0  0  0  0  0  0  0  0  0
   -2.5311  -11.2645   19.4028 Cl  0  0  0  0  0  0  0  0  0  0  0  0
   -1.1383  -10.1966   17.3201 C   0  0  0  0  0  0  0  0  0  0  0  0
    0.0621   -9.8426   16.6429 C   0  0  0  0  0  0  0  0  0  0  0  0
   -1.2967   -7.5045   12.0006 N   0  0  0  0  0  0  0  0  0  0  0  0
   -1.8891   -6.3571   11.2920 C   0  0  0  0  0  0  0  0  0  0  0  0
   -3.5599   -6.2121   10.8212 C   0  0  0  0  0  0  0  0  0  0  0  0
   -4.5054   -7.0622   11.2479 N   0  0  0  0  0  0  0  0  0  0  0  0
   -5.7149   -7.1017   10.5475 N   0  0  0  0  0  0  0  0  0  0  0  0
   -5.8563   -6.0057    9.7865 C   0  0  0  0  0  0  0  0  0  0  0  0
   -4.1154   -5.5084    9.7120 N   0  0  0  0  0  0  0  0  0  0  0  0
   -3.5758   -4.5238    8.4028 C   0  0  0  0  0  0  0  0  0  0  0  0
   -4.8500   -3.6242    7.3992 C   0  0  0  0  0  0  0  0  0  0  0  0
   -6.3018   -4.1097    7.3783 N   0  0  0  0  0  0  0  0  0  0  0  0
   -6.9609   -5.0464    8.5730 C   0  0  0  0  0  0  0  0  0  0  0  0
   -1.3223   -9.7992   13.9366 H   0  0  0  0  0  0  0  0  0  0  0  0
    0.1986   -9.7011   13.0436 H   0  0  0  0  0  0  0  0  0  0  0  0
    2.5719   -9.5131   14.5053 H   0  0  0  0  0  0  0  0  0  0  0  0
    3.2421   -9.5981   16.8767 H   0  0  0  0  0  0  0  0  0  0  0  0
    2.2166  -10.3763   19.3054 H   0  0  0  0  0  0  0  0  0  0  0  0
    0.1310  -11.1114   20.3758 H   0  0  0  0  0  0  0  0  0  0  0  0
   -2.0760  -10.1863   16.7729 H   0  0  0  0  0  0  0  0  0  0  0  0
   -1.4090   -8.4293   11.6259 H   0  0  0  0  0  0  0  0  0  0  0  0
   -1.7592   -5.5984   12.0697 H   0  0  0  0  0  0  0  0  0  0  0  0
   -1.1988   -6.2197   10.4952 H   0  0  0  0  0  0  0  0  0  0  0  0
   -3.0101   -3.7165    8.8174 H   0  0  0  0  0  0  0  0  0  0  0  0
   -3.0690   -5.1700    7.7082 H   0  0  0  0  0  0  0  0  0  0  0  0
   -4.8251   -2.5571    7.6759 H   0  0  0  0  0  0  0  0  0  0  0  0
   -4.4543   -3.6014    6.3778 H   0  0  0  0  0  0  0  0  0  0  0  0
   -6.9569   -3.3553    7.1726 H   0  0  0  0  0  0  0  0  0  0  0  0
   -7.5990   -5.6117    7.8844 H   0  0  0  0  0  0  0  0  0  0  0  0
   -7.7361   -4.5264    9.1301 H   0  0  0  0  0  0  0  0  0  0  0  0
  1  2  2  0
  2  3  1  0
  3  4  1  0
  4  5  2  0
  5  6  1  0
  6  7  1  0
  7  8  2  0
  8  9  1  0
  9 10  2  0
 10 11  1  0
 10 12  1  0
 12 13  2  0
  2 14  1  0
 14 15  1  0
 15 16  1  0
 16 17  2  0
 17 18  1  0
 18 19  2  0
 19 20  1  0
 20 21  1  0
 21 22  1  0
 22 23  1  0
 23 24  1  0
 13  4  1  0
 20 16  1  0
 13  7  1  0
 24 19  1  0
  3 25  1  0
  3 26  1  0
  5 27  1  0
  6 28  1  0
  8 29  1  0
  9 30  1  0
 12 31  1  0
 14 32  1  0
 15 33  1  0
 15 34  1  0
 21 35  1  0
 21 36  1  0
 22 37  1  0
 22 38  1  0
 23 39  1  0
 24 40  1  0
 24 41  1  0
M  END
>  <Energy>  (942) 
274.04568803723191

>  <compound_id>  (942) 
35733

>  <target_id>  (942) 
1

>  <reference_id>  (942) 
40

>  <inspiration_ids>  (942) 
[40, 65]

>  <energy_score>  (942) 
220.65733200718807

>  <distance_score>  (942) 
10.07227193639933

>  <path>  (942) 
/opt/xchem-fragalysis-2/maxwin/BulkDock/SCRATCH/511013/C35733-P40/C35733-P40.minimised.mol

>  <scratch_subdir>  (942) 
/opt/xchem-fragalysis-2/maxwin/BulkDock/SCRATCH/511013/C35733-P40

>  <fragmenstein_runtime>  (942) 
17.74771285057068

>  <fragmenstein_outcome>  (942) 
too moved

>  <fragmenstein_mode>  (942) 
expansion

>  <fragmenstein_error>  (942) 


$$$$
C35733-P65
     RDKit          3D

 41 44  0  0  0  0  0  0  0  0999 V2000
   -2.3250  -10.2779   15.6507 O   0  0  0  0  0  0  0  0  0  0  0  0
   -3.4235  -10.5839   16.0106 C   0  0  0  0  0  0  0  0  0  0  0  0
   -3.4347  -10.7971   18.0110 C   0  0  0  0  0  0  0  0  0  0  0  0
   -3.1990   -9.9055   19.8272 C   0  0  0  0  0  0  0  0  0  0  0  0
   -3.6050  -10.8036   21.0160 C   0  0  0  0  0  0  0  0  0  0  0  0
   -3.8710   -9.9204   22.4232 N   0  0  0  0  0  0  0  0  0  0  0  0
   -4.0735   -8.4352   22.1800 C   0  0  0  0  0  0  0  0  0  0  0  0
   -4.0712   -7.0333   22.7503 C   0  0  0  0  0  0  0  0  0  0  0  0
   -2.7082   -6.0830   23.6733 C   0  0  0  0  0  0  0  0  0  0  0  0
   -1.6877   -6.8919   23.8305 C   0  0  0  0  0  0  0  0  0  0  0  0
    0.0957   -5.5822   23.7305 Cl  0  0  0  0  0  0  0  0  0  0  0  0
   -2.0602   -7.8433   22.3260 C   0  0  0  0  0  0  0  0  0  0  0  0
   -3.2784   -8.3169   21.0077 C   0  0  0  0  0  0  0  0  0  0  0  0
   -4.8293  -10.6353   14.8095 N   0  0  0  0  0  0  0  0  0  0  0  0
   -4.9405  -10.0997   12.8985 C   0  0  0  0  0  0  0  0  0  0  0  0
   -5.4478   -8.5293   11.6728 C   0  0  0  0  0  0  0  0  0  0  0  0
   -4.1522   -8.3011   11.2979 N   0  0  0  0  0  0  0  0  0  0  0  0
   -3.5972   -6.8295   11.3037 N   0  0  0  0  0  0  0  0  0  0  0  0
   -4.3278   -6.1376   10.5117 C   0  0  0  0  0  0  0  0  0  0  0  0
   -5.5039   -6.9912   10.6838 N   0  0  0  0  0  0  0  0  0  0  0  0
   -6.5691   -6.2138    9.6006 C   0  0  0  0  0  0  0  0  0  0  0  0
   -6.6807   -4.7795    8.2993 C   0  0  0  0  0  0  0  0  0  0  0  0
   -5.2297   -3.8902    8.0065 N   0  0  0  0  0  0  0  0  0  0  0  0
   -3.9466   -4.9352    9.0811 C   0  0  0  0  0  0  0  0  0  0  0  0
   -4.0896  -11.6606   18.2196 H   0  0  0  0  0  0  0  0  0  0  0  0
   -2.4219  -11.2447   18.0792 H   0  0  0  0  0  0  0  0  0  0  0  0
   -3.8376  -11.8527   21.1478 H   0  0  0  0  0  0  0  0  0  0  0  0
   -4.1320  -10.3953   23.2748 H   0  0  0  0  0  0  0  0  0  0  0  0
   -4.5749   -6.2891   22.0789 H   0  0  0  0  0  0  0  0  0  0  0  0
   -2.7763   -5.1002   24.1340 H   0  0  0  0  0  0  0  0  0  0  0  0
   -0.9895   -7.8921   21.8091 H   0  0  0  0  0  0  0  0  0  0  0  0
   -5.6502  -10.9940   15.2830 H   0  0  0  0  0  0  0  0  0  0  0  0
   -3.9431  -10.3782   12.5364 H   0  0  0  0  0  0  0  0  0  0  0  0
   -5.6964  -10.8181   12.5556 H   0  0  0  0  0  0  0  0  0  0  0  0
   -6.9663   -7.1726    9.2283 H   0  0  0  0  0  0  0  0  0  0  0  0
   -6.9439   -5.4092   10.2172 H   0  0  0  0  0  0  0  0  0  0  0  0
   -7.5587   -4.1588    8.5675 H   0  0  0  0  0  0  0  0  0  0  0  0
   -7.0741   -5.0362    7.2912 H   0  0  0  0  0  0  0  0  0  0  0  0
   -4.9209   -3.9244    7.0279 H   0  0  0  0  0  0  0  0  0  0  0  0
   -3.3758   -5.4818    8.3484 H   0  0  0  0  0  0  0  0  0  0  0  0
   -3.2533   -4.1844    9.3497 H   0  0  0  0  0  0  0  0  0  0  0  0
  1  2  2  0
  2  3  1  0
  3  4  1  0
  4  5  2  0
  5  6  1  0
  6  7  1  0
  7  8  2  0
  8  9  1  0
  9 10  2  0
 10 11  1  0
 10 12  1  0
 12 13  2  0
  2 14  1  0
 14 15  1  0
 15 16  1  0
 16 17  2  0
 17 18  1  0
 18 19  2  0
 19 20  1  0
 20 21  1  0
 21 22  1  0
 22 23  1  0
 23 24  1  0
 13  4  1  0
 20 16  1  0
 13  7  1  0
 24 19  1  0
  3 25  1  0
  3 26  1  0
  5 27  1  0
  6 28  1  0
  8 29  1  0
  9 30  1  0
 12 31  1  0
 14 32  1  0
 15 33  1  0
 15 34  1  0
 21 35  1  0
 21 36  1  0
 22 37  1  0
 22 38  1  0
 23 39  1  0
 24 40  1  0
 24 41  1  0
M  END
>  <Energy>  (943) 
1415.2177636648667

>  <compound_id>  (943) 
35733

>  <target_id>  (943) 
1

>  <reference_id>  (943) 
65

>  <inspiration_ids>  (943) 
[40, 65]

>  <energy_score>  (943) 
1361.8294076348225

>  <distance_score>  (943) 
8.044417981667946

>  <path>  (943) 
/opt/xchem-fragalysis-2/maxwin/BulkDock/SCRATCH/511013/C35733-P65/C35733-P65.minimised.mol

>  <scratch_subdir>  (943) 
/opt/xchem-fragalysis-2/maxwin/BulkDock/SCRATCH/511013/C35733-P65

>  <fragmenstein_runtime>  (943) 
14.208729028701782

>  <fragmenstein_outcome>  (943) 
too moved

>  <fragmenstein_mode>  (943) 
expansion

>  <fragmenstein_error>  (943) 


$$$$
C35736-P40
     RDKit          3D

 41 44  0  0  0  0  0  0  0  0999 V2000
   -0.8708  -10.1796   14.3732 O   0  0  0  0  0  0  0  0  0  0  0  0
   -0.6316   -9.0547   14.0499 C   0  0  0  0  0  0  0  0  0  0  0  0
    0.0796   -7.8391   15.3841 C   0  0  0  0  0  0  0  0  0  0  0  0
    1.5497   -7.7559   16.5574 N   0  0  0  0  0  0  0  0  0  0  0  0
    0.9409   -8.6716   17.2667 C   0  0  0  0  0  0  0  0  0  0  0  0
    2.1425   -9.1266   17.8806 C   0  0  0  0  0  0  0  0  0  0  0  0
    1.4995   -8.2198   18.5782 C   0  0  0  0  0  0  0  0  0  0  0  0
    0.5688   -8.0407   19.8133 C   0  0  0  0  0  0  0  0  0  0  0  0
    0.8370   -7.4400   20.9429 C   0  0  0  0  0  0  0  0  0  0  0  0
    1.5388   -6.3326   20.5754 C   0  0  0  0  0  0  0  0  0  0  0  0
    2.3411   -6.3156   19.5054 C   0  0  0  0  0  0  0  0  0  0  0  0
    2.4682   -7.4878   18.1200 C   0  0  0  0  0  0  0  0  0  0  0  0
   -0.6927   -8.4207   12.7444 N   0  0  0  0  0  0  0  0  0  0  0  0
   -0.9635   -8.9695   11.4373 C   0  0  0  0  0  0  0  0  0  0  0  0
   -0.1809   -8.2250   10.4238 C   0  0  0  0  0  0  0  0  0  0  0  0
    0.2563   -6.9931   10.5382 N   0  0  0  0  0  0  0  0  0  0  0  0
    0.9114   -6.6315    9.3853 N   0  0  0  0  0  0  0  0  0  0  0  0
    0.8560   -7.6580    8.5773 C   0  0  0  0  0  0  0  0  0  0  0  0
    0.2493   -8.6988    9.2202 N   0  0  0  0  0  0  0  0  0  0  0  0
    0.3047  -10.0513    8.7250 C   0  0  0  0  0  0  0  0  0  0  0  0
    0.7016  -10.1080    7.2410 C   0  0  0  0  0  0  0  0  0  0  0  0
    1.7747   -9.1740    6.9001 N   0  0  0  0  0  0  0  0  0  0  0  0
    1.3890   -7.7950    7.2092 C   0  0  0  0  0  0  0  0  0  0  0  0
   -0.0698   -6.8724   14.8399 H   0  0  0  0  0  0  0  0  0  0  0  0
    0.8628   -8.0381   14.8358 H   0  0  0  0  0  0  0  0  0  0  0  0
   -0.1470   -8.8889   17.2360 H   0  0  0  0  0  0  0  0  0  0  0  0
    2.4603  -10.1225   18.2025 H   0  0  0  0  0  0  0  0  0  0  0  0
   -0.4546   -8.3886   19.6002 H   0  0  0  0  0  0  0  0  0  0  0  0
    0.2516   -7.4378   21.8422 H   0  0  0  0  0  0  0  0  0  0  0  0
    1.4749   -5.3579   21.1243 H   0  0  0  0  0  0  0  0  0  0  0  0
    2.9590   -5.4050   19.7262 H   0  0  0  0  0  0  0  0  0  0  0  0
   -0.5068   -7.4330   12.8484 H   0  0  0  0  0  0  0  0  0  0  0  0
   -0.6953  -10.0302   11.4593 H   0  0  0  0  0  0  0  0  0  0  0  0
   -2.0312   -8.8985   11.2264 H   0  0  0  0  0  0  0  0  0  0  0  0
   -0.6578  -10.5413    8.8911 H   0  0  0  0  0  0  0  0  0  0  0  0
    1.0594  -10.5678    9.3307 H   0  0  0  0  0  0  0  0  0  0  0  0
    1.0304  -11.1273    7.0081 H   0  0  0  0  0  0  0  0  0  0  0  0
   -0.1537   -9.9151    6.5949 H   0  0  0  0  0  0  0  0  0  0  0  0
    1.9994   -9.2439    5.9085 H   0  0  0  0  0  0  0  0  0  0  0  0
    2.2896   -7.1832    7.1130 H   0  0  0  0  0  0  0  0  0  0  0  0
    0.6453   -7.4484    6.4841 H   0  0  0  0  0  0  0  0  0  0  0  0
  1  2  2  0
  2  3  1  0
  3  4  1  0
  4  5  1  0
  5  6  2  0
  6  7  1  0
  7  8  2  0
  8  9  1  0
  9 10  2  0
 10 11  1  0
 11 12  2  0
  2 13  1  0
 13 14  1  0
 14 15  1  0
 15 16  2  0
 16 17  1  0
 17 18  2  0
 18 19  1  0
 19 20  1  0
 20 21  1  0
 21 22  1  0
 22 23  1  0
 12  4  1  0
 19 15  1  0
 12  7  1  0
 23 18  1  0
  3 24  1  0
  3 25  1  0
  5 26  1  0
  6 27  1  0
  8 28  1  0
  9 29  1  0
 10 30  1  0
 11 31  1  0
 13 32  1  0
 14 33  1  0
 14 34  1  0
 20 35  1  0
 20 36  1  0
 21 37  1  0
 21 38  1  0
 22 39  1  0
 23 40  1  0
 23 41  1  0
M  END
>  <Energy>  (944) 
628.98612818556057

>  <compound_id>  (944) 
35736

>  <target_id>  (944) 
1

>  <reference_id>  (944) 
40

>  <inspiration_ids>  (944) 
[40, 65]

>  <energy_score>  (944) 
556.2127885319439

>  <distance_score>  (944) 
10.541431429871231

>  <path>  (944) 
/opt/xchem-fragalysis-2/maxwin/BulkDock/SCRATCH/511013/C35736-P40/C35736-P40.minimised.mol

>  <scratch_subdir>  (944) 
/opt/xchem-fragalysis-2/maxwin/BulkDock/SCRATCH/511013/C35736-P40

>  <fragmenstein_runtime>  (944) 
23.710644483566284

>  <fragmenstein_outcome>  (944) 
too moved

>  <fragmenstein_mode>  (944) 
expansion

>  <fragmenstein_error>  (944) 


$$$$
C35736-P65
     RDKit          3D

 41 44  0  0  0  0  0  0  0  0999 V2000
   -8.4947    0.0646   19.9688 O   0  0  0  0  0  0  0  0  0  0  0  0
   -9.0466   -0.9965   19.8788 C   0  0  0  0  0  0  0  0  0  0  0  0
   -8.5680   -2.1115   21.0284 C   0  0  0  0  0  0  0  0  0  0  0  0
   -7.1656   -3.2412   21.2137 N   0  0  0  0  0  0  0  0  0  0  0  0
   -6.3696   -4.2211   20.5579 C   0  0  0  0  0  0  0  0  0  0  0  0
   -5.0721   -4.4447   20.5653 C   0  0  0  0  0  0  0  0  0  0  0  0
   -5.0668   -4.1465   21.8846 C   0  0  0  0  0  0  0  0  0  0  0  0
   -3.9447   -3.7412   22.7078 C   0  0  0  0  0  0  0  0  0  0  0  0
   -4.1553   -3.3318   24.1717 C   0  0  0  0  0  0  0  0  0  0  0  0
   -5.9393   -3.1819   24.7827 C   0  0  0  0  0  0  0  0  0  0  0  0
   -7.0934   -3.4798   23.9700 C   0  0  0  0  0  0  0  0  0  0  0  0
   -6.6267   -3.7075   22.4095 C   0  0  0  0  0  0  0  0  0  0  0  0
  -10.0892   -1.4462   18.9635 N   0  0  0  0  0  0  0  0  0  0  0  0
  -10.7177   -0.7749   17.8093 C   0  0  0  0  0  0  0  0  0  0  0  0
  -10.6154   -1.4532   16.4569 C   0  0  0  0  0  0  0  0  0  0  0  0
  -10.3126   -2.7115   16.1938 N   0  0  0  0  0  0  0  0  0  0  0  0
  -10.4813   -2.9484   14.8437 N   0  0  0  0  0  0  0  0  0  0  0  0
  -10.9387   -1.8461   14.2976 C   0  0  0  0  0  0  0  0  0  0  0  0
  -10.9584   -0.8635   15.2518 N   0  0  0  0  0  0  0  0  0  0  0  0
  -11.4720    0.4632   14.9894 C   0  0  0  0  0  0  0  0  0  0  0  0
  -11.8353    0.7104   13.5078 C   0  0  0  0  0  0  0  0  0  0  0  0
  -12.3592   -0.4740   12.8247 N   0  0  0  0  0  0  0  0  0  0  0  0
  -11.4426   -1.6249   12.9137 C   0  0  0  0  0  0  0  0  0  0  0  0
   -9.4886   -2.7169   20.9737 H   0  0  0  0  0  0  0  0  0  0  0  0
   -8.5633   -1.6462   22.0179 H   0  0  0  0  0  0  0  0  0  0  0  0
   -6.5468   -5.2420   20.9756 H   0  0  0  0  0  0  0  0  0  0  0  0
   -4.4161   -4.6497   19.7447 H   0  0  0  0  0  0  0  0  0  0  0  0
   -3.2441   -3.0082   22.2594 H   0  0  0  0  0  0  0  0  0  0  0  0
   -3.3258   -2.8913   24.7552 H   0  0  0  0  0  0  0  0  0  0  0  0
   -6.0980   -2.8086   25.8155 H   0  0  0  0  0  0  0  0  0  0  0  0
   -8.0969   -3.1519   24.2167 H   0  0  0  0  0  0  0  0  0  0  0  0
  -10.2623   -2.4313   19.1177 H   0  0  0  0  0  0  0  0  0  0  0  0
  -11.7776   -0.6700   18.0643 H   0  0  0  0  0  0  0  0  0  0  0  0
  -10.2802    0.2271   17.7467 H   0  0  0  0  0  0  0  0  0  0  0  0
  -10.7245    1.1873   15.3283 H   0  0  0  0  0  0  0  0  0  0  0  0
  -12.3704    0.5701   15.6089 H   0  0  0  0  0  0  0  0  0  0  0  0
  -10.9879    1.1214   12.9553 H   0  0  0  0  0  0  0  0  0  0  0  0
  -12.5987    1.4970   13.4734 H   0  0  0  0  0  0  0  0  0  0  0  0
  -12.5157   -0.2691   11.8374 H   0  0  0  0  0  0  0  0  0  0  0  0
  -10.6255   -1.5057   12.2015 H   0  0  0  0  0  0  0  0  0  0  0  0
  -11.9994   -2.5155   12.6128 H   0  0  0  0  0  0  0  0  0  0  0  0
  1  2  2  0
  2  3  1  0
  3  4  1  0
  4  5  1  0
  5  6  2  0
  6  7  1  0
  7  8  2  0
  8  9  1  0
  9 10  2  0
 10 11  1  0
 11 12  2  0
  2 13  1  0
 13 14  1  0
 14 15  1  0
 15 16  2  0
 16 17  1  0
 17 18  2  0
 18 19  1  0
 19 20  1  0
 20 21  1  0
 21 22  1  0
 22 23  1  0
 12  4  1  0
 19 15  1  0
 12  7  1  0
 23 18  1  0
  3 24  1  0
  3 25  1  0
  5 26  1  0
  6 27  1  0
  8 28  1  0
  9 29  1  0
 10 30  1  0
 11 31  1  0
 13 32  1  0
 14 33  1  0
 14 34  1  0
 20 35  1  0
 20 36  1  0
 21 37  1  0
 21 38  1  0
 22 39  1  0
 23 40  1  0
 23 41  1  0
M  END
>  <Energy>  (945) 
385.67152240124176

>  <compound_id>  (945) 
35736

>  <target_id>  (945) 
1

>  <reference_id>  (945) 
65

>  <inspiration_ids>  (945) 
[40, 65]

>  <energy_score>  (945) 
312.89818274763024

>  <distance_score>  (945) 
9.770043083488556

>  <path>  (945) 
/opt/xchem-fragalysis-2/maxwin/BulkDock/SCRATCH/511013/C35736-P65/C35736-P65.minimised.mol

>  <scratch_subdir>  (945) 
/opt/xchem-fragalysis-2/maxwin/BulkDock/SCRATCH/511013/C35736-P65

>  <fragmenstein_runtime>  (945) 
17.600984573364258

>  <fragmenstein_outcome>  (945) 
too moved

>  <fragmenstein_mode>  (945) 
expansion

>  <fragmenstein_error>  (945) 


$$$$
C15855-P40
     RDKit          3D

 48 52  0  0  0  0  0  0  0  0999 V2000
   -3.2020   -6.1967   23.4687 O   0  0  0  0  0  0  0  0  0  0  0  0
   -2.7342   -5.1536   23.1245 C   0  0  0  0  0  0  0  0  0  0  0  0
   -0.8922   -4.8362   24.3430 C   0  0  0  0  0  0  0  0  0  0  0  0
   -0.3866   -4.3871   26.3083 C   0  0  0  0  0  0  0  0  0  0  0  0
    0.6070   -4.4365   27.5243 C   0  0  0  0  0  0  0  0  0  0  0  0
    1.5580   -5.3780   27.3622 C   0  0  0  0  0  0  0  0  0  0  0  0
    1.7544   -5.9119   25.9606 C   0  0  0  0  0  0  0  0  0  0  0  0
    2.7783   -6.8521   25.5862 C   0  0  0  0  0  0  0  0  0  0  0  0
    3.5361   -5.7791   25.3240 C   0  0  0  0  0  0  0  0  0  0  0  0
    2.4867   -4.8240   25.2313 N   0  0  0  0  0  0  0  0  0  0  0  0
    0.9104   -5.4455   24.4764 C   0  0  0  0  0  0  0  0  0  0  0  0
   -4.1366   -4.2774   21.7490 N   0  0  0  0  0  0  0  0  0  0  0  0
   -4.4864   -4.3485   19.7952 C   0  0  0  0  0  0  0  0  0  0  0  0
   -5.1635   -4.3651   17.7633 C   0  0  0  0  0  0  0  0  0  0  0  0
   -4.8057   -3.6158   15.8765 C   0  0  0  0  0  0  0  0  0  0  0  0
   -5.8840   -2.3207   14.4103 C   0  0  0  0  0  0  0  0  0  0  0  0
   -7.3158   -2.6398   14.2278 N   0  0  0  0  0  0  0  0  0  0  0  0
   -8.3194   -2.0039   13.4216 N   0  0  0  0  0  0  0  0  0  0  0  0
   -7.8618   -0.9786   12.5402 C   0  0  0  0  0  0  0  0  0  0  0  0
   -6.2746   -0.7545   13.4041 N   0  0  0  0  0  0  0  0  0  0  0  0
   -5.9261   -0.1907   11.7552 C   0  0  0  0  0  0  0  0  0  0  0  0
   -6.5683   -0.2790   10.0503 C   0  0  0  0  0  0  0  0  0  0  0  0
   -7.7611    0.4336    9.9058 N   0  0  0  0  0  0  0  0  0  0  0  0
   -8.6333   -0.2183   10.8708 C   0  0  0  0  0  0  0  0  0  0  0  0
   -4.2660   -4.7072   17.6078 C   0  0  0  0  0  0  0  0  0  0  0  0
   -3.8329   -4.7327   19.7246 C   0  0  0  0  0  0  0  0  0  0  0  0
   -1.1946   -3.8856   26.9831 H   0  0  0  0  0  0  0  0  0  0  0  0
    0.3599   -3.9509   28.4618 H   0  0  0  0  0  0  0  0  0  0  0  0
    2.2307   -5.6939   28.1525 H   0  0  0  0  0  0  0  0  0  0  0  0
    3.2305   -7.6970   26.0903 H   0  0  0  0  0  0  0  0  0  0  0  0
    4.5891   -5.5240   25.3015 H   0  0  0  0  0  0  0  0  0  0  0  0
    2.7459   -3.8686   25.0415 H   0  0  0  0  0  0  0  0  0  0  0  0
   -5.3457   -3.6235   19.9866 H   0  0  0  0  0  0  0  0  0  0  0  0
   -5.5059   -5.0182   20.1600 H   0  0  0  0  0  0  0  0  0  0  0  0
   -6.0678   -3.9368   17.7350 H   0  0  0  0  0  0  0  0  0  0  0  0
   -5.7641   -5.5631   17.3609 H   0  0  0  0  0  0  0  0  0  0  0  0
   -4.9585   -4.4976   15.2294 H   0  0  0  0  0  0  0  0  0  0  0  0
   -6.2952    0.8041   11.9911 H   0  0  0  0  0  0  0  0  0  0  0  0
   -4.8449   -0.2488   11.6046 H   0  0  0  0  0  0  0  0  0  0  0  0
   -6.7089   -1.2349    9.5295 H   0  0  0  0  0  0  0  0  0  0  0  0
   -5.8218    0.0819    9.3254 H   0  0  0  0  0  0  0  0  0  0  0  0
   -7.6402    1.4135   10.1700 H   0  0  0  0  0  0  0  0  0  0  0  0
   -9.4233   -0.9083   10.4852 H   0  0  0  0  0  0  0  0  0  0  0  0
   -9.3244    0.6554   10.8604 H   0  0  0  0  0  0  0  0  0  0  0  0
   -4.2934   -5.8667   17.2263 H   0  0  0  0  0  0  0  0  0  0  0  0
   -3.4033   -5.2453   17.4274 H   0  0  0  0  0  0  0  0  0  0  0  0
   -3.5488   -3.3289   19.1280 H   0  0  0  0  0  0  0  0  0  0  0  0
   -3.0420   -5.4577   19.7049 H   0  0  0  0  0  0  0  0  0  0  0  0
  1  2  2  0
  2  3  1  0
  3  4  2  0
  4  5  1  0
  5  6  2  0
  6  7  1  0
  7  8  1  0
  8  9  2  0
  9 10  1  0
 10 11  1  0
  2 12  1  0
 12 13  1  0
 13 14  1  0
 14 15  1  0
 15 16  1  0
 16 17  2  0
 17 18  1  0
 18 19  2  0
 19 20  1  0
 20 21  1  0
 21 22  1  0
 22 23  1  0
 23 24  1  0
 15 25  1  0
 25 26  1  0
 11  3  1  0
 26 12  1  0
 11  7  2  0
 20 16  1  0
 24 19  1  0
  4 27  1  0
  5 28  1  0
  6 29  1  0
  8 30  1  0
  9 31  1  0
 10 32  1  0
 13 33  1  0
 13 34  1  0
 14 35  1  0
 14 36  1  0
 15 37  1  0
 21 38  1  0
 21 39  1  0
 22 40  1  0
 22 41  1  0
 23 42  1  0
 24 43  1  0
 24 44  1  0
 25 45  1  0
 25 46  1  0
 26 47  1  0
 26 48  1  0
M  END
>  <Energy>  (946) 
3359.9713164209206

>  <compound_id>  (946) 
15855

>  <target_id>  (946) 
1

>  <reference_id>  (946) 
40

>  <inspiration_ids>  (946) 
[40, 65]

>  <energy_score>  (946) 
3284.3924417022013

>  <distance_score>  (946) 
6.296390505363527

>  <path>  (946) 
/opt/xchem-fragalysis-2/maxwin/BulkDock/SCRATCH/511013/C15855-P40/C15855-P40.minimised.mol

>  <scratch_subdir>  (946) 
/opt/xchem-fragalysis-2/maxwin/BulkDock/SCRATCH/511013/C15855-P40

>  <fragmenstein_runtime>  (946) 
12.922236204147339

>  <fragmenstein_outcome>  (946) 
too moved

>  <fragmenstein_mode>  (946) 
expansion

>  <fragmenstein_error>  (946) 


$$$$
C15855-P65
     RDKit          3D

 48 52  0  0  0  0  0  0  0  0999 V2000
   -3.9788   -6.3276   17.8452 O   0  0  0  0  0  0  0  0  0  0  0  0
   -4.1756   -5.1132   17.8589 C   0  0  0  0  0  0  0  0  0  0  0  0
   -4.6232   -4.4360   19.6824 C   0  0  0  0  0  0  0  0  0  0  0  0
   -5.7813   -4.7039   20.4981 C   0  0  0  0  0  0  0  0  0  0  0  0
   -5.9632   -5.6159   21.6409 C   0  0  0  0  0  0  0  0  0  0  0  0
   -4.7617   -6.3685   22.0793 C   0  0  0  0  0  0  0  0  0  0  0  0
   -3.8046   -5.4599   22.0727 C   0  0  0  0  0  0  0  0  0  0  0  0
   -2.7662   -5.2916   23.7627 C   0  0  0  0  0  0  0  0  0  0  0  0
   -3.2888   -3.8560   23.9645 C   0  0  0  0  0  0  0  0  0  0  0  0
   -3.8197   -3.5592   22.3734 N   0  0  0  0  0  0  0  0  0  0  0  0
   -4.2770   -4.5140   21.3142 C   0  0  0  0  0  0  0  0  0  0  0  0
   -3.8588   -4.5380   16.4088 N   0  0  0  0  0  0  0  0  0  0  0  0
   -2.1917   -3.8948   15.7236 C   0  0  0  0  0  0  0  0  0  0  0  0
   -1.9520   -4.6199   13.7786 C   0  0  0  0  0  0  0  0  0  0  0  0
   -3.3858   -5.1874   12.4372 C   0  0  0  0  0  0  0  0  0  0  0  0
   -3.6813   -4.8995   10.3848 C   0  0  0  0  0  0  0  0  0  0  0  0
   -3.5308   -5.8302    9.5118 N   0  0  0  0  0  0  0  0  0  0  0  0
   -3.3113   -5.3350    8.0715 N   0  0  0  0  0  0  0  0  0  0  0  0
   -3.5923   -4.1018    7.8566 C   0  0  0  0  0  0  0  0  0  0  0  0
   -3.1588   -3.6891    9.0684 N   0  0  0  0  0  0  0  0  0  0  0  0
   -2.9873   -2.1717    8.7279 C   0  0  0  0  0  0  0  0  0  0  0  0
   -4.1766   -1.3554    8.2254 C   0  0  0  0  0  0  0  0  0  0  0  0
   -4.9612   -2.0363    7.2089 N   0  0  0  0  0  0  0  0  0  0  0  0
   -4.3429   -3.3076    6.7845 C   0  0  0  0  0  0  0  0  0  0  0  0
   -4.8090   -4.5022   13.8136 C   0  0  0  0  0  0  0  0  0  0  0  0
   -4.8921   -4.4903   15.4732 C   0  0  0  0  0  0  0  0  0  0  0  0
   -6.5291   -3.9001   20.5301 H   0  0  0  0  0  0  0  0  0  0  0  0
   -6.8244   -5.8791   22.2048 H   0  0  0  0  0  0  0  0  0  0  0  0
   -4.7470   -7.2090   22.7639 H   0  0  0  0  0  0  0  0  0  0  0  0
   -2.1360   -6.0759   24.1610 H   0  0  0  0  0  0  0  0  0  0  0  0
   -3.0017   -2.9868   24.5386 H   0  0  0  0  0  0  0  0  0  0  0  0
   -3.5006   -2.6727   22.0298 H   0  0  0  0  0  0  0  0  0  0  0  0
   -1.6405   -3.4823   16.5654 H   0  0  0  0  0  0  0  0  0  0  0  0
   -1.9444   -2.9346   15.2729 H   0  0  0  0  0  0  0  0  0  0  0  0
   -1.2242   -5.4395   13.8217 H   0  0  0  0  0  0  0  0  0  0  0  0
   -1.4819   -3.7574   13.3036 H   0  0  0  0  0  0  0  0  0  0  0  0
   -3.4046   -6.2730   12.2816 H   0  0  0  0  0  0  0  0  0  0  0  0
   -2.3652   -2.2080    7.8192 H   0  0  0  0  0  0  0  0  0  0  0  0
   -2.2997   -1.6032    9.3018 H   0  0  0  0  0  0  0  0  0  0  0  0
   -3.8085   -0.4123    7.8043 H   0  0  0  0  0  0  0  0  0  0  0  0
   -4.8220   -1.0854    9.0522 H   0  0  0  0  0  0  0  0  0  0  0  0
   -5.8851   -2.2514    7.5877 H   0  0  0  0  0  0  0  0  0  0  0  0
   -3.7332   -3.0990    5.9147 H   0  0  0  0  0  0  0  0  0  0  0  0
   -5.1920   -3.8813    6.4034 H   0  0  0  0  0  0  0  0  0  0  0  0
   -5.9100   -4.5440   13.7330 H   0  0  0  0  0  0  0  0  0  0  0  0
   -5.2305   -3.5402   13.6450 H   0  0  0  0  0  0  0  0  0  0  0  0
   -5.6931   -5.1070   15.6775 H   0  0  0  0  0  0  0  0  0  0  0  0
   -4.9902   -3.4856   15.6812 H   0  0  0  0  0  0  0  0  0  0  0  0
  1  2  2  0
  2  3  1  0
  3  4  2  0
  4  5  1  0
  5  6  2  0
  6  7  1  0
  7  8  1  0
  8  9  2  0
  9 10  1  0
 10 11  1  0
  2 12  1  0
 12 13  1  0
 13 14  1  0
 14 15  1  0
 15 16  1  0
 16 17  2  0
 17 18  1  0
 18 19  2  0
 19 20  1  0
 20 21  1  0
 21 22  1  0
 22 23  1  0
 23 24  1  0
 15 25  1  0
 25 26  1  0
 11  3  1  0
 26 12  1  0
 11  7  2  0
 20 16  1  0
 24 19  1  0
  4 27  1  0
  5 28  1  0
  6 29  1  0
  8 30  1  0
  9 31  1  0
 10 32  1  0
 13 33  1  0
 13 34  1  0
 14 35  1  0
 14 36  1  0
 15 37  1  0
 21 38  1  0
 21 39  1  0
 22 40  1  0
 22 41  1  0
 23 42  1  0
 24 43  1  0
 24 44  1  0
 25 45  1  0
 25 46  1  0
 26 47  1  0
 26 48  1  0
M  END
>  <Energy>  (947) 
1245.2885308512805

>  <compound_id>  (947) 
15855

>  <target_id>  (947) 
1

>  <reference_id>  (947) 
65

>  <inspiration_ids>  (947) 
[40, 65]

>  <energy_score>  (947) 
1169.7096561325468

>  <distance_score>  (947) 
9.033702404837076

>  <path>  (947) 
/opt/xchem-fragalysis-2/maxwin/BulkDock/SCRATCH/511013/C15855-P65/C15855-P65.minimised.mol

>  <scratch_subdir>  (947) 
/opt/xchem-fragalysis-2/maxwin/BulkDock/SCRATCH/511013/C15855-P65

>  <fragmenstein_runtime>  (947) 
25.319535732269287

>  <fragmenstein_outcome>  (947) 
too moved

>  <fragmenstein_mode>  (947) 
expansion

>  <fragmenstein_error>  (947) 


$$$$
C15855-P40
     RDKit          3D

 48 52  0  0  0  0  0  0  0  0999 V2000
   -3.2020   -6.1967   23.4687 O   0  0  0  0  0  0  0  0  0  0  0  0
   -2.7342   -5.1536   23.1245 C   0  0  0  0  0  0  0  0  0  0  0  0
   -0.8922   -4.8362   24.3430 C   0  0  0  0  0  0  0  0  0  0  0  0
   -0.3866   -4.3871   26.3083 C   0  0  0  0  0  0  0  0  0  0  0  0
    0.6070   -4.4365   27.5243 C   0  0  0  0  0  0  0  0  0  0  0  0
    1.5580   -5.3780   27.3622 C   0  0  0  0  0  0  0  0  0  0  0  0
    1.7544   -5.9119   25.9606 C   0  0  0  0  0  0  0  0  0  0  0  0
    2.7783   -6.8521   25.5862 C   0  0  0  0  0  0  0  0  0  0  0  0
    3.5361   -5.7791   25.3240 C   0  0  0  0  0  0  0  0  0  0  0  0
    2.4867   -4.8240   25.2313 N   0  0  0  0  0  0  0  0  0  0  0  0
    0.9104   -5.4455   24.4764 C   0  0  0  0  0  0  0  0  0  0  0  0
   -4.1366   -4.2774   21.7490 N   0  0  0  0  0  0  0  0  0  0  0  0
   -4.4864   -4.3485   19.7952 C   0  0  0  0  0  0  0  0  0  0  0  0
   -5.1635   -4.3651   17.7633 C   0  0  0  0  0  0  0  0  0  0  0  0
   -4.8057   -3.6158   15.8765 C   0  0  0  0  0  0  0  0  0  0  0  0
   -5.8840   -2.3207   14.4103 C   0  0  0  0  0  0  0  0  0  0  0  0
   -7.3158   -2.6398   14.2278 N   0  0  0  0  0  0  0  0  0  0  0  0
   -8.3194   -2.0039   13.4216 N   0  0  0  0  0  0  0  0  0  0  0  0
   -7.8618   -0.9786   12.5402 C   0  0  0  0  0  0  0  0  0  0  0  0
   -6.2746   -0.7545   13.4041 N   0  0  0  0  0  0  0  0  0  0  0  0
   -5.9261   -0.1907   11.7552 C   0  0  0  0  0  0  0  0  0  0  0  0
   -6.5683   -0.2790   10.0503 C   0  0  0  0  0  0  0  0  0  0  0  0
   -7.7611    0.4336    9.9058 N   0  0  0  0  0  0  0  0  0  0  0  0
   -8.6333   -0.2183   10.8708 C   0  0  0  0  0  0  0  0  0  0  0  0
   -4.2660   -4.7072   17.6078 C   0  0  0  0  0  0  0  0  0  0  0  0
   -3.8329   -4.7327   19.7246 C   0  0  0  0  0  0  0  0  0  0  0  0
   -1.1946   -3.8856   26.9831 H   0  0  0  0  0  0  0  0  0  0  0  0
    0.3599   -3.9509   28.4618 H   0  0  0  0  0  0  0  0  0  0  0  0
    2.2307   -5.6939   28.1525 H   0  0  0  0  0  0  0  0  0  0  0  0
    3.2305   -7.6970   26.0903 H   0  0  0  0  0  0  0  0  0  0  0  0
    4.5891   -5.5240   25.3015 H   0  0  0  0  0  0  0  0  0  0  0  0
    2.7459   -3.8686   25.0415 H   0  0  0  0  0  0  0  0  0  0  0  0
   -5.3457   -3.6235   19.9866 H   0  0  0  0  0  0  0  0  0  0  0  0
   -5.5059   -5.0182   20.1600 H   0  0  0  0  0  0  0  0  0  0  0  0
   -6.0678   -3.9368   17.7350 H   0  0  0  0  0  0  0  0  0  0  0  0
   -5.7641   -5.5631   17.3609 H   0  0  0  0  0  0  0  0  0  0  0  0
   -4.9585   -4.4976   15.2294 H   0  0  0  0  0  0  0  0  0  0  0  0
   -6.2952    0.8041   11.9911 H   0  0  0  0  0  0  0  0  0  0  0  0
   -4.8449   -0.2488   11.6046 H   0  0  0  0  0  0  0  0  0  0  0  0
   -6.7089   -1.2349    9.5295 H   0  0  0  0  0  0  0  0  0  0  0  0
   -5.8218    0.0819    9.3254 H   0  0  0  0  0  0  0  0  0  0  0  0
   -7.6402    1.4135   10.1700 H   0  0  0  0  0  0  0  0  0  0  0  0
   -9.4233   -0.9083   10.4852 H   0  0  0  0  0  0  0  0  0  0  0  0
   -9.3244    0.6554   10.8604 H   0  0  0  0  0  0  0  0  0  0  0  0
   -4.2934   -5.8667   17.2263 H   0  0  0  0  0  0  0  0  0  0  0  0
   -3.4033   -5.2453   17.4274 H   0  0  0  0  0  0  0  0  0  0  0  0
   -3.5488   -3.3289   19.1280 H   0  0  0  0  0  0  0  0  0  0  0  0
   -3.0420   -5.4577   19.7049 H   0  0  0  0  0  0  0  0  0  0  0  0
  1  2  2  0
  2  3  1  0
  3  4  2  0
  4  5  1  0
  5  6  2  0
  6  7  1  0
  7  8  1  0
  8  9  2  0
  9 10  1  0
 10 11  1  0
  2 12  1  0
 12 13  1  0
 13 14  1  0
 14 15  1  0
 15 16  1  0
 16 17  2  0
 17 18  1  0
 18 19  2  0
 19 20  1  0
 20 21  1  0
 21 22  1  0
 22 23  1  0
 23 24  1  0
 15 25  1  0
 25 26  1  0
 11  3  1  0
 26 12  1  0
 11  7  2  0
 20 16  1  0
 24 19  1  0
  4 27  1  0
  5 28  1  0
  6 29  1  0
  8 30  1  0
  9 31  1  0
 10 32  1  0
 13 33  1  0
 13 34  1  0
 14 35  1  0
 14 36  1  0
 15 37  1  0
 21 38  1  0
 21 39  1  0
 22 40  1  0
 22 41  1  0
 23 42  1  0
 24 43  1  0
 24 44  1  0
 25 45  1  0
 25 46  1  0
 26 47  1  0
 26 48  1  0
M  END
>  <Energy>  (948) 
3359.9713164209206

>  <compound_id>  (948) 
15855

>  <target_id>  (948) 
1

>  <reference_id>  (948) 
40

>  <inspiration_ids>  (948) 
[40, 65]

>  <energy_score>  (948) 
3284.3924417022013

>  <distance_score>  (948) 
6.296390505363527

>  <path>  (948) 
/opt/xchem-fragalysis-2/maxwin/BulkDock/SCRATCH/511013/C15855-P40/C15855-P40.minimised.mol

>  <scratch_subdir>  (948) 
/opt/xchem-fragalysis-2/maxwin/BulkDock/SCRATCH/511013/C15855-P40

>  <fragmenstein_runtime>  (948) 
13.382403373718262

>  <fragmenstein_outcome>  (948) 
too moved

>  <fragmenstein_mode>  (948) 
expansion

>  <fragmenstein_error>  (948) 


$$$$
C15855-P65
     RDKit          3D

 48 52  0  0  0  0  0  0  0  0999 V2000
   -3.9788   -6.3276   17.8452 O   0  0  0  0  0  0  0  0  0  0  0  0
   -4.1756   -5.1132   17.8589 C   0  0  0  0  0  0  0  0  0  0  0  0
   -4.6232   -4.4360   19.6824 C   0  0  0  0  0  0  0  0  0  0  0  0
   -5.7813   -4.7039   20.4981 C   0  0  0  0  0  0  0  0  0  0  0  0
   -5.9632   -5.6159   21.6409 C   0  0  0  0  0  0  0  0  0  0  0  0
   -4.7617   -6.3685   22.0793 C   0  0  0  0  0  0  0  0  0  0  0  0
   -3.8046   -5.4599   22.0727 C   0  0  0  0  0  0  0  0  0  0  0  0
   -2.7662   -5.2916   23.7627 C   0  0  0  0  0  0  0  0  0  0  0  0
   -3.2888   -3.8560   23.9645 C   0  0  0  0  0  0  0  0  0  0  0  0
   -3.8197   -3.5592   22.3734 N   0  0  0  0  0  0  0  0  0  0  0  0
   -4.2770   -4.5140   21.3142 C   0  0  0  0  0  0  0  0  0  0  0  0
   -3.8588   -4.5380   16.4088 N   0  0  0  0  0  0  0  0  0  0  0  0
   -2.1917   -3.8948   15.7236 C   0  0  0  0  0  0  0  0  0  0  0  0
   -1.9520   -4.6199   13.7786 C   0  0  0  0  0  0  0  0  0  0  0  0
   -3.3858   -5.1874   12.4372 C   0  0  0  0  0  0  0  0  0  0  0  0
   -3.6813   -4.8995   10.3848 C   0  0  0  0  0  0  0  0  0  0  0  0
   -3.5308   -5.8302    9.5118 N   0  0  0  0  0  0  0  0  0  0  0  0
   -3.3113   -5.3350    8.0715 N   0  0  0  0  0  0  0  0  0  0  0  0
   -3.5923   -4.1018    7.8566 C   0  0  0  0  0  0  0  0  0  0  0  0
   -3.1588   -3.6891    9.0684 N   0  0  0  0  0  0  0  0  0  0  0  0
   -2.9873   -2.1717    8.7279 C   0  0  0  0  0  0  0  0  0  0  0  0
   -4.1766   -1.3554    8.2254 C   0  0  0  0  0  0  0  0  0  0  0  0
   -4.9612   -2.0363    7.2089 N   0  0  0  0  0  0  0  0  0  0  0  0
   -4.3429   -3.3076    6.7845 C   0  0  0  0  0  0  0  0  0  0  0  0
   -4.8090   -4.5022   13.8136 C   0  0  0  0  0  0  0  0  0  0  0  0
   -4.8921   -4.4903   15.4732 C   0  0  0  0  0  0  0  0  0  0  0  0
   -6.5291   -3.9001   20.5301 H   0  0  0  0  0  0  0  0  0  0  0  0
   -6.8244   -5.8791   22.2048 H   0  0  0  0  0  0  0  0  0  0  0  0
   -4.7470   -7.2090   22.7639 H   0  0  0  0  0  0  0  0  0  0  0  0
   -2.1360   -6.0759   24.1610 H   0  0  0  0  0  0  0  0  0  0  0  0
   -3.0017   -2.9868   24.5386 H   0  0  0  0  0  0  0  0  0  0  0  0
   -3.5006   -2.6727   22.0298 H   0  0  0  0  0  0  0  0  0  0  0  0
   -1.6405   -3.4823   16.5654 H   0  0  0  0  0  0  0  0  0  0  0  0
   -1.9444   -2.9346   15.2729 H   0  0  0  0  0  0  0  0  0  0  0  0
   -1.2242   -5.4395   13.8217 H   0  0  0  0  0  0  0  0  0  0  0  0
   -1.4819   -3.7574   13.3036 H   0  0  0  0  0  0  0  0  0  0  0  0
   -3.4046   -6.2730   12.2816 H   0  0  0  0  0  0  0  0  0  0  0  0
   -2.3652   -2.2080    7.8192 H   0  0  0  0  0  0  0  0  0  0  0  0
   -2.2997   -1.6032    9.3018 H   0  0  0  0  0  0  0  0  0  0  0  0
   -3.8085   -0.4123    7.8043 H   0  0  0  0  0  0  0  0  0  0  0  0
   -4.8220   -1.0854    9.0522 H   0  0  0  0  0  0  0  0  0  0  0  0
   -5.8851   -2.2514    7.5877 H   0  0  0  0  0  0  0  0  0  0  0  0
   -3.7332   -3.0990    5.9147 H   0  0  0  0  0  0  0  0  0  0  0  0
   -5.1920   -3.8813    6.4034 H   0  0  0  0  0  0  0  0  0  0  0  0
   -5.9100   -4.5440   13.7330 H   0  0  0  0  0  0  0  0  0  0  0  0
   -5.2305   -3.5402   13.6450 H   0  0  0  0  0  0  0  0  0  0  0  0
   -5.6931   -5.1070   15.6775 H   0  0  0  0  0  0  0  0  0  0  0  0
   -4.9902   -3.4856   15.6812 H   0  0  0  0  0  0  0  0  0  0  0  0
  1  2  2  0
  2  3  1  0
  3  4  2  0
  4  5  1  0
  5  6  2  0
  6  7  1  0
  7  8  1  0
  8  9  2  0
  9 10  1  0
 10 11  1  0
  2 12  1  0
 12 13  1  0
 13 14  1  0
 14 15  1  0
 15 16  1  0
 16 17  2  0
 17 18  1  0
 18 19  2  0
 19 20  1  0
 20 21  1  0
 21 22  1  0
 22 23  1  0
 23 24  1  0
 15 25  1  0
 25 26  1  0
 11  3  1  0
 26 12  1  0
 11  7  2  0
 20 16  1  0
 24 19  1  0
  4 27  1  0
  5 28  1  0
  6 29  1  0
  8 30  1  0
  9 31  1  0
 10 32  1  0
 13 33  1  0
 13 34  1  0
 14 35  1  0
 14 36  1  0
 15 37  1  0
 21 38  1  0
 21 39  1  0
 22 40  1  0
 22 41  1  0
 23 42  1  0
 24 43  1  0
 24 44  1  0
 25 45  1  0
 25 46  1  0
 26 47  1  0
 26 48  1  0
M  END
>  <Energy>  (949) 
1245.2885308512805

>  <compound_id>  (949) 
15855

>  <target_id>  (949) 
1

>  <reference_id>  (949) 
65

>  <inspiration_ids>  (949) 
[40, 65]

>  <energy_score>  (949) 
1169.7096561325468

>  <distance_score>  (949) 
9.033702404837076

>  <path>  (949) 
/opt/xchem-fragalysis-2/maxwin/BulkDock/SCRATCH/511013/C15855-P65/C15855-P65.minimised.mol

>  <scratch_subdir>  (949) 
/opt/xchem-fragalysis-2/maxwin/BulkDock/SCRATCH/511013/C15855-P65

>  <fragmenstein_runtime>  (949) 
25.12216329574585

>  <fragmenstein_outcome>  (949) 
too moved

>  <fragmenstein_mode>  (949) 
expansion

>  <fragmenstein_error>  (949) 


$$$$
C23398-P120
     RDKit          3D

 44 45  0  0  0  0  0  0  0  0999 V2000
   13.6040   -3.0000   15.8393 C   0  0  0  0  0  0  0  0  0  0  0  0
   12.7809   -1.9456   15.1778 C   0  0  0  0  0  0  0  0  0  0  0  0
   13.2094   -0.6293   15.2424 C   0  0  0  0  0  0  0  0  0  0  0  0
   12.0292    0.4795   14.7489 S   0  0  0  0  0  0  0  0  0  0  0  0
   10.9355   -0.7819   14.4336 C   0  0  0  0  0  0  0  0  0  0  0  0
   11.4776   -2.0619   14.5012 C   0  0  0  0  0  0  0  0  0  0  0  0
   10.6427   -3.3121   14.1987 C   0  0  0  0  0  0  0  0  0  0  0  0
   10.8339   -4.0476   13.2648 O   0  0  0  0  0  0  0  0  0  0  0  0
    9.6868   -3.4106   15.3400 N   0  0  0  0  0  0  0  0  0  0  0  0
   10.3877   -4.1129   16.4743 C   0  0  0  0  0  0  0  0  0  0  0  0
    8.1141   -4.7813   15.7438 C   0  0  0  0  0  0  0  0  0  0  0  0
    6.2932   -5.9812   16.3225 C   0  0  0  0  0  0  0  0  0  0  0  0
    4.8918   -6.7307   17.7020 N   0  0  0  0  0  0  0  0  0  0  0  0
    3.2238   -7.8257   17.4930 C   0  0  0  0  0  0  0  0  0  0  0  0
    2.8567   -8.0726   16.3242 O   0  0  0  0  0  0  0  0  0  0  0  0
    1.9219   -8.4862   18.6952 C   0  0  0  0  0  0  0  0  0  0  0  0
    0.1166   -8.3885   19.3662 C   0  0  0  0  0  0  0  0  0  0  0  0
   -1.4653   -9.1503   19.0206 C   0  0  0  0  0  0  0  0  0  0  0  0
   -2.3353   -9.8517   20.0863 C   0  0  0  0  0  0  0  0  0  0  0  0
   -2.7027   -9.4787   21.3643 C   0  0  0  0  0  0  0  0  0  0  0  0
   -3.7282  -10.2072   21.9702 N   0  0  0  0  0  0  0  0  0  0  0  0
   -4.1876  -11.0940   21.1128 C   0  0  0  0  0  0  0  0  0  0  0  0
   -3.3031  -11.2364   19.6496 S   0  0  0  0  0  0  0  0  0  0  0  0
   14.6072   -3.0395   15.4030 H   0  0  0  0  0  0  0  0  0  0  0  0
   13.1542   -3.9878   15.8032 H   0  0  0  0  0  0  0  0  0  0  0  0
   13.7227   -2.7566   16.9025 H   0  0  0  0  0  0  0  0  0  0  0  0
   14.1490   -0.2647   15.6364 H   0  0  0  0  0  0  0  0  0  0  0  0
    9.9279   -0.4991   14.1690 H   0  0  0  0  0  0  0  0  0  0  0  0
   10.8708   -4.9246   17.0451 H   0  0  0  0  0  0  0  0  0  0  0  0
   11.1635   -4.5158   15.7878 H   0  0  0  0  0  0  0  0  0  0  0  0
   11.0306   -3.2760   16.8068 H   0  0  0  0  0  0  0  0  0  0  0  0
    7.8746   -4.5323   16.6265 H   0  0  0  0  0  0  0  0  0  0  0  0
    7.6031   -3.6718   15.5423 H   0  0  0  0  0  0  0  0  0  0  0  0
    6.7244   -5.9476   17.3202 H   0  0  0  0  0  0  0  0  0  0  0  0
    5.4867   -5.3691   15.8987 H   0  0  0  0  0  0  0  0  0  0  0  0
    5.0203   -6.5410   18.6589 H   0  0  0  0  0  0  0  0  0  0  0  0
    1.4015   -8.8378   17.7902 H   0  0  0  0  0  0  0  0  0  0  0  0
    2.2819   -9.4286   18.9740 H   0  0  0  0  0  0  0  0  0  0  0  0
   -0.2743   -7.4790   18.9604 H   0  0  0  0  0  0  0  0  0  0  0  0
    0.2397   -8.4395   20.4551 H   0  0  0  0  0  0  0  0  0  0  0  0
   -1.4541   -9.7488   18.1142 H   0  0  0  0  0  0  0  0  0  0  0  0
   -2.1021   -8.3111   18.7071 H   0  0  0  0  0  0  0  0  0  0  0  0
   -2.2671   -8.6503   21.9060 H   0  0  0  0  0  0  0  0  0  0  0  0
   -5.0330  -11.7339   21.3302 H   0  0  0  0  0  0  0  0  0  0  0  0
  1  2  1  0
  2  3  2  0
  3  4  1  0
  4  5  1  0
  5  6  2  0
  6  7  1  0
  7  8  2  0
  7  9  1  0
  9 10  1  0
  9 11  1  0
 11 12  1  0
 12 13  1  0
 13 14  1  0
 14 15  2  0
 14 16  1  0
 16 17  1  0
 17 18  1  0
 18 19  1  0
 19 20  2  0
 20 21  1  0
 21 22  2  0
 22 23  1  0
  6  2  1  0
 23 19  1  0
  1 24  1  0
  1 25  1  0
  1 26  1  0
  3 27  1  0
  5 28  1  0
 10 29  1  0
 10 30  1  0
 10 31  1  0
 11 32  1  0
 11 33  1  0
 12 34  1  0
 12 35  1  0
 13 36  1  0
 16 37  1  0
 16 38  1  0
 17 39  1  0
 17 40  1  0
 18 41  1  0
 18 42  1  0
 20 43  1  0
 22 44  1  0
M  END
>  <Energy>  (950) 
1029.248963286178

>  <compound_id>  (950) 
23398

>  <target_id>  (950) 
1

>  <reference_id>  (950) 
120

>  <inspiration_ids>  (950) 
[120, 88]

>  <energy_score>  (950) 
969.0193766316306

>  <distance_score>  (950) 
13.803954655361645

>  <path>  (950) 
/opt/xchem-fragalysis-2/maxwin/BulkDock/SCRATCH/511013/C23398-P120/C23398-P120.minimised.mol

>  <scratch_subdir>  (950) 
/opt/xchem-fragalysis-2/maxwin/BulkDock/SCRATCH/511013/C23398-P120

>  <fragmenstein_runtime>  (950) 
17.493232011795044

>  <fragmenstein_outcome>  (950) 
too moved

>  <fragmenstein_mode>  (950) 
expansion

>  <fragmenstein_error>  (950) 


$$$$
C23398-P88
     RDKit          3D

 44 45  0  0  0  0  0  0  0  0999 V2000
   12.8872   -2.3338   15.2026 C   0  0  0  0  0  0  0  0  0  0  0  0
   12.7764   -1.9603   13.7556 C   0  0  0  0  0  0  0  0  0  0  0  0
   13.5904   -1.0160   13.1631 C   0  0  0  0  0  0  0  0  0  0  0  0
   13.2151   -0.7602   11.5255 S   0  0  0  0  0  0  0  0  0  0  0  0
   11.9567   -1.9095   11.5777 C   0  0  0  0  0  0  0  0  0  0  0  0
   11.8123   -2.5225   12.8042 C   0  0  0  0  0  0  0  0  0  0  0  0
   10.7970   -3.5456   13.1688 C   0  0  0  0  0  0  0  0  0  0  0  0
   10.5451   -3.6063   14.3425 O   0  0  0  0  0  0  0  0  0  0  0  0
   10.3289   -4.4005   12.0154 N   0  0  0  0  0  0  0  0  0  0  0  0
    9.0929   -3.8068   11.4205 C   0  0  0  0  0  0  0  0  0  0  0  0
    9.2421   -6.0569   11.9798 C   0  0  0  0  0  0  0  0  0  0  0  0
    7.7726   -7.5407   12.0197 C   0  0  0  0  0  0  0  0  0  0  0  0
    6.4898   -8.8038   12.8311 N   0  0  0  0  0  0  0  0  0  0  0  0
    6.0860   -9.1531   14.5455 C   0  0  0  0  0  0  0  0  0  0  0  0
    6.6678   -8.6643   15.5001 O   0  0  0  0  0  0  0  0  0  0  0  0
    4.5151  -10.2643   15.1968 C   0  0  0  0  0  0  0  0  0  0  0  0
    3.4508  -11.7848   16.1775 C   0  0  0  0  0  0  0  0  0  0  0  0
    2.8558  -13.7075   16.5381 C   0  0  0  0  0  0  0  0  0  0  0  0
    1.1799  -14.5846   16.0385 C   0  0  0  0  0  0  0  0  0  0  0  0
   -0.0286  -14.2286   15.3412 C   0  0  0  0  0  0  0  0  0  0  0  0
   -1.2567  -14.7897   15.7392 N   0  0  0  0  0  0  0  0  0  0  0  0
   -1.0264  -15.9549   16.2684 C   0  0  0  0  0  0  0  0  0  0  0  0
    0.5956  -16.4072   16.0979 S   0  0  0  0  0  0  0  0  0  0  0  0
   12.0042   -1.9963   15.7547 H   0  0  0  0  0  0  0  0  0  0  0  0
   12.9934   -3.4168   15.3163 H   0  0  0  0  0  0  0  0  0  0  0  0
   13.7647   -1.8685   15.6647 H   0  0  0  0  0  0  0  0  0  0  0  0
   14.3866   -0.4495   13.6274 H   0  0  0  0  0  0  0  0  0  0  0  0
   11.3780   -2.0538   10.6823 H   0  0  0  0  0  0  0  0  0  0  0  0
    8.5172   -4.2221   10.5739 H   0  0  0  0  0  0  0  0  0  0  0  0
    9.5291   -2.9883   10.8215 H   0  0  0  0  0  0  0  0  0  0  0  0
    8.6219   -3.1521   12.1349 H   0  0  0  0  0  0  0  0  0  0  0  0
   10.1501   -6.6734   12.0675 H   0  0  0  0  0  0  0  0  0  0  0  0
    8.9599   -6.0630   10.9123 H   0  0  0  0  0  0  0  0  0  0  0  0
    7.0760   -7.1441   11.2622 H   0  0  0  0  0  0  0  0  0  0  0  0
    8.3430   -8.3249   11.4968 H   0  0  0  0  0  0  0  0  0  0  0  0
    5.8139   -9.2632   12.2315 H   0  0  0  0  0  0  0  0  0  0  0  0
    3.7280   -9.7427   14.6249 H   0  0  0  0  0  0  0  0  0  0  0  0
    4.7677   -9.8554   16.1821 H   0  0  0  0  0  0  0  0  0  0  0  0
    2.4865  -11.4843   15.7986 H   0  0  0  0  0  0  0  0  0  0  0  0
    3.7468  -11.5692   17.2176 H   0  0  0  0  0  0  0  0  0  0  0  0
    2.1961  -13.5197   17.3756 H   0  0  0  0  0  0  0  0  0  0  0  0
    3.6996  -14.3844   16.4837 H   0  0  0  0  0  0  0  0  0  0  0  0
   -0.1366  -13.4799   14.5776 H   0  0  0  0  0  0  0  0  0  0  0  0
   -1.8059  -16.6144   16.6257 H   0  0  0  0  0  0  0  0  0  0  0  0
  1  2  1  0
  2  3  2  0
  3  4  1  0
  4  5  1  0
  5  6  2  0
  6  7  1  0
  7  8  2  0
  7  9  1  0
  9 10  1  0
  9 11  1  0
 11 12  1  0
 12 13  1  0
 13 14  1  0
 14 15  2  0
 14 16  1  0
 16 17  1  0
 17 18  1  0
 18 19  1  0
 19 20  2  0
 20 21  1  0
 21 22  2  0
 22 23  1  0
  6  2  1  0
 23 19  1  0
  1 24  1  0
  1 25  1  0
  1 26  1  0
  3 27  1  0
  5 28  1  0
 10 29  1  0
 10 30  1  0
 10 31  1  0
 11 32  1  0
 11 33  1  0
 12 34  1  0
 12 35  1  0
 13 36  1  0
 16 37  1  0
 16 38  1  0
 17 39  1  0
 17 40  1  0
 18 41  1  0
 18 42  1  0
 20 43  1  0
 22 44  1  0
M  END
>  <Energy>  (951) 
864.23970750435785

>  <compound_id>  (951) 
23398

>  <target_id>  (951) 
1

>  <reference_id>  (951) 
88

>  <inspiration_ids>  (951) 
[120, 88]

>  <energy_score>  (951) 
804.0101208498149

>  <distance_score>  (951) 
14.619345965758638

>  <path>  (951) 
/opt/xchem-fragalysis-2/maxwin/BulkDock/SCRATCH/511013/C23398-P88/C23398-P88.minimised.mol

>  <scratch_subdir>  (951) 
/opt/xchem-fragalysis-2/maxwin/BulkDock/SCRATCH/511013/C23398-P88

>  <fragmenstein_runtime>  (951) 
16.30618405342102

>  <fragmenstein_outcome>  (951) 
too moved

>  <fragmenstein_mode>  (951) 
expansion

>  <fragmenstein_error>  (951) 


$$$$
C23399-P120
     RDKit          3D

 44 45  0  0  0  0  0  0  0  0999 V2000
    8.1513    0.1043   16.6437 C   0  0  0  0  0  0  0  0  0  0  0  0
    7.6884   -0.8612   15.5706 C   0  0  0  0  0  0  0  0  0  0  0  0
    9.4270   -0.3292   14.6130 S   0  0  0  0  0  0  0  0  0  0  0  0
    9.7750   -1.9537   14.9929 C   0  0  0  0  0  0  0  0  0  0  0  0
    8.5483   -2.5893   14.7857 C   0  0  0  0  0  0  0  0  0  0  0  0
    7.3343   -1.8049   14.5271 C   0  0  0  0  0  0  0  0  0  0  0  0
    5.7766   -2.5711   14.0912 C   0  0  0  0  0  0  0  0  0  0  0  0
    5.3565   -3.1922   15.0156 O   0  0  0  0  0  0  0  0  0  0  0  0
    5.1968   -2.4991   12.6941 N   0  0  0  0  0  0  0  0  0  0  0  0
    4.2454   -1.3870   12.5895 C   0  0  0  0  0  0  0  0  0  0  0  0
    3.8901   -3.3449   11.9739 C   0  0  0  0  0  0  0  0  0  0  0  0
    2.3195   -3.6044   12.5478 C   0  0  0  0  0  0  0  0  0  0  0  0
    1.3568   -4.7502   11.9633 N   0  0  0  0  0  0  0  0  0  0  0  0
   -0.0576   -5.1553   12.3551 C   0  0  0  0  0  0  0  0  0  0  0  0
   -0.8237   -4.6578   13.1455 O   0  0  0  0  0  0  0  0  0  0  0  0
   -0.6613   -6.6039   11.6758 C   0  0  0  0  0  0  0  0  0  0  0  0
   -1.8770   -7.4170   12.5664 C   0  0  0  0  0  0  0  0  0  0  0  0
   -2.4702   -8.8800   12.2613 C   0  0  0  0  0  0  0  0  0  0  0  0
   -3.8605   -9.4135   12.8027 C   0  0  0  0  0  0  0  0  0  0  0  0
   -4.4903  -10.6088   12.4263 C   0  0  0  0  0  0  0  0  0  0  0  0
   -5.7068  -10.9317   13.0246 N   0  0  0  0  0  0  0  0  0  0  0  0
   -6.0596   -9.9475   13.8167 C   0  0  0  0  0  0  0  0  0  0  0  0
   -4.9396   -8.6517   13.9116 S   0  0  0  0  0  0  0  0  0  0  0  0
    9.2184    0.1368   16.8813 H   0  0  0  0  0  0  0  0  0  0  0  0
    7.7353   -0.1181   17.6152 H   0  0  0  0  0  0  0  0  0  0  0  0
    7.9461    1.1549   16.4010 H   0  0  0  0  0  0  0  0  0  0  0  0
   10.7625   -2.3889   15.0674 H   0  0  0  0  0  0  0  0  0  0  0  0
    8.5911   -3.6441   14.8457 H   0  0  0  0  0  0  0  0  0  0  0  0
    3.4362   -1.4462   13.3246 H   0  0  0  0  0  0  0  0  0  0  0  0
    4.8125   -0.5050   12.8535 H   0  0  0  0  0  0  0  0  0  0  0  0
    3.9018   -1.1592   11.5716 H   0  0  0  0  0  0  0  0  0  0  0  0
    3.8608   -3.0763   10.9071 H   0  0  0  0  0  0  0  0  0  0  0  0
    4.3113   -4.3598   11.9886 H   0  0  0  0  0  0  0  0  0  0  0  0
    1.7425   -2.6800   12.4436 H   0  0  0  0  0  0  0  0  0  0  0  0
    2.3985   -3.8290   13.6162 H   0  0  0  0  0  0  0  0  0  0  0  0
    1.7386   -5.4420   11.3277 H   0  0  0  0  0  0  0  0  0  0  0  0
    0.1686   -7.2877   11.4900 H   0  0  0  0  0  0  0  0  0  0  0  0
   -1.1042   -6.3249   10.7133 H   0  0  0  0  0  0  0  0  0  0  0  0
   -2.7062   -6.7037   12.6072 H   0  0  0  0  0  0  0  0  0  0  0  0
   -1.3838   -7.4824   13.5268 H   0  0  0  0  0  0  0  0  0  0  0  0
   -2.5448   -8.9462   11.1673 H   0  0  0  0  0  0  0  0  0  0  0  0
   -1.7129   -9.6134   12.5634 H   0  0  0  0  0  0  0  0  0  0  0  0
   -4.0739  -11.3074   11.7086 H   0  0  0  0  0  0  0  0  0  0  0  0
   -6.9823   -9.9525   14.3817 H   0  0  0  0  0  0  0  0  0  0  0  0
  1  2  1  0
  2  3  1  0
  3  4  1  0
  4  5  2  0
  5  6  1  0
  6  7  1  0
  7  8  2  0
  7  9  1  0
  9 10  1  0
  9 11  1  0
 11 12  1  0
 12 13  1  0
 13 14  1  0
 14 15  2  0
 14 16  1  0
 16 17  1  0
 17 18  1  0
 18 19  1  0
 19 20  2  0
 20 21  1  0
 21 22  2  0
 22 23  1  0
  6  2  2  0
 23 19  1  0
  1 24  1  0
  1 25  1  0
  1 26  1  0
  4 27  1  0
  5 28  1  0
 10 29  1  0
 10 30  1  0
 10 31  1  0
 11 32  1  0
 11 33  1  0
 12 34  1  0
 12 35  1  0
 13 36  1  0
 16 37  1  0
 16 38  1  0
 17 39  1  0
 17 40  1  0
 18 41  1  0
 18 42  1  0
 20 43  1  0
 22 44  1  0
M  END
>  <Energy>  (952) 
314.4054682484965

>  <compound_id>  (952) 
23399

>  <target_id>  (952) 
1

>  <reference_id>  (952) 
120

>  <inspiration_ids>  (952) 
[120, 88]

>  <energy_score>  (952) 
253.0894868241176

>  <distance_score>  (952) 
16.490403634611393

>  <path>  (952) 
/opt/xchem-fragalysis-2/maxwin/BulkDock/SCRATCH/511013/C23399-P120/C23399-P120.minimised.mol

>  <scratch_subdir>  (952) 
/opt/xchem-fragalysis-2/maxwin/BulkDock/SCRATCH/511013/C23399-P120

>  <fragmenstein_runtime>  (952) 
21.746829748153687

>  <fragmenstein_outcome>  (952) 
too moved

>  <fragmenstein_mode>  (952) 
expansion

>  <fragmenstein_error>  (952) 


$$$$
C23399-P88
     RDKit          3D

 44 45  0  0  0  0  0  0  0  0999 V2000
    8.1385  -14.4478   19.7856 C   0  0  0  0  0  0  0  0  0  0  0  0
    7.7147  -13.8140   21.0773 C   0  0  0  0  0  0  0  0  0  0  0  0
    8.4236  -12.3004   21.4930 S   0  0  0  0  0  0  0  0  0  0  0  0
    7.5238  -12.2191   22.9326 C   0  0  0  0  0  0  0  0  0  0  0  0
    6.7048  -13.3193   23.0986 C   0  0  0  0  0  0  0  0  0  0  0  0
    6.7841  -14.2824   22.0256 C   0  0  0  0  0  0  0  0  0  0  0  0
    6.0041  -15.5787   21.8601 C   0  0  0  0  0  0  0  0  0  0  0  0
    6.1944  -16.1669   20.8307 O   0  0  0  0  0  0  0  0  0  0  0  0
    5.1153  -15.8779   22.9559 N   0  0  0  0  0  0  0  0  0  0  0  0
    5.8192  -16.7197   23.9744 C   0  0  0  0  0  0  0  0  0  0  0  0
    4.0386  -16.9851   23.1108 C   0  0  0  0  0  0  0  0  0  0  0  0
    3.0355  -17.1211   24.3121 C   0  0  0  0  0  0  0  0  0  0  0  0
    1.7814  -17.8215   23.9627 N   0  0  0  0  0  0  0  0  0  0  0  0
    0.5983  -18.1183   24.7625 C   0  0  0  0  0  0  0  0  0  0  0  0
    0.3129  -17.8007   25.8809 O   0  0  0  0  0  0  0  0  0  0  0  0
   -0.3929  -18.9728   23.9249 C   0  0  0  0  0  0  0  0  0  0  0  0
   -1.8414  -19.1652   24.4724 C   0  0  0  0  0  0  0  0  0  0  0  0
   -1.9998  -20.2924   25.5076 C   0  0  0  0  0  0  0  0  0  0  0  0
   -3.4209  -20.7318   25.6577 C   0  0  0  0  0  0  0  0  0  0  0  0
   -4.3665  -20.3688   26.5964 C   0  0  0  0  0  0  0  0  0  0  0  0
   -5.5980  -20.9743   26.4695 N   0  0  0  0  0  0  0  0  0  0  0  0
   -5.5724  -21.7517   25.4073 C   0  0  0  0  0  0  0  0  0  0  0  0
   -4.0977  -21.8638   24.5630 S   0  0  0  0  0  0  0  0  0  0  0  0
    8.9144  -13.8703   19.2716 H   0  0  0  0  0  0  0  0  0  0  0  0
    7.2853  -14.5277   19.1040 H   0  0  0  0  0  0  0  0  0  0  0  0
    8.5452  -15.4480   19.9668 H   0  0  0  0  0  0  0  0  0  0  0  0
    7.6264  -11.3703   23.5944 H   0  0  0  0  0  0  0  0  0  0  0  0
    6.0476  -13.4272   23.9534 H   0  0  0  0  0  0  0  0  0  0  0  0
    6.7840  -16.2205   24.1524 H   0  0  0  0  0  0  0  0  0  0  0  0
    6.1283  -17.7170   23.6266 H   0  0  0  0  0  0  0  0  0  0  0  0
    5.3556  -16.7014   24.9672 H   0  0  0  0  0  0  0  0  0  0  0  0
    4.3812  -17.9696   22.7453 H   0  0  0  0  0  0  0  0  0  0  0  0
    3.3866  -16.7016   22.2711 H   0  0  0  0  0  0  0  0  0  0  0  0
    2.7635  -16.1463   24.7209 H   0  0  0  0  0  0  0  0  0  0  0  0
    3.4805  -17.6990   25.1285 H   0  0  0  0  0  0  0  0  0  0  0  0
    1.7224  -18.3250   23.0835 H   0  0  0  0  0  0  0  0  0  0  0  0
   -0.4879  -18.4694   22.9533 H   0  0  0  0  0  0  0  0  0  0  0  0
    0.0694  -19.9504   23.7459 H   0  0  0  0  0  0  0  0  0  0  0  0
   -2.2069  -18.2217   24.8962 H   0  0  0  0  0  0  0  0  0  0  0  0
   -2.4780  -19.3817   23.6046 H   0  0  0  0  0  0  0  0  0  0  0  0
   -1.6118  -19.9515   26.4752 H   0  0  0  0  0  0  0  0  0  0  0  0
   -1.3828  -21.1523   25.2178 H   0  0  0  0  0  0  0  0  0  0  0  0
   -4.1986  -19.6591   27.3977 H   0  0  0  0  0  0  0  0  0  0  0  0
   -6.4232  -22.3192   25.0647 H   0  0  0  0  0  0  0  0  0  0  0  0
  1  2  1  0
  2  3  1  0
  3  4  1  0
  4  5  2  0
  5  6  1  0
  6  7  1  0
  7  8  2  0
  7  9  1  0
  9 10  1  0
  9 11  1  0
 11 12  1  0
 12 13  1  0
 13 14  1  0
 14 15  2  0
 14 16  1  0
 16 17  1  0
 17 18  1  0
 18 19  1  0
 19 20  2  0
 20 21  1  0
 21 22  2  0
 22 23  1  0
  6  2  2  0
 23 19  1  0
  1 24  1  0
  1 25  1  0
  1 26  1  0
  4 27  1  0
  5 28  1  0
 10 29  1  0
 10 30  1  0
 10 31  1  0
 11 32  1  0
 11 33  1  0
 12 34  1  0
 12 35  1  0
 13 36  1  0
 16 37  1  0
 16 38  1  0
 17 39  1  0
 17 40  1  0
 18 41  1  0
 18 42  1  0
 20 43  1  0
 22 44  1  0
M  END
>  <Energy>  (953) 
84.873428122172399

>  <compound_id>  (953) 
23399

>  <target_id>  (953) 
1

>  <reference_id>  (953) 
88

>  <inspiration_ids>  (953) 
[120, 88]

>  <energy_score>  (953) 
23.557446697796422

>  <distance_score>  (953) 
16.800501443323498

>  <path>  (953) 
/opt/xchem-fragalysis-2/maxwin/BulkDock/SCRATCH/511013/C23399-P88/C23399-P88.minimised.mol

>  <scratch_subdir>  (953) 
/opt/xchem-fragalysis-2/maxwin/BulkDock/SCRATCH/511013/C23399-P88

>  <fragmenstein_runtime>  (953) 
15.155461072921753

>  <fragmenstein_outcome>  (953) 
too moved

>  <fragmenstein_mode>  (953) 
expansion

>  <fragmenstein_error>  (953) 


$$$$
C23413-P120
     RDKit          3D

 44 45  0  0  0  0  0  0  0  0999 V2000
   -0.0301   -7.0732   14.7161 C   0  0  0  0  0  0  0  0  0  0  0  0
    1.3013   -7.4573   16.2195 C   0  0  0  0  0  0  0  0  0  0  0  0
    2.5044   -5.9617   15.3572 C   0  0  0  0  0  0  0  0  0  0  0  0
    2.7869   -4.5500   14.7077 N   0  0  0  0  0  0  0  0  0  0  0  0
    3.1843   -3.2781   15.3085 C   0  0  0  0  0  0  0  0  0  0  0  0
    3.3575   -2.9769   16.4550 O   0  0  0  0  0  0  0  0  0  0  0  0
    3.3915   -2.2363   14.3003 C   0  0  0  0  0  0  0  0  0  0  0  0
    4.0328   -1.0225   14.4838 C   0  0  0  0  0  0  0  0  0  0  0  0
    4.0592   -0.1882   13.3831 N   0  0  0  0  0  0  0  0  0  0  0  0
    3.4731   -0.7829   12.3702 C   0  0  0  0  0  0  0  0  0  0  0  0
    2.8336   -2.3425   12.6794 S   0  0  0  0  0  0  0  0  0  0  0  0
    0.5387   -8.8670   17.1786 N   0  0  0  0  0  0  0  0  0  0  0  0
    1.5746   -8.5144   18.1526 C   0  0  0  0  0  0  0  0  0  0  0  0
   -1.1294   -9.0210   18.0420 C   0  0  0  0  0  0  0  0  0  0  0  0
   -1.9971   -8.1983   18.2308 O   0  0  0  0  0  0  0  0  0  0  0  0
   -1.7237  -10.6876   18.6282 C   0  0  0  0  0  0  0  0  0  0  0  0
   -3.2770  -11.2234   18.9802 C   0  0  0  0  0  0  0  0  0  0  0  0
   -3.2666  -12.6491   19.7182 C   0  0  0  0  0  0  0  0  0  0  0  0
   -4.4724  -13.2277   20.4816 C   0  0  0  0  0  0  0  0  0  0  0  0
   -5.7325  -12.7365   20.7714 C   0  0  0  0  0  0  0  0  0  0  0  0
   -6.5231  -13.6239   21.5827 C   0  0  0  0  0  0  0  0  0  0  0  0
   -5.8554  -14.7849   21.8940 C   0  0  0  0  0  0  0  0  0  0  0  0
   -4.2891  -14.8071   21.2089 S   0  0  0  0  0  0  0  0  0  0  0  0
   -0.5221   -7.6863   13.9470 H   0  0  0  0  0  0  0  0  0  0  0  0
   -0.8305   -6.4427   14.9681 H   0  0  0  0  0  0  0  0  0  0  0  0
    0.1627   -6.0604   14.2708 H   0  0  0  0  0  0  0  0  0  0  0  0
    2.2453   -8.0047   16.0902 H   0  0  0  0  0  0  0  0  0  0  0  0
    1.7390   -5.7491   14.6529 H   0  0  0  0  0  0  0  0  0  0  0  0
    3.4341   -6.4882   15.1081 H   0  0  0  0  0  0  0  0  0  0  0  0
    2.8184   -4.4634   13.6945 H   0  0  0  0  0  0  0  0  0  0  0  0
    4.4826   -0.6898   15.4140 H   0  0  0  0  0  0  0  0  0  0  0  0
    3.3938   -0.3152   11.3973 H   0  0  0  0  0  0  0  0  0  0  0  0
    2.5072   -8.0064   17.9539 H   0  0  0  0  0  0  0  0  0  0  0  0
    1.1607   -8.4273   19.1659 H   0  0  0  0  0  0  0  0  0  0  0  0
    2.1226   -9.4496   18.2202 H   0  0  0  0  0  0  0  0  0  0  0  0
   -1.4727  -10.6687   19.7006 H   0  0  0  0  0  0  0  0  0  0  0  0
   -1.3039  -11.5131   18.0710 H   0  0  0  0  0  0  0  0  0  0  0  0
   -3.7558  -10.4704   19.6162 H   0  0  0  0  0  0  0  0  0  0  0  0
   -3.8426  -11.2856   18.0448 H   0  0  0  0  0  0  0  0  0  0  0  0
   -2.4539  -12.6028   20.4547 H   0  0  0  0  0  0  0  0  0  0  0  0
   -2.9704  -13.3859   18.9601 H   0  0  0  0  0  0  0  0  0  0  0  0
   -6.0771  -11.7673   20.4302 H   0  0  0  0  0  0  0  0  0  0  0  0
   -7.5303  -13.4062   21.9151 H   0  0  0  0  0  0  0  0  0  0  0  0
   -6.2067  -15.6202   22.4836 H   0  0  0  0  0  0  0  0  0  0  0  0
  1  2  1  0
  2  3  1  0
  3  4  1  0
  4  5  1  0
  5  6  2  0
  5  7  1  0
  7  8  2  0
  8  9  1  0
  9 10  2  0
 10 11  1  0
  2 12  1  0
 12 13  1  0
 12 14  1  0
 14 15  2  0
 14 16  1  0
 16 17  1  0
 17 18  1  0
 18 19  1  0
 19 20  2  0
 20 21  1  0
 21 22  2  0
 22 23  1  0
 11  7  1  0
 23 19  1  0
  1 24  1  0
  1 25  1  0
  1 26  1  0
  2 27  1  0
  3 28  1  0
  3 29  1  0
  4 30  1  0
  8 31  1  0
 10 32  1  0
 13 33  1  0
 13 34  1  0
 13 35  1  0
 16 36  1  0
 16 37  1  0
 17 38  1  0
 17 39  1  0
 18 40  1  0
 18 41  1  0
 20 42  1  0
 21 43  1  0
 22 44  1  0
M  END
>  <Energy>  (954) 
570.80872642626844

>  <compound_id>  (954) 
23413

>  <target_id>  (954) 
1

>  <reference_id>  (954) 
120

>  <inspiration_ids>  (954) 
[120, 88]

>  <energy_score>  (954) 
497.9532598042948

>  <distance_score>  (954) 
14.784145743587796

>  <path>  (954) 
/opt/xchem-fragalysis-2/maxwin/BulkDock/SCRATCH/511013/C23413-P120/C23413-P120.minimised.mol

>  <scratch_subdir>  (954) 
/opt/xchem-fragalysis-2/maxwin/BulkDock/SCRATCH/511013/C23413-P120

>  <fragmenstein_runtime>  (954) 
34.133482933044434

>  <fragmenstein_outcome>  (954) 
too moved

>  <fragmenstein_mode>  (954) 
expansion

>  <fragmenstein_error>  (954) 


$$$$
C23413-P88
     RDKit          3D

 44 45  0  0  0  0  0  0  0  0999 V2000
    0.9879   -8.4988   15.1355 C   0  0  0  0  0  0  0  0  0  0  0  0
    2.2665   -9.2979   14.7319 C   0  0  0  0  0  0  0  0  0  0  0  0
    3.5563   -7.5746   15.4200 C   0  0  0  0  0  0  0  0  0  0  0  0
    5.4015   -6.8374   16.1733 N   0  0  0  0  0  0  0  0  0  0  0  0
    7.1671   -7.7828   15.9088 C   0  0  0  0  0  0  0  0  0  0  0  0
    7.4089   -8.8520   15.4179 O   0  0  0  0  0  0  0  0  0  0  0  0
    8.7165   -6.9428   16.3003 C   0  0  0  0  0  0  0  0  0  0  0  0
    9.2871   -5.6614   16.1394 C   0  0  0  0  0  0  0  0  0  0  0  0
   10.6399   -5.5052   16.3951 N   0  0  0  0  0  0  0  0  0  0  0  0
   11.2493   -6.6448   16.2172 C   0  0  0  0  0  0  0  0  0  0  0  0
   10.2648   -7.9145   15.6460 S   0  0  0  0  0  0  0  0  0  0  0  0
    2.2194  -11.3665   14.2407 N   0  0  0  0  0  0  0  0  0  0  0  0
    2.2329  -11.3938   15.6524 C   0  0  0  0  0  0  0  0  0  0  0  0
    0.7426  -12.5785   13.5390 C   0  0  0  0  0  0  0  0  0  0  0  0
   -0.3534  -12.3070   13.2869 O   0  0  0  0  0  0  0  0  0  0  0  0
    0.8824  -14.3900   13.3936 C   0  0  0  0  0  0  0  0  0  0  0  0
   -0.6477  -14.9121   14.2911 C   0  0  0  0  0  0  0  0  0  0  0  0
   -0.5341  -16.0405   15.4229 C   0  0  0  0  0  0  0  0  0  0  0  0
   -1.7332  -16.3617   16.3663 C   0  0  0  0  0  0  0  0  0  0  0  0
   -2.9655  -15.7558   16.5615 C   0  0  0  0  0  0  0  0  0  0  0  0
   -3.7531  -16.3577   17.6066 C   0  0  0  0  0  0  0  0  0  0  0  0
   -3.1116  -17.4223   18.1934 C   0  0  0  0  0  0  0  0  0  0  0  0
   -1.5772  -17.6959   17.4833 S   0  0  0  0  0  0  0  0  0  0  0  0
    0.6915   -8.5970   16.1600 H   0  0  0  0  0  0  0  0  0  0  0  0
    0.1012   -8.5474   14.5173 H   0  0  0  0  0  0  0  0  0  0  0  0
    1.1817   -7.4542   15.0177 H   0  0  0  0  0  0  0  0  0  0  0  0
    3.2853   -9.3594   15.0122 H   0  0  0  0  0  0  0  0  0  0  0  0
    3.3955   -8.0709   16.2606 H   0  0  0  0  0  0  0  0  0  0  0  0
    3.2136   -6.6434   14.9391 H   0  0  0  0  0  0  0  0  0  0  0  0
    5.5599   -5.9097   16.5455 H   0  0  0  0  0  0  0  0  0  0  0  0
    8.7513   -4.7667   15.8572 H   0  0  0  0  0  0  0  0  0  0  0  0
   12.3222   -6.7486   16.3157 H   0  0  0  0  0  0  0  0  0  0  0  0
    3.2479  -11.1867   15.4441 H   0  0  0  0  0  0  0  0  0  0  0  0
    2.0245  -12.4398   15.9474 H   0  0  0  0  0  0  0  0  0  0  0  0
    2.9606  -11.7162   16.4882 H   0  0  0  0  0  0  0  0  0  0  0  0
    0.6712  -14.7045   12.3627 H   0  0  0  0  0  0  0  0  0  0  0  0
    1.4134  -15.0876   14.0721 H   0  0  0  0  0  0  0  0  0  0  0  0
   -1.0616  -14.0172   14.7639 H   0  0  0  0  0  0  0  0  0  0  0  0
   -1.3412  -15.2462   13.5110 H   0  0  0  0  0  0  0  0  0  0  0  0
    0.3037  -15.7522   16.0713 H   0  0  0  0  0  0  0  0  0  0  0  0
   -0.2429  -16.9703   14.9180 H   0  0  0  0  0  0  0  0  0  0  0  0
   -3.2898  -14.8952   15.9881 H   0  0  0  0  0  0  0  0  0  0  0  0
   -4.7360  -16.0132   17.9024 H   0  0  0  0  0  0  0  0  0  0  0  0
   -3.4621  -18.0536   18.9978 H   0  0  0  0  0  0  0  0  0  0  0  0
  1  2  1  0
  2  3  1  0
  3  4  1  0
  4  5  1  0
  5  6  2  0
  5  7  1  0
  7  8  2  0
  8  9  1  0
  9 10  2  0
 10 11  1  0
  2 12  1  0
 12 13  1  0
 12 14  1  0
 14 15  2  0
 14 16  1  0
 16 17  1  0
 17 18  1  0
 18 19  1  0
 19 20  2  0
 20 21  1  0
 21 22  2  0
 22 23  1  0
 11  7  1  0
 23 19  1  0
  1 24  1  0
  1 25  1  0
  1 26  1  0
  2 27  1  0
  3 28  1  0
  3 29  1  0
  4 30  1  0
  8 31  1  0
 10 32  1  0
 13 33  1  0
 13 34  1  0
 13 35  1  0
 16 36  1  0
 16 37  1  0
 17 38  1  0
 17 39  1  0
 18 40  1  0
 18 41  1  0
 20 42  1  0
 21 43  1  0
 22 44  1  0
M  END
>  <Energy>  (955) 
1115.2600566389931

>  <compound_id>  (955) 
23413

>  <target_id>  (955) 
1

>  <reference_id>  (955) 
88

>  <inspiration_ids>  (955) 
[120, 88]

>  <energy_score>  (955) 
1042.4045900170306

>  <distance_score>  (955) 
15.746317789300436

>  <path>  (955) 
/opt/xchem-fragalysis-2/maxwin/BulkDock/SCRATCH/511013/C23413-P88/C23413-P88.minimised.mol

>  <scratch_subdir>  (955) 
/opt/xchem-fragalysis-2/maxwin/BulkDock/SCRATCH/511013/C23413-P88

>  <fragmenstein_runtime>  (955) 
29.04712700843811

>  <fragmenstein_outcome>  (955) 
too moved

>  <fragmenstein_mode>  (955) 
expansion

>  <fragmenstein_error>  (955) 


$$$$
C23414-P120
     RDKit          3D

 41 42  0  0  0  0  0  0  0  0999 V2000
   -4.0058   -8.3452   23.5686 C   0  0  0  0  0  0  0  0  0  0  0  0
   -4.0970   -9.5426   24.1131 N   0  0  0  0  0  0  0  0  0  0  0  0
   -3.3644   -7.8453   23.4018 C   0  0  0  0  0  0  0  0  0  0  0  0
   -2.8789   -6.5512   24.4938 C   0  0  0  0  0  0  0  0  0  0  0  0
   -1.6010   -5.8937   24.1609 N   0  0  0  0  0  0  0  0  0  0  0  0
   -1.3204   -4.6288   23.4528 C   0  0  0  0  0  0  0  0  0  0  0  0
   -2.0601   -3.8623   22.9033 O   0  0  0  0  0  0  0  0  0  0  0  0
    0.2051   -4.3100   23.5649 C   0  0  0  0  0  0  0  0  0  0  0  0
    0.9313   -3.4559   22.5021 C   0  0  0  0  0  0  0  0  0  0  0  0
    1.5332   -2.1642   22.7448 C   0  0  0  0  0  0  0  0  0  0  0  0
    2.2998   -1.6960   21.6942 C   0  0  0  0  0  0  0  0  0  0  0  0
    2.3131   -2.7821   20.3816 S   0  0  0  0  0  0  0  0  0  0  0  0
    1.3082   -3.8769   21.2370 C   0  0  0  0  0  0  0  0  0  0  0  0
   -5.4124   -9.9916   25.0360 C   0  0  0  0  0  0  0  0  0  0  0  0
   -6.3231   -9.4048   25.4309 O   0  0  0  0  0  0  0  0  0  0  0  0
   -5.2668  -11.5477   25.2497 C   0  0  0  0  0  0  0  0  0  0  0  0
   -6.5937  -12.1537   25.8146 C   0  0  0  0  0  0  0  0  0  0  0  0
   -6.6989  -13.6137   26.1969 C   0  0  0  0  0  0  0  0  0  0  0  0
   -7.7885  -14.4499   25.9972 C   0  0  0  0  0  0  0  0  0  0  0  0
   -7.7517  -15.6687   26.6372 N   0  0  0  0  0  0  0  0  0  0  0  0
   -6.6190  -15.7802   27.2964 C   0  0  0  0  0  0  0  0  0  0  0  0
   -5.5583  -14.4350   27.1825 S   0  0  0  0  0  0  0  0  0  0  0  0
   -4.4024   -8.9948   22.5594 H   0  0  0  0  0  0  0  0  0  0  0  0
   -5.1582   -7.9163   23.2152 H   0  0  0  0  0  0  0  0  0  0  0  0
   -4.6529   -7.9460   24.5742 H   0  0  0  0  0  0  0  0  0  0  0  0
   -3.4397   -7.3894   22.2238 H   0  0  0  0  0  0  0  0  0  0  0  0
   -2.2315   -8.2266   23.2157 H   0  0  0  0  0  0  0  0  0  0  0  0
   -3.6726   -5.7963   24.4841 H   0  0  0  0  0  0  0  0  0  0  0  0
   -2.7669   -6.9794   25.4963 H   0  0  0  0  0  0  0  0  0  0  0  0
   -0.7432   -6.2395   24.5767 H   0  0  0  0  0  0  0  0  0  0  0  0
    0.3431   -3.8295   24.5424 H   0  0  0  0  0  0  0  0  0  0  0  0
    0.7336   -5.2670   23.6080 H   0  0  0  0  0  0  0  0  0  0  0  0
    1.4251   -1.6141   23.6723 H   0  0  0  0  0  0  0  0  0  0  0  0
    2.8466   -0.7652   21.6407 H   0  0  0  0  0  0  0  0  0  0  0  0
    1.1020   -4.8340   20.7934 H   0  0  0  0  0  0  0  0  0  0  0  0
   -5.0248  -12.0181   24.2914 H   0  0  0  0  0  0  0  0  0  0  0  0
   -4.4392  -11.7122   25.9471 H   0  0  0  0  0  0  0  0  0  0  0  0
   -7.3838  -11.9413   25.0804 H   0  0  0  0  0  0  0  0  0  0  0  0
   -6.8716  -11.5802   26.7105 H   0  0  0  0  0  0  0  0  0  0  0  0
   -8.6732  -14.1842   25.4308 H   0  0  0  0  0  0  0  0  0  0  0  0
   -6.3662  -16.6617   27.8734 H   0  0  0  0  0  0  0  0  0  0  0  0
  1  2  1  0
  2  3  1  0
  3  4  1  0
  4  5  1  0
  5  6  1  0
  6  7  2  0
  6  8  1  0
  8  9  1  0
  9 10  1  0
 10 11  2  0
 11 12  1  0
 12 13  1  0
  2 14  1  0
 14 15  2  0
 14 16  1  0
 16 17  1  0
 17 18  1  0
 18 19  2  0
 19 20  1  0
 20 21  2  0
 21 22  1  0
 13  9  2  0
 22 18  1  0
  1 23  1  0
  1 24  1  0
  1 25  1  0
  3 26  1  0
  3 27  1  0
  4 28  1  0
  4 29  1  0
  5 30  1  0
  8 31  1  0
  8 32  1  0
 10 33  1  0
 11 34  1  0
 13 35  1  0
 16 36  1  0
 16 37  1  0
 17 38  1  0
 17 39  1  0
 19 40  1  0
 21 41  1  0
M  END
>  <Energy>  (956) 
779.21876396398216

>  <compound_id>  (956) 
23414

>  <target_id>  (956) 
1

>  <reference_id>  (956) 
120

>  <inspiration_ids>  (956) 
[120, 88]

>  <energy_score>  (956) 
647.4356274477544

>  <distance_score>  (956) 
15.869086525069878

>  <path>  (956) 
/opt/xchem-fragalysis-2/maxwin/BulkDock/SCRATCH/511013/C23414-P120/C23414-P120.minimised.mol

>  <scratch_subdir>  (956) 
/opt/xchem-fragalysis-2/maxwin/BulkDock/SCRATCH/511013/C23414-P120

>  <fragmenstein_runtime>  (956) 
15.036641836166382

>  <fragmenstein_outcome>  (956) 
too moved

>  <fragmenstein_mode>  (956) 
expansion

>  <fragmenstein_error>  (956) 


$$$$
C23414-P88
     RDKit          3D

 41 42  0  0  0  0  0  0  0  0999 V2000
   10.8297   -3.2123   16.5925 C   0  0  0  0  0  0  0  0  0  0  0  0
    9.5791   -2.8521   16.8362 N   0  0  0  0  0  0  0  0  0  0  0  0
   11.5154   -3.1727   17.0569 C   0  0  0  0  0  0  0  0  0  0  0  0
   12.8246   -2.2414   16.4380 C   0  0  0  0  0  0  0  0  0  0  0  0
   12.7906   -0.8781   16.8505 N   0  0  0  0  0  0  0  0  0  0  0  0
   13.6801   -0.1259   17.6905 C   0  0  0  0  0  0  0  0  0  0  0  0
   14.6353   -0.4710   18.3246 O   0  0  0  0  0  0  0  0  0  0  0  0
   13.3159    1.3614   17.6152 C   0  0  0  0  0  0  0  0  0  0  0  0
   13.2667    1.8063   16.1732 C   0  0  0  0  0  0  0  0  0  0  0  0
   12.2213    2.6014   15.6162 C   0  0  0  0  0  0  0  0  0  0  0  0
   12.3361    2.7462   14.2519 C   0  0  0  0  0  0  0  0  0  0  0  0
   13.7053    1.9408   13.6318 S   0  0  0  0  0  0  0  0  0  0  0  0
   14.1820    1.4498   15.1955 C   0  0  0  0  0  0  0  0  0  0  0  0
    8.1533   -3.7888   16.1163 C   0  0  0  0  0  0  0  0  0  0  0  0
    8.1183   -4.7515   15.5343 O   0  0  0  0  0  0  0  0  0  0  0  0
    6.3233   -3.0162   16.1857 C   0  0  0  0  0  0  0  0  0  0  0  0
    4.8276   -3.9207   15.2544 C   0  0  0  0  0  0  0  0  0  0  0  0
    3.2332   -4.3672   14.8506 C   0  0  0  0  0  0  0  0  0  0  0  0
    2.8402   -5.6066   14.3093 C   0  0  0  0  0  0  0  0  0  0  0  0
    1.4919   -5.9565   14.3988 N   0  0  0  0  0  0  0  0  0  0  0  0
    0.8285   -4.9626   14.9410 C   0  0  0  0  0  0  0  0  0  0  0  0
    1.7481   -3.5342   15.2548 S   0  0  0  0  0  0  0  0  0  0  0  0
   10.3896   -4.3446   16.5166 H   0  0  0  0  0  0  0  0  0  0  0  0
   10.7481   -2.2415   15.7923 H   0  0  0  0  0  0  0  0  0  0  0  0
   10.9744   -3.6278   15.4024 H   0  0  0  0  0  0  0  0  0  0  0  0
   11.5939   -2.7464   18.1886 H   0  0  0  0  0  0  0  0  0  0  0  0
   11.9650   -4.2926   17.3996 H   0  0  0  0  0  0  0  0  0  0  0  0
   13.7412   -2.6998   16.8267 H   0  0  0  0  0  0  0  0  0  0  0  0
   12.8551   -2.2856   15.3424 H   0  0  0  0  0  0  0  0  0  0  0  0
   12.0350   -0.2683   16.5357 H   0  0  0  0  0  0  0  0  0  0  0  0
   14.0741    1.9442   18.1503 H   0  0  0  0  0  0  0  0  0  0  0  0
   12.3537    1.5117   18.1168 H   0  0  0  0  0  0  0  0  0  0  0  0
   11.4045    3.0256   16.1888 H   0  0  0  0  0  0  0  0  0  0  0  0
   11.6757    3.2881   13.5878 H   0  0  0  0  0  0  0  0  0  0  0  0
   15.0845    0.8640   15.3167 H   0  0  0  0  0  0  0  0  0  0  0  0
    6.1547   -1.9992   16.5166 H   0  0  0  0  0  0  0  0  0  0  0  0
    6.0492   -3.5049   17.0529 H   0  0  0  0  0  0  0  0  0  0  0  0
    4.2488   -3.2157   15.8407 H   0  0  0  0  0  0  0  0  0  0  0  0
    5.1422   -4.9534   15.4052 H   0  0  0  0  0  0  0  0  0  0  0  0
    3.5347   -6.3476   13.9288 H   0  0  0  0  0  0  0  0  0  0  0  0
   -0.2344   -5.0057   15.1368 H   0  0  0  0  0  0  0  0  0  0  0  0
  1  2  1  0
  2  3  1  0
  3  4  1  0
  4  5  1  0
  5  6  1  0
  6  7  2  0
  6  8  1  0
  8  9  1  0
  9 10  1  0
 10 11  2  0
 11 12  1  0
 12 13  1  0
  2 14  1  0
 14 15  2  0
 14 16  1  0
 16 17  1  0
 17 18  1  0
 18 19  2  0
 19 20  1  0
 20 21  2  0
 21 22  1  0
 13  9  2  0
 22 18  1  0
  1 23  1  0
  1 24  1  0
  1 25  1  0
  3 26  1  0
  3 27  1  0
  4 28  1  0
  4 29  1  0
  5 30  1  0
  8 31  1  0
  8 32  1  0
 10 33  1  0
 11 34  1  0
 13 35  1  0
 16 36  1  0
 16 37  1  0
 17 38  1  0
 17 39  1  0
 19 40  1  0
 21 41  1  0
M  END
>  <Energy>  (957) 
1023.3357070816745

>  <compound_id>  (957) 
23414

>  <target_id>  (957) 
1

>  <reference_id>  (957) 
88

>  <inspiration_ids>  (957) 
[120, 88]

>  <energy_score>  (957) 
891.552570565447

>  <distance_score>  (957) 
18.320621807009083

>  <path>  (957) 
/opt/xchem-fragalysis-2/maxwin/BulkDock/SCRATCH/511013/C23414-P88/C23414-P88.minimised.mol

>  <scratch_subdir>  (957) 
/opt/xchem-fragalysis-2/maxwin/BulkDock/SCRATCH/511013/C23414-P88

>  <fragmenstein_runtime>  (957) 
15.169811487197876

>  <fragmenstein_outcome>  (957) 
too moved

>  <fragmenstein_mode>  (957) 
expansion

>  <fragmenstein_error>  (957) 


$$$$
C23415-P120
     RDKit          3D

 44 45  0  0  0  0  0  0  0  0999 V2000
   10.1504  -12.9770   23.4929 C   0  0  0  0  0  0  0  0  0  0  0  0
    9.3959  -11.7761   23.9717 C   0  0  0  0  0  0  0  0  0  0  0  0
    9.7941  -10.2614   23.2549 S   0  0  0  0  0  0  0  0  0  0  0  0
    8.7469   -9.4349   24.3051 C   0  0  0  0  0  0  0  0  0  0  0  0
    8.0624  -10.2973   25.1371 C   0  0  0  0  0  0  0  0  0  0  0  0
    8.4118  -11.6846   24.9648 C   0  0  0  0  0  0  0  0  0  0  0  0
    7.8958  -12.8775   25.8294 C   0  0  0  0  0  0  0  0  0  0  0  0
    6.4494  -12.8303   26.4550 C   0  0  0  0  0  0  0  0  0  0  0  0
    6.1658  -11.8653   27.1108 O   0  0  0  0  0  0  0  0  0  0  0  0
    5.6842  -14.0543   26.1735 N   0  0  0  0  0  0  0  0  0  0  0  0
    4.2822  -14.4381   26.5316 C   0  0  0  0  0  0  0  0  0  0  0  0
    3.6847  -15.5819   25.6088 C   0  0  0  0  0  0  0  0  0  0  0  0
    2.2606  -16.2442   25.6357 N   0  0  0  0  0  0  0  0  0  0  0  0
    1.8421  -14.8517   25.2891 C   0  0  0  0  0  0  0  0  0  0  0  0
    1.4659  -16.7432   26.7482 C   0  0  0  0  0  0  0  0  0  0  0  0
    1.6639  -16.6906   27.9349 O   0  0  0  0  0  0  0  0  0  0  0  0
    0.2179  -17.5420   26.1854 C   0  0  0  0  0  0  0  0  0  0  0  0
   -0.7612  -18.0986   27.2661 C   0  0  0  0  0  0  0  0  0  0  0  0
   -1.9171  -18.9516   26.7725 C   0  0  0  0  0  0  0  0  0  0  0  0
   -3.2148  -18.5910   26.4424 C   0  0  0  0  0  0  0  0  0  0  0  0
   -4.0675  -19.6234   26.0863 N   0  0  0  0  0  0  0  0  0  0  0  0
   -3.4231  -20.7644   26.1620 C   0  0  0  0  0  0  0  0  0  0  0  0
   -1.7939  -20.6705   26.6841 S   0  0  0  0  0  0  0  0  0  0  0  0
   10.0874  -13.0686   22.4031 H   0  0  0  0  0  0  0  0  0  0  0  0
    9.7625  -13.9041   23.9222 H   0  0  0  0  0  0  0  0  0  0  0  0
   11.2063  -12.8995   23.7740 H   0  0  0  0  0  0  0  0  0  0  0  0
    8.6452   -8.3594   24.2597 H   0  0  0  0  0  0  0  0  0  0  0  0
    7.3387   -9.9392   25.8614 H   0  0  0  0  0  0  0  0  0  0  0  0
    8.0258  -13.8053   25.2714 H   0  0  0  0  0  0  0  0  0  0  0  0
    8.5794  -12.9561   26.6867 H   0  0  0  0  0  0  0  0  0  0  0  0
    6.2651  -14.6949   25.6502 H   0  0  0  0  0  0  0  0  0  0  0  0
    4.2968  -14.7719   27.5741 H   0  0  0  0  0  0  0  0  0  0  0  0
    3.7063  -13.5109   26.4875 H   0  0  0  0  0  0  0  0  0  0  0  0
    3.9827  -15.4242   24.5578 H   0  0  0  0  0  0  0  0  0  0  0  0
    4.2985  -16.4547   25.8840 H   0  0  0  0  0  0  0  0  0  0  0  0
    0.7889  -14.9530   24.9902 H   0  0  0  0  0  0  0  0  0  0  0  0
    2.3032  -14.3896   24.4049 H   0  0  0  0  0  0  0  0  0  0  0  0
    1.7837  -14.1976   26.1683 H   0  0  0  0  0  0  0  0  0  0  0  0
    0.6120  -18.3765   25.5925 H   0  0  0  0  0  0  0  0  0  0  0  0
   -0.3390  -16.8855   25.5079 H   0  0  0  0  0  0  0  0  0  0  0  0
   -0.1817  -18.6719   28.0016 H   0  0  0  0  0  0  0  0  0  0  0  0
   -1.1755  -17.2467   27.8214 H   0  0  0  0  0  0  0  0  0  0  0  0
   -3.6006  -17.5783   26.4530 H   0  0  0  0  0  0  0  0  0  0  0  0
   -3.8872  -21.7105   25.9161 H   0  0  0  0  0  0  0  0  0  0  0  0
  1  2  1  0
  2  3  1  0
  3  4  1  0
  4  5  2  0
  5  6  1  0
  6  7  1  0
  7  8  1  0
  8  9  2  0
  8 10  1  0
 10 11  1  0
 11 12  1  0
 12 13  1  0
 13 14  1  0
 13 15  1  0
 15 16  2  0
 15 17  1  0
 17 18  1  0
 18 19  1  0
 19 20  2  0
 20 21  1  0
 21 22  2  0
 22 23  1  0
  6  2  2  0
 23 19  1  0
  1 24  1  0
  1 25  1  0
  1 26  1  0
  4 27  1  0
  5 28  1  0
  7 29  1  0
  7 30  1  0
 10 31  1  0
 11 32  1  0
 11 33  1  0
 12 34  1  0
 12 35  1  0
 14 36  1  0
 14 37  1  0
 14 38  1  0
 17 39  1  0
 17 40  1  0
 18 41  1  0
 18 42  1  0
 20 43  1  0
 22 44  1  0
M  END
>  <Energy>  (958) 
113.69634758668238

>  <compound_id>  (958) 
23415

>  <target_id>  (958) 
1

>  <reference_id>  (958) 
120

>  <inspiration_ids>  (958) 
[120, 88]

>  <energy_score>  (958) 
43.012600990224485

>  <distance_score>  (958) 
16.42258843102019

>  <path>  (958) 
/opt/xchem-fragalysis-2/maxwin/BulkDock/SCRATCH/511013/C23415-P120/C23415-P120.minimised.mol

>  <scratch_subdir>  (958) 
/opt/xchem-fragalysis-2/maxwin/BulkDock/SCRATCH/511013/C23415-P120

>  <fragmenstein_runtime>  (958) 
18.395801782608032

>  <fragmenstein_outcome>  (958) 
too moved

>  <fragmenstein_mode>  (958) 
expansion

>  <fragmenstein_error>  (958) 


$$$$
C23415-P88
     RDKit          3D

 44 45  0  0  0  0  0  0  0  0999 V2000
    6.7408  -15.1875   16.4605 C   0  0  0  0  0  0  0  0  0  0  0  0
    6.2479  -13.9755   15.7390 C   0  0  0  0  0  0  0  0  0  0  0  0
    7.0405  -12.4664   15.9906 S   0  0  0  0  0  0  0  0  0  0  0  0
    6.0699  -11.6902   14.8326 C   0  0  0  0  0  0  0  0  0  0  0  0
    5.1593  -12.5626   14.2767 C   0  0  0  0  0  0  0  0  0  0  0  0
    5.1970  -13.9062   14.8304 C   0  0  0  0  0  0  0  0  0  0  0  0
    4.3270  -15.0925   14.3077 C   0  0  0  0  0  0  0  0  0  0  0  0
    3.4253  -15.9568   15.2927 C   0  0  0  0  0  0  0  0  0  0  0  0
    3.9864  -16.6389   16.1067 O   0  0  0  0  0  0  0  0  0  0  0  0
    2.0011  -15.8399   14.9646 N   0  0  0  0  0  0  0  0  0  0  0  0
    0.7861  -16.4567   15.6042 C   0  0  0  0  0  0  0  0  0  0  0  0
    0.8118  -17.9559   16.0974 C   0  0  0  0  0  0  0  0  0  0  0  0
   -0.3334  -18.5977   17.0375 N   0  0  0  0  0  0  0  0  0  0  0  0
   -1.0067  -18.7871   15.7212 C   0  0  0  0  0  0  0  0  0  0  0  0
   -1.2517  -17.9704   17.9856 C   0  0  0  0  0  0  0  0  0  0  0  0
   -1.4433  -16.8060   18.2349 O   0  0  0  0  0  0  0  0  0  0  0  0
   -1.9977  -19.0971   18.8468 C   0  0  0  0  0  0  0  0  0  0  0  0
   -3.2282  -18.6055   19.6792 C   0  0  0  0  0  0  0  0  0  0  0  0
   -3.8548  -19.5307   20.7244 C   0  0  0  0  0  0  0  0  0  0  0  0
   -3.8657  -19.3948   22.1086 C   0  0  0  0  0  0  0  0  0  0  0  0
   -4.6635  -20.2768   22.8231 N   0  0  0  0  0  0  0  0  0  0  0  0
   -5.2485  -21.0986   21.9820 C   0  0  0  0  0  0  0  0  0  0  0  0
   -4.8779  -20.8565   20.3181 S   0  0  0  0  0  0  0  0  0  0  0  0
    6.0533  -15.4505   17.2687 H   0  0  0  0  0  0  0  0  0  0  0  0
    6.8089  -16.0394   15.7760 H   0  0  0  0  0  0  0  0  0  0  0  0
    7.7366  -15.0373   16.8893 H   0  0  0  0  0  0  0  0  0  0  0  0
    6.2159  -10.6464   14.5944 H   0  0  0  0  0  0  0  0  0  0  0  0
    4.4843  -12.2606   13.4863 H   0  0  0  0  0  0  0  0  0  0  0  0
    5.0297  -15.8150   13.8660 H   0  0  0  0  0  0  0  0  0  0  0  0
    3.7318  -14.7524   13.4536 H   0  0  0  0  0  0  0  0  0  0  0  0
    1.8774  -15.0972   14.2743 H   0  0  0  0  0  0  0  0  0  0  0  0
    0.0196  -16.3561   14.8288 H   0  0  0  0  0  0  0  0  0  0  0  0
    0.4706  -15.7873   16.4036 H   0  0  0  0  0  0  0  0  0  0  0  0
    1.6572  -18.0119   16.7879 H   0  0  0  0  0  0  0  0  0  0  0  0
    1.1699  -18.6360   15.3065 H   0  0  0  0  0  0  0  0  0  0  0  0
   -1.9569  -19.2920   15.9515 H   0  0  0  0  0  0  0  0  0  0  0  0
   -0.5132  -19.5015   15.0485 H   0  0  0  0  0  0  0  0  0  0  0  0
   -1.3420  -17.8595   15.2435 H   0  0  0  0  0  0  0  0  0  0  0  0
   -2.3163  -19.9029   18.1769 H   0  0  0  0  0  0  0  0  0  0  0  0
   -1.2461  -19.5109   19.5301 H   0  0  0  0  0  0  0  0  0  0  0  0
   -2.9329  -17.6846   20.2004 H   0  0  0  0  0  0  0  0  0  0  0  0
   -4.0131  -18.2980   18.9753 H   0  0  0  0  0  0  0  0  0  0  0  0
   -3.3237  -18.6300   22.6533 H   0  0  0  0  0  0  0  0  0  0  0  0
   -5.9241  -21.8812   22.3040 H   0  0  0  0  0  0  0  0  0  0  0  0
  1  2  1  0
  2  3  1  0
  3  4  1  0
  4  5  2  0
  5  6  1  0
  6  7  1  0
  7  8  1  0
  8  9  2  0
  8 10  1  0
 10 11  1  0
 11 12  1  0
 12 13  1  0
 13 14  1  0
 13 15  1  0
 15 16  2  0
 15 17  1  0
 17 18  1  0
 18 19  1  0
 19 20  2  0
 20 21  1  0
 21 22  2  0
 22 23  1  0
  6  2  2  0
 23 19  1  0
  1 24  1  0
  1 25  1  0
  1 26  1  0
  4 27  1  0
  5 28  1  0
  7 29  1  0
  7 30  1  0
 10 31  1  0
 11 32  1  0
 11 33  1  0
 12 34  1  0
 12 35  1  0
 14 36  1  0
 14 37  1  0
 14 38  1  0
 17 39  1  0
 17 40  1  0
 18 41  1  0
 18 42  1  0
 20 43  1  0
 22 44  1  0
M  END
>  <Energy>  (959) 
116.53072790654359

>  <compound_id>  (959) 
23415

>  <target_id>  (959) 
1

>  <reference_id>  (959) 
88

>  <inspiration_ids>  (959) 
[120, 88]

>  <energy_score>  (959) 
45.846981310084686

>  <distance_score>  (959) 
16.70123318471905

>  <path>  (959) 
/opt/xchem-fragalysis-2/maxwin/BulkDock/SCRATCH/511013/C23415-P88/C23415-P88.minimised.mol

>  <scratch_subdir>  (959) 
/opt/xchem-fragalysis-2/maxwin/BulkDock/SCRATCH/511013/C23415-P88

>  <fragmenstein_runtime>  (959) 
15.7990083694458

>  <fragmenstein_outcome>  (959) 
too moved

>  <fragmenstein_mode>  (959) 
expansion

>  <fragmenstein_error>  (959) 


$$$$
C23429-P120
     RDKit          3D

 39 40  0  0  0  0  0  0  0  0999 V2000
   11.6453    0.1854   15.4648 C   0  0  0  0  0  0  0  0  0  0  0  0
   11.2625   -1.2419   15.3024 C   0  0  0  0  0  0  0  0  0  0  0  0
   10.0543   -1.8540   15.5382 C   0  0  0  0  0  0  0  0  0  0  0  0
   10.0150   -3.3083   15.2593 C   0  0  0  0  0  0  0  0  0  0  0  0
    8.4428   -4.1312   15.4226 C   0  0  0  0  0  0  0  0  0  0  0  0
    7.4459   -5.8595   16.0327 C   0  0  0  0  0  0  0  0  0  0  0  0
    7.6188   -6.7220   15.2456 O   0  0  0  0  0  0  0  0  0  0  0  0
    6.4251   -5.9833   17.3261 N   0  0  0  0  0  0  0  0  0  0  0  0
    5.4798   -7.0194   17.7079 C   0  0  0  0  0  0  0  0  0  0  0  0
    4.6819   -6.0350   16.2842 C   0  0  0  0  0  0  0  0  0  0  0  0
    3.7592   -6.3064   15.2017 O   0  0  0  0  0  0  0  0  0  0  0  0
    4.9845   -8.8263   18.4471 C   0  0  0  0  0  0  0  0  0  0  0  0
    5.8786  -10.5172   18.8729 N   0  0  0  0  0  0  0  0  0  0  0  0
    5.3884  -12.1169   18.6062 C   0  0  0  0  0  0  0  0  0  0  0  0
    4.3964  -12.5300   18.0057 O   0  0  0  0  0  0  0  0  0  0  0  0
    6.1054  -13.2449   19.2173 C   0  0  0  0  0  0  0  0  0  0  0  0
    7.3762  -13.6558   19.5009 C   0  0  0  0  0  0  0  0  0  0  0  0
    7.5296  -15.0031   19.8670 N   0  0  0  0  0  0  0  0  0  0  0  0
    6.3778  -15.6363   19.8559 C   0  0  0  0  0  0  0  0  0  0  0  0
    5.0228  -14.6793   19.5241 S   0  0  0  0  0  0  0  0  0  0  0  0
   11.1333   -3.5470   14.5019 C   0  0  0  0  0  0  0  0  0  0  0  0
   12.3491   -2.3449   14.6239 S   0  0  0  0  0  0  0  0  0  0  0  0
   11.9737    0.6140   14.5120 H   0  0  0  0  0  0  0  0  0  0  0  0
   10.7961    0.7796   15.8181 H   0  0  0  0  0  0  0  0  0  0  0  0
   12.4575    0.2884   16.1916 H   0  0  0  0  0  0  0  0  0  0  0  0
    9.1805   -1.2915   15.8415 H   0  0  0  0  0  0  0  0  0  0  0  0
    7.6810   -3.3317   15.6973 H   0  0  0  0  0  0  0  0  0  0  0  0
    8.2382   -3.5799   14.4608 H   0  0  0  0  0  0  0  0  0  0  0  0
    6.5181   -5.1792   17.8814 H   0  0  0  0  0  0  0  0  0  0  0  0
    4.9332   -6.4777   18.4638 H   0  0  0  0  0  0  0  0  0  0  0  0
    5.4592   -5.8183   15.5953 H   0  0  0  0  0  0  0  0  0  0  0  0
    4.4899   -5.0206   16.6465 H   0  0  0  0  0  0  0  0  0  0  0  0
    3.6489   -5.4849   14.6931 H   0  0  0  0  0  0  0  0  0  0  0  0
    5.2251   -8.1994   19.2839 H   0  0  0  0  0  0  0  0  0  0  0  0
    3.8955   -9.0096   18.3015 H   0  0  0  0  0  0  0  0  0  0  0  0
    6.7788  -10.5132   19.3253 H   0  0  0  0  0  0  0  0  0  0  0  0
    8.2653  -13.0529   19.3850 H   0  0  0  0  0  0  0  0  0  0  0  0
    6.2986  -16.6909   20.0841 H   0  0  0  0  0  0  0  0  0  0  0  0
   11.2757   -4.3051   13.7642 H   0  0  0  0  0  0  0  0  0  0  0  0
  1  2  1  0
  2  3  2  0
  3  4  1  0
  4  5  1  0
  5  6  1  0
  6  7  2  0
  6  8  1  0
  8  9  1  0
  9 10  1  0
 10 11  1  0
  9 12  1  0
 12 13  1  0
 13 14  1  0
 14 15  2  0
 14 16  1  0
 16 17  2  0
 17 18  1  0
 18 19  2  0
 19 20  1  0
  4 21  2  0
 21 22  1  0
 22  2  1  0
 20 16  1  0
  1 23  1  0
  1 24  1  0
  1 25  1  0
  3 26  1  0
  5 27  1  0
  5 28  1  0
  8 29  1  0
  9 30  1  0
 10 31  1  0
 10 32  1  0
 11 33  1  0
 12 34  1  0
 12 35  1  0
 13 36  1  0
 17 37  1  0
 19 38  1  0
 21 39  1  0
M  END
>  <Energy>  (960) 
599.56822292832203

>  <compound_id>  (960) 
23429

>  <target_id>  (960) 
1

>  <reference_id>  (960) 
120

>  <inspiration_ids>  (960) 
[120, 88]

>  <energy_score>  (960) 
499.5744886810901

>  <distance_score>  (960) 
16.020730832760936

>  <path>  (960) 
/opt/xchem-fragalysis-2/maxwin/BulkDock/SCRATCH/511013/C23429-P120/C23429-P120.minimised.mol

>  <scratch_subdir>  (960) 
/opt/xchem-fragalysis-2/maxwin/BulkDock/SCRATCH/511013/C23429-P120

>  <fragmenstein_runtime>  (960) 
13.887755632400513

>  <fragmenstein_outcome>  (960) 
too moved

>  <fragmenstein_mode>  (960) 
expansion

>  <fragmenstein_error>  (960) 


$$$$
C23429-P88
     RDKit          3D

 39 40  0  0  0  0  0  0  0  0999 V2000
    9.2513   -9.2686   23.0719 C   0  0  0  0  0  0  0  0  0  0  0  0
    8.0612   -9.3177   22.1809 C   0  0  0  0  0  0  0  0  0  0  0  0
    7.7572  -10.2351   21.1964 C   0  0  0  0  0  0  0  0  0  0  0  0
    6.4547   -9.9738   20.3427 C   0  0  0  0  0  0  0  0  0  0  0  0
    5.6223  -10.7972   18.7367 C   0  0  0  0  0  0  0  0  0  0  0  0
    6.2017  -11.4157   17.4073 C   0  0  0  0  0  0  0  0  0  0  0  0
    7.3161  -11.8203   17.3303 O   0  0  0  0  0  0  0  0  0  0  0  0
    5.1129  -11.4564   16.4443 N   0  0  0  0  0  0  0  0  0  0  0  0
    5.0220  -12.0846   15.1371 C   0  0  0  0  0  0  0  0  0  0  0  0
    5.8201  -11.2133   14.0821 C   0  0  0  0  0  0  0  0  0  0  0  0
    5.2316   -9.9791   13.6888 O   0  0  0  0  0  0  0  0  0  0  0  0
    3.5515  -12.4869   14.7595 C   0  0  0  0  0  0  0  0  0  0  0  0
    2.7998  -13.4886   15.5956 N   0  0  0  0  0  0  0  0  0  0  0  0
    1.4735  -14.0823   15.4164 C   0  0  0  0  0  0  0  0  0  0  0  0
    0.6900  -13.9773   14.5173 O   0  0  0  0  0  0  0  0  0  0  0  0
    0.9971  -14.9808   16.5343 C   0  0  0  0  0  0  0  0  0  0  0  0
    1.6244  -15.8805   17.3832 C   0  0  0  0  0  0  0  0  0  0  0  0
    0.8393  -16.5540   18.3271 N   0  0  0  0  0  0  0  0  0  0  0  0
   -0.4221  -16.2492   18.1360 C   0  0  0  0  0  0  0  0  0  0  0  0
   -0.7297  -15.1691   16.8401 S   0  0  0  0  0  0  0  0  0  0  0  0
    5.8793   -9.0110   21.1509 C   0  0  0  0  0  0  0  0  0  0  0  0
    6.8192   -8.1894   22.3209 S   0  0  0  0  0  0  0  0  0  0  0  0
    8.9609   -9.4285   24.1155 H   0  0  0  0  0  0  0  0  0  0  0  0
    9.9752  -10.0448   22.8025 H   0  0  0  0  0  0  0  0  0  0  0  0
    9.7567   -8.3004   22.9943 H   0  0  0  0  0  0  0  0  0  0  0  0
    8.4279  -11.0774   21.0642 H   0  0  0  0  0  0  0  0  0  0  0  0
    4.9532   -9.9797   18.4537 H   0  0  0  0  0  0  0  0  0  0  0  0
    4.8540  -11.5631   18.8252 H   0  0  0  0  0  0  0  0  0  0  0  0
    4.2691  -11.0882   16.8785 H   0  0  0  0  0  0  0  0  0  0  0  0
    5.5893  -13.0194   15.2369 H   0  0  0  0  0  0  0  0  0  0  0  0
    5.9293  -11.8101   13.1701 H   0  0  0  0  0  0  0  0  0  0  0  0
    6.8296  -11.0024   14.4533 H   0  0  0  0  0  0  0  0  0  0  0  0
    5.3052   -9.3491   14.4365 H   0  0  0  0  0  0  0  0  0  0  0  0
    2.9138  -11.5994   14.7133 H   0  0  0  0  0  0  0  0  0  0  0  0
    3.5525  -12.9089   13.7476 H   0  0  0  0  0  0  0  0  0  0  0  0
    3.1514  -13.7298   16.5260 H   0  0  0  0  0  0  0  0  0  0  0  0
    2.6870  -16.0893   17.3580 H   0  0  0  0  0  0  0  0  0  0  0  0
   -1.2208  -16.6643   18.7367 H   0  0  0  0  0  0  0  0  0  0  0  0
    4.8879   -8.6998   20.9867 H   0  0  0  0  0  0  0  0  0  0  0  0
  1  2  1  0
  2  3  2  0
  3  4  1  0
  4  5  1  0
  5  6  1  0
  6  7  2  0
  6  8  1  0
  8  9  1  0
  9 10  1  0
 10 11  1  0
  9 12  1  0
 12 13  1  0
 13 14  1  0
 14 15  2  0
 14 16  1  0
 16 17  2  0
 17 18  1  0
 18 19  2  0
 19 20  1  0
  4 21  2  0
 21 22  1  0
 22  2  1  0
 20 16  1  0
  1 23  1  0
  1 24  1  0
  1 25  1  0
  3 26  1  0
  5 27  1  0
  5 28  1  0
  8 29  1  0
  9 30  1  0
 10 31  1  0
 10 32  1  0
 11 33  1  0
 12 34  1  0
 12 35  1  0
 13 36  1  0
 17 37  1  0
 19 38  1  0
 21 39  1  0
M  END
>  <Energy>  (961) 
153.27872137834976

>  <compound_id>  (961) 
23429

>  <target_id>  (961) 
1

>  <reference_id>  (961) 
88

>  <inspiration_ids>  (961) 
[120, 88]

>  <energy_score>  (961) 
53.2849871311206

>  <distance_score>  (961) 
16.332217425469576

>  <path>  (961) 
/opt/xchem-fragalysis-2/maxwin/BulkDock/SCRATCH/511013/C23429-P88/C23429-P88.minimised.mol

>  <scratch_subdir>  (961) 
/opt/xchem-fragalysis-2/maxwin/BulkDock/SCRATCH/511013/C23429-P88

>  <fragmenstein_runtime>  (961) 
14.261147499084473

>  <fragmenstein_outcome>  (961) 
too moved

>  <fragmenstein_mode>  (961) 
expansion

>  <fragmenstein_error>  (961) 


$$$$
C23444-P120
     RDKit          3D

 44 45  0  0  0  0  0  0  0  0999 V2000
    1.1950   -3.8399   20.4358 C   0  0  0  0  0  0  0  0  0  0  0  0
    0.4883   -5.1080   20.0998 C   0  0  0  0  0  0  0  0  0  0  0  0
    0.7707   -6.0004   19.0895 C   0  0  0  0  0  0  0  0  0  0  0  0
   -0.1317   -7.1042   19.0766 C   0  0  0  0  0  0  0  0  0  0  0  0
   -1.0884   -7.0271   20.0751 C   0  0  0  0  0  0  0  0  0  0  0  0
   -2.2289   -7.9160   20.3818 C   0  0  0  0  0  0  0  0  0  0  0  0
   -3.2169   -7.4280   20.8443 O   0  0  0  0  0  0  0  0  0  0  0  0
   -1.9566   -9.2587   19.9728 N   0  0  0  0  0  0  0  0  0  0  0  0
   -2.7468  -10.4548   20.0757 C   0  0  0  0  0  0  0  0  0  0  0  0
   -3.2517  -11.0349   18.7331 C   0  0  0  0  0  0  0  0  0  0  0  0
   -3.4791   -9.8911   17.7155 C   0  0  0  0  0  0  0  0  0  0  0  0
   -4.4492  -11.8937   18.9619 N   0  0  0  0  0  0  0  0  0  0  0  0
   -4.5639  -13.3326   19.2114 C   0  0  0  0  0  0  0  0  0  0  0  0
   -3.7301  -14.1928   19.2152 O   0  0  0  0  0  0  0  0  0  0  0  0
   -6.0298  -13.6936   19.6194 C   0  0  0  0  0  0  0  0  0  0  0  0
   -6.4221  -15.2044   19.8140 C   0  0  0  0  0  0  0  0  0  0  0  0
   -6.2493  -15.8079   21.2321 C   0  0  0  0  0  0  0  0  0  0  0  0
   -7.3235  -16.8098   21.5487 C   0  0  0  0  0  0  0  0  0  0  0  0
   -8.5874  -16.5621   22.0443 C   0  0  0  0  0  0  0  0  0  0  0  0
   -9.4092  -17.6547   22.1562 N   0  0  0  0  0  0  0  0  0  0  0  0
   -8.7669  -18.7333   21.7571 C   0  0  0  0  0  0  0  0  0  0  0  0
   -7.1332  -18.4967   21.2918 S   0  0  0  0  0  0  0  0  0  0  0  0
   -0.8659   -5.6037   21.0151 S   0  0  0  0  0  0  0  0  0  0  0  0
    1.2673   -3.6928   21.5181 H   0  0  0  0  0  0  0  0  0  0  0  0
    2.2127   -3.8433   20.0315 H   0  0  0  0  0  0  0  0  0  0  0  0
    0.6628   -2.9850   20.0059 H   0  0  0  0  0  0  0  0  0  0  0  0
    1.5894   -5.8729   18.3914 H   0  0  0  0  0  0  0  0  0  0  0  0
   -0.0805   -7.9022   18.3466 H   0  0  0  0  0  0  0  0  0  0  0  0
   -0.9718   -9.3315   19.7013 H   0  0  0  0  0  0  0  0  0  0  0  0
   -2.1316  -11.1985   20.5864 H   0  0  0  0  0  0  0  0  0  0  0  0
   -3.6012  -10.2033   20.7135 H   0  0  0  0  0  0  0  0  0  0  0  0
   -2.4749  -11.6972   18.3334 H   0  0  0  0  0  0  0  0  0  0  0  0
   -4.1972   -9.1638   18.1110 H   0  0  0  0  0  0  0  0  0  0  0  0
   -2.5520   -9.3667   17.4692 H   0  0  0  0  0  0  0  0  0  0  0  0
   -3.9132  -10.2907   16.7934 H   0  0  0  0  0  0  0  0  0  0  0  0
   -5.3498  -11.4558   19.1233 H   0  0  0  0  0  0  0  0  0  0  0  0
   -6.6622  -13.3059   18.8092 H   0  0  0  0  0  0  0  0  0  0  0  0
   -6.2801  -13.1321   20.5267 H   0  0  0  0  0  0  0  0  0  0  0  0
   -7.4808  -15.2761   19.5292 H   0  0  0  0  0  0  0  0  0  0  0  0
   -5.8727  -15.8211   19.0921 H   0  0  0  0  0  0  0  0  0  0  0  0
   -5.2520  -16.2539   21.3230 H   0  0  0  0  0  0  0  0  0  0  0  0
   -6.3000  -15.0061   21.9791 H   0  0  0  0  0  0  0  0  0  0  0  0
   -8.9670  -15.5838   22.3125 H   0  0  0  0  0  0  0  0  0  0  0  0
   -9.2351  -19.7097   21.7275 H   0  0  0  0  0  0  0  0  0  0  0  0
  1  2  1  0
  2  3  2  0
  3  4  1  0
  4  5  2  0
  5  6  1  0
  6  7  2  0
  6  8  1  0
  8  9  1  0
  9 10  1  0
 10 11  1  0
 10 12  1  0
 12 13  1  0
 13 14  2  0
 13 15  1  0
 15 16  1  0
 16 17  1  0
 17 18  1  0
 18 19  2  0
 19 20  1  0
 20 21  2  0
 21 22  1  0
  5 23  1  0
 23  2  1  0
 22 18  1  0
  1 24  1  0
  1 25  1  0
  1 26  1  0
  3 27  1  0
  4 28  1  0
  8 29  1  0
  9 30  1  0
  9 31  1  0
 10 32  1  0
 11 33  1  0
 11 34  1  0
 11 35  1  0
 12 36  1  0
 15 37  1  0
 15 38  1  0
 16 39  1  0
 16 40  1  0
 17 41  1  0
 17 42  1  0
 19 43  1  0
 21 44  1  0
M  END
>  <Energy>  (962) 
17.208234160352966

>  <compound_id>  (962) 
23444

>  <target_id>  (962) 
1

>  <reference_id>  (962) 
120

>  <inspiration_ids>  (962) 
[120, 88]

>  <energy_score>  (962) 
-34.37840469245896

>  <distance_score>  (962) 
16.94351478479502

>  <path>  (962) 
/opt/xchem-fragalysis-2/maxwin/BulkDock/SCRATCH/511013/C23444-P120/C23444-P120.minimised.mol

>  <scratch_subdir>  (962) 
/opt/xchem-fragalysis-2/maxwin/BulkDock/SCRATCH/511013/C23444-P120

>  <fragmenstein_runtime>  (962) 
25.90278387069702

>  <fragmenstein_outcome>  (962) 
too moved

>  <fragmenstein_mode>  (962) 
expansion

>  <fragmenstein_error>  (962) 


$$$$
C23444-P88
     RDKit          3D

 44 45  0  0  0  0  0  0  0  0999 V2000
    6.3511   -9.8154   33.5363 C   0  0  0  0  0  0  0  0  0  0  0  0
    5.5880  -10.5580   32.4935 C   0  0  0  0  0  0  0  0  0  0  0  0
    4.9422  -10.0595   31.3829 C   0  0  0  0  0  0  0  0  0  0  0  0
    4.3238  -11.0878   30.6129 C   0  0  0  0  0  0  0  0  0  0  0  0
    4.5016  -12.3460   31.1645 C   0  0  0  0  0  0  0  0  0  0  0  0
    4.0373  -13.6619   30.6875 C   0  0  0  0  0  0  0  0  0  0  0  0
    4.7385  -14.6163   30.8438 O   0  0  0  0  0  0  0  0  0  0  0  0
    2.7702  -13.5317   30.0356 N   0  0  0  0  0  0  0  0  0  0  0  0
    1.9009  -14.5238   29.4481 C   0  0  0  0  0  0  0  0  0  0  0  0
    2.5138  -15.1560   28.1822 C   0  0  0  0  0  0  0  0  0  0  0  0
    2.6762  -14.1106   27.0629 C   0  0  0  0  0  0  0  0  0  0  0  0
    1.7709  -16.3464   27.7461 N   0  0  0  0  0  0  0  0  0  0  0  0
    0.3474  -16.5936   27.6462 C   0  0  0  0  0  0  0  0  0  0  0  0
   -0.5850  -15.8645   27.8186 O   0  0  0  0  0  0  0  0  0  0  0  0
    0.1294  -18.0806   27.2887 C   0  0  0  0  0  0  0  0  0  0  0  0
   -1.3422  -18.5622   27.2565 C   0  0  0  0  0  0  0  0  0  0  0  0
   -1.3912  -20.0948   27.1783 C   0  0  0  0  0  0  0  0  0  0  0  0
   -2.7715  -20.6080   27.0695 C   0  0  0  0  0  0  0  0  0  0  0  0
   -3.7702  -20.5861   28.0146 C   0  0  0  0  0  0  0  0  0  0  0  0
   -4.9769  -21.0971   27.6094 N   0  0  0  0  0  0  0  0  0  0  0  0
   -4.8354  -21.5522   26.3818 C   0  0  0  0  0  0  0  0  0  0  0  0
   -3.3158  -21.3699   25.6450 S   0  0  0  0  0  0  0  0  0  0  0  0
    5.4503  -12.2592   32.5918 S   0  0  0  0  0  0  0  0  0  0  0  0
    6.3379   -8.7386   33.3376 H   0  0  0  0  0  0  0  0  0  0  0  0
    5.9146   -9.9780   34.5273 H   0  0  0  0  0  0  0  0  0  0  0  0
    7.3969  -10.1393   33.5566 H   0  0  0  0  0  0  0  0  0  0  0  0
    4.9222   -9.0069   31.1261 H   0  0  0  0  0  0  0  0  0  0  0  0
    3.7958  -10.9065   29.6844 H   0  0  0  0  0  0  0  0  0  0  0  0
    2.4273  -12.5895   30.1673 H   0  0  0  0  0  0  0  0  0  0  0  0
    1.7347  -15.2965   30.2068 H   0  0  0  0  0  0  0  0  0  0  0  0
    0.9417  -14.0427   29.2311 H   0  0  0  0  0  0  0  0  0  0  0  0
    3.5153  -15.5311   28.4254 H   0  0  0  0  0  0  0  0  0  0  0  0
    3.3085  -13.2745   27.3680 H   0  0  0  0  0  0  0  0  0  0  0  0
    1.6898  -13.7328   26.7995 H   0  0  0  0  0  0  0  0  0  0  0  0
    3.0970  -14.6020   26.1896 H   0  0  0  0  0  0  0  0  0  0  0  0
    2.2692  -17.2196   27.6122 H   0  0  0  0  0  0  0  0  0  0  0  0
    0.5873  -18.2617   26.3086 H   0  0  0  0  0  0  0  0  0  0  0  0
    0.6746  -18.6740   28.0341 H   0  0  0  0  0  0  0  0  0  0  0  0
   -1.8645  -18.2129   28.1558 H   0  0  0  0  0  0  0  0  0  0  0  0
   -1.8532  -18.1097   26.3976 H   0  0  0  0  0  0  0  0  0  0  0  0
   -0.7791  -20.4316   26.3319 H   0  0  0  0  0  0  0  0  0  0  0  0
   -0.9249  -20.5186   28.0773 H   0  0  0  0  0  0  0  0  0  0  0  0
   -3.6620  -20.1769   29.0119 H   0  0  0  0  0  0  0  0  0  0  0  0
   -5.6406  -22.0301   25.8422 H   0  0  0  0  0  0  0  0  0  0  0  0
  1  2  1  0
  2  3  2  0
  3  4  1  0
  4  5  2  0
  5  6  1  0
  6  7  2  0
  6  8  1  0
  8  9  1  0
  9 10  1  0
 10 11  1  0
 10 12  1  0
 12 13  1  0
 13 14  2  0
 13 15  1  0
 15 16  1  0
 16 17  1  0
 17 18  1  0
 18 19  2  0
 19 20  1  0
 20 21  2  0
 21 22  1  0
  5 23  1  0
 23  2  1  0
 22 18  1  0
  1 24  1  0
  1 25  1  0
  1 26  1  0
  3 27  1  0
  4 28  1  0
  8 29  1  0
  9 30  1  0
  9 31  1  0
 10 32  1  0
 11 33  1  0
 11 34  1  0
 11 35  1  0
 12 36  1  0
 15 37  1  0
 15 38  1  0
 16 39  1  0
 16 40  1  0
 17 41  1  0
 17 42  1  0
 19 43  1  0
 21 44  1  0
M  END
>  <Energy>  (963) 
6.3240564281249725

>  <compound_id>  (963) 
23444

>  <target_id>  (963) 
1

>  <reference_id>  (963) 
88

>  <inspiration_ids>  (963) 
[120, 88]

>  <energy_score>  (963) 
-45.26258242468771

>  <distance_score>  (963) 
18.71703015523153

>  <path>  (963) 
/opt/xchem-fragalysis-2/maxwin/BulkDock/SCRATCH/511013/C23444-P88/C23444-P88.minimised.mol

>  <scratch_subdir>  (963) 
/opt/xchem-fragalysis-2/maxwin/BulkDock/SCRATCH/511013/C23444-P88

>  <fragmenstein_runtime>  (963) 
21.787553787231445

>  <fragmenstein_outcome>  (963) 
too moved

>  <fragmenstein_mode>  (963) 
expansion

>  <fragmenstein_error>  (963) 


$$$$
C23451-P120
     RDKit          3D

 42 43  0  0  0  0  0  0  0  0999 V2000
   -6.8545  -14.4574   25.2984 C   0  0  0  0  0  0  0  0  0  0  0  0
   -6.7718  -14.3958   23.7727 C   0  0  0  0  0  0  0  0  0  0  0  0
   -6.1280  -13.1333   23.1738 C   0  0  0  0  0  0  0  0  0  0  0  0
   -5.5783  -12.0121   23.7645 C   0  0  0  0  0  0  0  0  0  0  0  0
   -5.0287  -11.0515   22.8112 C   0  0  0  0  0  0  0  0  0  0  0  0
   -5.1086  -11.4373   21.4783 C   0  0  0  0  0  0  0  0  0  0  0  0
   -4.7016  -10.7707   20.1409 C   0  0  0  0  0  0  0  0  0  0  0  0
   -5.5438  -10.8707   19.2938 O   0  0  0  0  0  0  0  0  0  0  0  0
   -3.3455  -10.1659   20.0837 N   0  0  0  0  0  0  0  0  0  0  0  0
   -2.5653   -9.5785   18.9124 C   0  0  0  0  0  0  0  0  0  0  0  0
   -1.4976   -8.3579   19.0241 C   0  0  0  0  0  0  0  0  0  0  0  0
   -1.2695   -7.5520   17.7517 N   0  0  0  0  0  0  0  0  0  0  0  0
   -1.8271   -6.1851   18.0294 C   0  0  0  0  0  0  0  0  0  0  0  0
   -1.9946   -5.1119   16.9666 C   0  0  0  0  0  0  0  0  0  0  0  0
    0.1299   -7.9188   16.7923 C   0  0  0  0  0  0  0  0  0  0  0  0
    0.8453   -6.9175   15.6078 C   0  0  0  0  0  0  0  0  0  0  0  0
    2.1701   -6.7933   15.4822 N   0  0  0  0  0  0  0  0  0  0  0  0
    2.5072   -5.7671   14.6144 C   0  0  0  0  0  0  0  0  0  0  0  0
    1.4422   -5.1919   13.9659 C   0  0  0  0  0  0  0  0  0  0  0  0
   -0.0203   -5.9750   14.4444 S   0  0  0  0  0  0  0  0  0  0  0  0
   -6.0577  -12.9398   21.4503 S   0  0  0  0  0  0  0  0  0  0  0  0
   -7.4356  -13.6172   25.6923 H   0  0  0  0  0  0  0  0  0  0  0  0
   -5.8558  -14.4185   25.7454 H   0  0  0  0  0  0  0  0  0  0  0  0
   -7.3373  -15.3858   25.6164 H   0  0  0  0  0  0  0  0  0  0  0  0
   -6.2033  -15.2654   23.4196 H   0  0  0  0  0  0  0  0  0  0  0  0
   -7.7875  -14.4851   23.3673 H   0  0  0  0  0  0  0  0  0  0  0  0
   -5.5527  -11.8581   24.8372 H   0  0  0  0  0  0  0  0  0  0  0  0
   -4.5957  -10.1075   23.1179 H   0  0  0  0  0  0  0  0  0  0  0  0
   -2.8726  -10.3306   20.9595 H   0  0  0  0  0  0  0  0  0  0  0  0
   -2.0832  -10.4318   18.4264 H   0  0  0  0  0  0  0  0  0  0  0  0
   -3.3517   -9.2495   18.2216 H   0  0  0  0  0  0  0  0  0  0  0  0
   -0.5577   -8.5749   19.5199 H   0  0  0  0  0  0  0  0  0  0  0  0
   -1.9724   -7.7100   19.7765 H   0  0  0  0  0  0  0  0  0  0  0  0
   -2.8556   -6.3529   18.3831 H   0  0  0  0  0  0  0  0  0  0  0  0
   -1.3053   -5.7351   18.8848 H   0  0  0  0  0  0  0  0  0  0  0  0
   -2.5731   -4.2811   17.3890 H   0  0  0  0  0  0  0  0  0  0  0  0
   -1.0427   -4.6833   16.6576 H   0  0  0  0  0  0  0  0  0  0  0  0
   -2.5594   -5.4647   16.1022 H   0  0  0  0  0  0  0  0  0  0  0  0
   -0.1798   -8.7045   16.1783 H   0  0  0  0  0  0  0  0  0  0  0  0
    0.8959   -8.2893   17.4897 H   0  0  0  0  0  0  0  0  0  0  0  0
    3.5479   -5.5026   14.4766 H   0  0  0  0  0  0  0  0  0  0  0  0
    1.4428   -4.4044   13.2265 H   0  0  0  0  0  0  0  0  0  0  0  0
  1  2  1  0
  2  3  1  0
  3  4  2  0
  4  5  1  0
  5  6  2  0
  6  7  1  0
  7  8  2  0
  7  9  1  0
  9 10  1  0
 10 11  1  0
 11 12  1  0
 12 13  1  0
 13 14  1  0
 12 15  1  0
 15 16  1  0
 16 17  2  0
 17 18  1  0
 18 19  2  0
 19 20  1  0
  6 21  1  0
 21  3  1  0
 20 16  1  0
  1 22  1  0
  1 23  1  0
  1 24  1  0
  2 25  1  0
  2 26  1  0
  4 27  1  0
  5 28  1  0
  9 29  1  0
 10 30  1  0
 10 31  1  0
 11 32  1  0
 11 33  1  0
 13 34  1  0
 13 35  1  0
 14 36  1  0
 14 37  1  0
 14 38  1  0
 15 39  1  0
 15 40  1  0
 18 41  1  0
 19 42  1  0
M  END
>  <Energy>  (964) 
137.18338795140656

>  <compound_id>  (964) 
23451

>  <target_id>  (964) 
1

>  <reference_id>  (964) 
120

>  <inspiration_ids>  (964) 
[120, 88]

>  <energy_score>  (964) 
15.052611795521102

>  <distance_score>  (964) 
15.524856308825713

>  <path>  (964) 
/opt/xchem-fragalysis-2/maxwin/BulkDock/SCRATCH/511013/C23451-P120/C23451-P120.minimised.mol

>  <scratch_subdir>  (964) 
/opt/xchem-fragalysis-2/maxwin/BulkDock/SCRATCH/511013/C23451-P120

>  <fragmenstein_runtime>  (964) 
21.08289861679077

>  <fragmenstein_outcome>  (964) 
too moved

>  <fragmenstein_mode>  (964) 
expansion

>  <fragmenstein_error>  (964) 


$$$$
C23451-P88
     RDKit          3D

 42 43  0  0  0  0  0  0  0  0999 V2000
    1.6749  -14.7660   27.6900 C   0  0  0  0  0  0  0  0  0  0  0  0
    1.9257  -13.2587   27.7363 C   0  0  0  0  0  0  0  0  0  0  0  0
    3.1815  -12.7072   27.0098 C   0  0  0  0  0  0  0  0  0  0  0  0
    4.1675  -13.3062   26.2478 C   0  0  0  0  0  0  0  0  0  0  0  0
    5.1052  -12.3615   25.6134 C   0  0  0  0  0  0  0  0  0  0  0  0
    4.9073  -11.0169   25.9245 C   0  0  0  0  0  0  0  0  0  0  0  0
    5.4773   -9.6040   25.4385 C   0  0  0  0  0  0  0  0  0  0  0  0
    5.0990   -8.6959   26.1260 O   0  0  0  0  0  0  0  0  0  0  0  0
    6.2834   -9.5942   24.1862 N   0  0  0  0  0  0  0  0  0  0  0  0
    6.7991   -8.4096   23.3157 C   0  0  0  0  0  0  0  0  0  0  0  0
    8.3519   -8.0940   23.0131 C   0  0  0  0  0  0  0  0  0  0  0  0
    8.8338   -7.3291   21.7676 N   0  0  0  0  0  0  0  0  0  0  0  0
   10.2956   -7.5637   21.6277 C   0  0  0  0  0  0  0  0  0  0  0  0
   10.6610   -7.9116   20.1900 C   0  0  0  0  0  0  0  0  0  0  0  0
    8.5714   -5.8466   21.8090 C   0  0  0  0  0  0  0  0  0  0  0  0
    9.1138   -4.9854   20.6516 C   0  0  0  0  0  0  0  0  0  0  0  0
   10.2885   -4.3733   20.6487 N   0  0  0  0  0  0  0  0  0  0  0  0
   10.4337   -3.6049   19.5032 C   0  0  0  0  0  0  0  0  0  0  0  0
    9.3684   -3.6349   18.6323 C   0  0  0  0  0  0  0  0  0  0  0  0
    8.1377   -4.6577   19.2646 S   0  0  0  0  0  0  0  0  0  0  0  0
    3.5273  -11.0053   27.0895 S   0  0  0  0  0  0  0  0  0  0  0  0
    0.7515  -15.0156   28.2213 H   0  0  0  0  0  0  0  0  0  0  0  0
    2.5013  -15.3087   28.1602 H   0  0  0  0  0  0  0  0  0  0  0  0
    1.5873  -15.1187   26.6596 H   0  0  0  0  0  0  0  0  0  0  0  0
    1.0520  -12.7528   27.3057 H   0  0  0  0  0  0  0  0  0  0  0  0
    1.9901  -12.9529   28.7883 H   0  0  0  0  0  0  0  0  0  0  0  0
    4.2108  -14.3752   26.0731 H   0  0  0  0  0  0  0  0  0  0  0  0
    5.8921  -12.6995   24.9520 H   0  0  0  0  0  0  0  0  0  0  0  0
    6.3482  -10.5342   23.8276 H   0  0  0  0  0  0  0  0  0  0  0  0
    6.3392   -7.5060   23.7300 H   0  0  0  0  0  0  0  0  0  0  0  0
    6.3382   -8.6016   22.3405 H   0  0  0  0  0  0  0  0  0  0  0  0
    8.7859   -9.1007   22.9418 H   0  0  0  0  0  0  0  0  0  0  0  0
    8.7859   -7.6335   23.9098 H   0  0  0  0  0  0  0  0  0  0  0  0
   10.8889   -6.7138   21.9861 H   0  0  0  0  0  0  0  0  0  0  0  0
   10.6263   -8.4127   22.2397 H   0  0  0  0  0  0  0  0  0  0  0  0
   10.1725   -8.8411   19.8807 H   0  0  0  0  0  0  0  0  0  0  0  0
   11.7423   -8.0641   20.1077 H   0  0  0  0  0  0  0  0  0  0  0  0
   10.3828   -7.1279   19.4818 H   0  0  0  0  0  0  0  0  0  0  0  0
    7.4849   -5.7042   21.8655 H   0  0  0  0  0  0  0  0  0  0  0  0
    8.9857   -5.4364   22.7400 H   0  0  0  0  0  0  0  0  0  0  0  0
   11.3449   -3.0383   19.3541 H   0  0  0  0  0  0  0  0  0  0  0  0
    9.2586   -3.1252   17.6848 H   0  0  0  0  0  0  0  0  0  0  0  0
  1  2  1  0
  2  3  1  0
  3  4  2  0
  4  5  1  0
  5  6  2  0
  6  7  1  0
  7  8  2  0
  7  9  1  0
  9 10  1  0
 10 11  1  0
 11 12  1  0
 12 13  1  0
 13 14  1  0
 12 15  1  0
 15 16  1  0
 16 17  2  0
 17 18  1  0
 18 19  2  0
 19 20  1  0
  6 21  1  0
 21  3  1  0
 20 16  1  0
  1 22  1  0
  1 23  1  0
  1 24  1  0
  2 25  1  0
  2 26  1  0
  4 27  1  0
  5 28  1  0
  9 29  1  0
 10 30  1  0
 10 31  1  0
 11 32  1  0
 11 33  1  0
 13 34  1  0
 13 35  1  0
 14 36  1  0
 14 37  1  0
 14 38  1  0
 15 39  1  0
 15 40  1  0
 18 41  1  0
 19 42  1  0
M  END
>  <Energy>  (965) 
86.978579421333322

>  <compound_id>  (965) 
23451

>  <target_id>  (965) 
1

>  <reference_id>  (965) 
88

>  <inspiration_ids>  (965) 
[120, 88]

>  <energy_score>  (965) 
-35.15219673454942

>  <distance_score>  (965) 
17.090068986813147

>  <path>  (965) 
/opt/xchem-fragalysis-2/maxwin/BulkDock/SCRATCH/511013/C23451-P88/C23451-P88.minimised.mol

>  <scratch_subdir>  (965) 
/opt/xchem-fragalysis-2/maxwin/BulkDock/SCRATCH/511013/C23451-P88

>  <fragmenstein_runtime>  (965) 
12.015748262405396

>  <fragmenstein_outcome>  (965) 
too moved

>  <fragmenstein_mode>  (965) 
expansion

>  <fragmenstein_error>  (965) 


$$$$
C23452-P120
     RDKit          3D

 39 40  0  0  0  0  0  0  0  0999 V2000
    5.3878   -7.2102   18.2753 C   0  0  0  0  0  0  0  0  0  0  0  0
    5.0088   -9.0249   18.7071 C   0  0  0  0  0  0  0  0  0  0  0  0
    6.1442  -10.4859   19.2507 N   0  0  0  0  0  0  0  0  0  0  0  0
    5.5865  -11.5067   20.5702 C   0  0  0  0  0  0  0  0  0  0  0  0
    4.1913  -11.4054   22.0366 C   0  0  0  0  0  0  0  0  0  0  0  0
    3.2582  -12.4490   23.1044 N   0  0  0  0  0  0  0  0  0  0  0  0
    3.1258  -12.4633   24.5721 C   0  0  0  0  0  0  0  0  0  0  0  0
    3.5618  -11.7076   25.4004 O   0  0  0  0  0  0  0  0  0  0  0  0
    2.3683  -13.7590   25.2751 C   0  0  0  0  0  0  0  0  0  0  0  0
    3.0547  -13.9817   26.9336 S   0  0  0  0  0  0  0  0  0  0  0  0
    2.0452  -15.2485   27.3908 C   0  0  0  0  0  0  0  0  0  0  0  0
    1.2182  -15.6034   26.3770 C   0  0  0  0  0  0  0  0  0  0  0  0
    1.3630  -14.7935   25.1595 C   0  0  0  0  0  0  0  0  0  0  0  0
    0.3099  -15.2123   24.1593 C   0  0  0  0  0  0  0  0  0  0  0  0
    7.8254  -10.1758   19.5604 C   0  0  0  0  0  0  0  0  0  0  0  0
    8.7158   -8.8303   19.6762 C   0  0  0  0  0  0  0  0  0  0  0  0
    8.3894   -7.5795   19.9766 N   0  0  0  0  0  0  0  0  0  0  0  0
    9.4360   -6.7054   19.7183 C   0  0  0  0  0  0  0  0  0  0  0  0
   10.5997   -7.2839   19.2718 C   0  0  0  0  0  0  0  0  0  0  0  0
   10.4014   -8.9874   19.2078 S   0  0  0  0  0  0  0  0  0  0  0  0
    5.5949   -6.9596   17.2322 H   0  0  0  0  0  0  0  0  0  0  0  0
    6.3387   -6.8565   18.6903 H   0  0  0  0  0  0  0  0  0  0  0  0
    4.5346   -6.5518   18.4679 H   0  0  0  0  0  0  0  0  0  0  0  0
    3.9004   -9.0525   18.5354 H   0  0  0  0  0  0  0  0  0  0  0  0
    4.9626   -9.5141   17.8200 H   0  0  0  0  0  0  0  0  0  0  0  0
    5.2863  -12.4021   19.9977 H   0  0  0  0  0  0  0  0  0  0  0  0
    6.5628  -11.7913   20.9795 H   0  0  0  0  0  0  0  0  0  0  0  0
    3.9652  -12.3091   21.4535 H   0  0  0  0  0  0  0  0  0  0  0  0
    4.7631  -10.9543   22.8601 H   0  0  0  0  0  0  0  0  0  0  0  0
    2.8291  -13.2911   22.7232 H   0  0  0  0  0  0  0  0  0  0  0  0
    2.1143  -15.6840   28.3778 H   0  0  0  0  0  0  0  0  0  0  0  0
    0.4920  -16.4029   26.4796 H   0  0  0  0  0  0  0  0  0  0  0  0
    0.3399  -16.3003   24.0217 H   0  0  0  0  0  0  0  0  0  0  0  0
    0.3897  -14.7828   23.1796 H   0  0  0  0  0  0  0  0  0  0  0  0
   -0.6841  -14.9757   24.5534 H   0  0  0  0  0  0  0  0  0  0  0  0
    8.1724  -10.8940   20.3109 H   0  0  0  0  0  0  0  0  0  0  0  0
    8.2582  -10.5378   18.6259 H   0  0  0  0  0  0  0  0  0  0  0  0
    9.2872   -5.6455   19.8818 H   0  0  0  0  0  0  0  0  0  0  0  0
   11.5360   -6.8096   19.0167 H   0  0  0  0  0  0  0  0  0  0  0  0
  1  2  1  0
  2  3  1  0
  3  4  1  0
  4  5  1  0
  5  6  1  0
  6  7  1  0
  7  8  2  0
  7  9  1  0
  9 10  1  0
 10 11  1  0
 11 12  2  0
 12 13  1  0
 13 14  1  0
  3 15  1  0
 15 16  1  0
 16 17  2  0
 17 18  1  0
 18 19  2  0
 19 20  1  0
 13  9  2  0
 20 16  1  0
  1 21  1  0
  1 22  1  0
  1 23  1  0
  2 24  1  0
  2 25  1  0
  4 26  1  0
  4 27  1  0
  5 28  1  0
  5 29  1  0
  6 30  1  0
 11 31  1  0
 12 32  1  0
 14 33  1  0
 14 34  1  0
 14 35  1  0
 15 36  1  0
 15 37  1  0
 18 38  1  0
 19 39  1  0
M  END
>  <Energy>  (966) 
453.5427283239149

>  <compound_id>  (966) 
23452

>  <target_id>  (966) 
1

>  <reference_id>  (966) 
120

>  <inspiration_ids>  (966) 
[120, 88]

>  <energy_score>  (966) 
325.84239979693416

>  <distance_score>  (966) 
16.091244901873306

>  <path>  (966) 
/opt/xchem-fragalysis-2/maxwin/BulkDock/SCRATCH/511013/C23452-P120/C23452-P120.minimised.mol

>  <scratch_subdir>  (966) 
/opt/xchem-fragalysis-2/maxwin/BulkDock/SCRATCH/511013/C23452-P120

>  <fragmenstein_runtime>  (966) 
11.454315423965454

>  <fragmenstein_outcome>  (966) 
too moved

>  <fragmenstein_mode>  (966) 
expansion

>  <fragmenstein_error>  (966) 


$$$$
C23452-P88
     RDKit          3D

 39 40  0  0  0  0  0  0  0  0999 V2000
   -3.3955   -9.6630   26.0767 C   0  0  0  0  0  0  0  0  0  0  0  0
   -3.2298  -11.0271   25.4209 C   0  0  0  0  0  0  0  0  0  0  0  0
   -2.1591  -11.8299   26.0123 N   0  0  0  0  0  0  0  0  0  0  0  0
   -2.4455  -13.3519   25.7483 C   0  0  0  0  0  0  0  0  0  0  0  0
   -3.9516  -14.3585   25.6491 C   0  0  0  0  0  0  0  0  0  0  0  0
   -4.8590  -15.1511   26.6962 N   0  0  0  0  0  0  0  0  0  0  0  0
   -5.7522  -16.4586   26.5126 C   0  0  0  0  0  0  0  0  0  0  0  0
   -5.8752  -17.1884   25.5581 O   0  0  0  0  0  0  0  0  0  0  0  0
   -6.8135  -16.8711   27.7996 C   0  0  0  0  0  0  0  0  0  0  0  0
   -6.9503  -15.2964   28.6224 S   0  0  0  0  0  0  0  0  0  0  0  0
   -8.2138  -14.9739   27.4763 C   0  0  0  0  0  0  0  0  0  0  0  0
   -8.9530  -16.1341   27.2683 C   0  0  0  0  0  0  0  0  0  0  0  0
   -8.3270  -17.5352   27.8868 C   0  0  0  0  0  0  0  0  0  0  0  0
   -9.6926  -18.7922   28.9668 C   0  0  0  0  0  0  0  0  0  0  0  0
   -0.7393  -11.3905   25.5530 C   0  0  0  0  0  0  0  0  0  0  0  0
   -0.0797  -10.0435   26.0046 C   0  0  0  0  0  0  0  0  0  0  0  0
   -0.0755   -8.8704   25.3707 N   0  0  0  0  0  0  0  0  0  0  0  0
    0.7872   -7.9635   25.9887 C   0  0  0  0  0  0  0  0  0  0  0  0
    1.4853   -8.4564   27.0617 C   0  0  0  0  0  0  0  0  0  0  0  0
    0.9579  -10.0608   27.4024 S   0  0  0  0  0  0  0  0  0  0  0  0
   -3.4585   -9.7524   27.1664 H   0  0  0  0  0  0  0  0  0  0  0  0
   -4.3234   -9.1961   25.7287 H   0  0  0  0  0  0  0  0  0  0  0  0
   -2.5834   -8.9790   25.8313 H   0  0  0  0  0  0  0  0  0  0  0  0
   -4.1864  -11.5390   25.5759 H   0  0  0  0  0  0  0  0  0  0  0  0
   -3.1071  -10.9263   24.3395 H   0  0  0  0  0  0  0  0  0  0  0  0
   -2.1056  -13.4791   24.7149 H   0  0  0  0  0  0  0  0  0  0  0  0
   -1.7858  -13.9208   26.4130 H   0  0  0  0  0  0  0  0  0  0  0  0
   -3.6709  -15.1478   24.9392 H   0  0  0  0  0  0  0  0  0  0  0  0
   -4.6700  -13.7212   25.1209 H   0  0  0  0  0  0  0  0  0  0  0  0
   -5.0556  -14.7318   27.5989 H   0  0  0  0  0  0  0  0  0  0  0  0
   -8.5210  -13.9548   27.2867 H   0  0  0  0  0  0  0  0  0  0  0  0
   -9.9949  -16.0129   27.0163 H   0  0  0  0  0  0  0  0  0  0  0  0
   -9.8435  -19.7691   28.4047 H   0  0  0  0  0  0  0  0  0  0  0  0
   -9.6307  -19.1273   30.0228 H   0  0  0  0  0  0  0  0  0  0  0  0
  -10.6583  -18.3515   29.3337 H   0  0  0  0  0  0  0  0  0  0  0  0
   -0.0699  -12.1815   25.9179 H   0  0  0  0  0  0  0  0  0  0  0  0
   -0.6988  -11.4633   24.4800 H   0  0  0  0  0  0  0  0  0  0  0  0
    0.8753   -6.9558   25.6017 H   0  0  0  0  0  0  0  0  0  0  0  0
    2.2125   -7.9610   27.6883 H   0  0  0  0  0  0  0  0  0  0  0  0
  1  2  1  0
  2  3  1  0
  3  4  1  0
  4  5  1  0
  5  6  1  0
  6  7  1  0
  7  8  2  0
  7  9  1  0
  9 10  1  0
 10 11  1  0
 11 12  2  0
 12 13  1  0
 13 14  1  0
  3 15  1  0
 15 16  1  0
 16 17  2  0
 17 18  1  0
 18 19  2  0
 19 20  1  0
 13  9  2  0
 20 16  1  0
  1 21  1  0
  1 22  1  0
  1 23  1  0
  2 24  1  0
  2 25  1  0
  4 26  1  0
  4 27  1  0
  5 28  1  0
  5 29  1  0
  6 30  1  0
 11 31  1  0
 12 32  1  0
 14 33  1  0
 14 34  1  0
 14 35  1  0
 15 36  1  0
 15 37  1  0
 18 38  1  0
 19 39  1  0
M  END
>  <Energy>  (967) 
393.31509874490598

>  <compound_id>  (967) 
23452

>  <target_id>  (967) 
1

>  <reference_id>  (967) 
88

>  <inspiration_ids>  (967) 
[120, 88]

>  <energy_score>  (967) 
265.61477021793405

>  <distance_score>  (967) 
16.351461346085927

>  <path>  (967) 
/opt/xchem-fragalysis-2/maxwin/BulkDock/SCRATCH/511013/C23452-P88/C23452-P88.minimised.mol

>  <scratch_subdir>  (967) 
/opt/xchem-fragalysis-2/maxwin/BulkDock/SCRATCH/511013/C23452-P88

>  <fragmenstein_runtime>  (967) 
8.743531703948975

>  <fragmenstein_outcome>  (967) 
too moved

>  <fragmenstein_mode>  (967) 
expansion

>  <fragmenstein_error>  (967) 


$$$$
C23455-P120
     RDKit          3D

 45 48  0  0  0  0  0  0  0  0999 V2000
    5.2642   -8.6874   29.5197 C   0  0  0  0  0  0  0  0  0  0  0  0
    4.3919   -8.7803   28.2623 C   0  0  0  0  0  0  0  0  0  0  0  0
    2.8521   -8.9256   28.7036 C   0  0  0  0  0  0  0  0  0  0  0  0
    2.2619  -10.2523   29.2039 N   0  0  0  0  0  0  0  0  0  0  0  0
    0.9502  -10.9023   28.9249 C   0  0  0  0  0  0  0  0  0  0  0  0
    0.0611  -10.5801   28.1700 O   0  0  0  0  0  0  0  0  0  0  0  0
    0.5898  -12.3130   29.8297 C   0  0  0  0  0  0  0  0  0  0  0  0
   -0.9464  -12.2641   30.5296 C   0  0  0  0  0  0  0  0  0  0  0  0
   -2.0946  -12.5646   29.8251 C   0  0  0  0  0  0  0  0  0  0  0  0
   -3.1975  -12.8836   30.6787 C   0  0  0  0  0  0  0  0  0  0  0  0
   -2.8809  -12.7136   32.0040 C   0  0  0  0  0  0  0  0  0  0  0  0
   -1.2823  -12.1177   32.1978 S   0  0  0  0  0  0  0  0  0  0  0  0
    1.6400  -13.0661   30.7486 C   0  0  0  0  0  0  0  0  0  0  0  0
    1.0573  -14.3879   30.2577 C   0  0  0  0  0  0  0  0  0  0  0  0
    1.9032  -15.6294   30.1231 C   0  0  0  0  0  0  0  0  0  0  0  0
    1.1007  -16.2627   31.2784 C   0  0  0  0  0  0  0  0  0  0  0  0
    0.0776  -15.1172   31.1558 C   0  0  0  0  0  0  0  0  0  0  0  0
    0.6120  -13.6964   28.9822 C   0  0  0  0  0  0  0  0  0  0  0  0
    4.7942   -7.6408   27.2741 C   0  0  0  0  0  0  0  0  0  0  0  0
    5.7163   -7.7887   26.3299 N   0  0  0  0  0  0  0  0  0  0  0  0
    5.9124   -6.6111   25.6200 C   0  0  0  0  0  0  0  0  0  0  0  0
    5.1307   -5.5557   26.0273 C   0  0  0  0  0  0  0  0  0  0  0  0
    4.1211   -6.0567   27.3424 S   0  0  0  0  0  0  0  0  0  0  0  0
    5.0602   -7.7680   30.0794 H   0  0  0  0  0  0  0  0  0  0  0  0
    6.3288   -8.6893   29.2605 H   0  0  0  0  0  0  0  0  0  0  0  0
    5.0801   -9.5377   30.1848 H   0  0  0  0  0  0  0  0  0  0  0  0
    4.6655   -9.7171   27.7711 H   0  0  0  0  0  0  0  0  0  0  0  0
    2.6551   -8.2162   29.5169 H   0  0  0  0  0  0  0  0  0  0  0  0
    2.1971   -8.6190   27.8836 H   0  0  0  0  0  0  0  0  0  0  0  0
    2.7246  -10.7492   29.9572 H   0  0  0  0  0  0  0  0  0  0  0  0
   -2.1128  -12.6121   28.7442 H   0  0  0  0  0  0  0  0  0  0  0  0
   -4.1794  -13.1887   30.3423 H   0  0  0  0  0  0  0  0  0  0  0  0
   -3.5168  -12.8646   32.8655 H   0  0  0  0  0  0  0  0  0  0  0  0
    1.5855  -12.8741   31.8234 H   0  0  0  0  0  0  0  0  0  0  0  0
    2.6811  -12.9075   30.4403 H   0  0  0  0  0  0  0  0  0  0  0  0
    1.7799  -16.1598   29.1718 H   0  0  0  0  0  0  0  0  0  0  0  0
    2.9724  -15.5067   30.3185 H   0  0  0  0  0  0  0  0  0  0  0  0
    0.7276  -17.2718   31.0946 H   0  0  0  0  0  0  0  0  0  0  0  0
    1.6429  -16.2601   32.2311 H   0  0  0  0  0  0  0  0  0  0  0  0
   -0.8657  -15.3916   30.6812 H   0  0  0  0  0  0  0  0  0  0  0  0
   -0.1390  -14.6811   32.1328 H   0  0  0  0  0  0  0  0  0  0  0  0
    1.3690  -13.6907   28.1875 H   0  0  0  0  0  0  0  0  0  0  0  0
   -0.3194  -14.0546   28.5391 H   0  0  0  0  0  0  0  0  0  0  0  0
    6.6390   -6.5890   24.8170 H   0  0  0  0  0  0  0  0  0  0  0  0
    5.0930   -4.5472   25.6418 H   0  0  0  0  0  0  0  0  0  0  0  0
  1  2  1  0
  2  3  1  0
  3  4  1  0
  4  5  1  0
  5  6  2  0
  5  7  1  0
  7  8  1  0
  8  9  2  0
  9 10  1  0
 10 11  2  0
 11 12  1  0
  7 13  1  0
 13 14  1  0
 14 15  1  0
 15 16  1  0
 16 17  1  0
 14 18  1  0
  2 19  1  0
 19 20  2  0
 20 21  1  0
 21 22  2  0
 22 23  1  0
 18  7  1  0
 23 19  1  0
 12  8  1  0
 17 14  1  0
  1 24  1  0
  1 25  1  0
  1 26  1  0
  2 27  1  0
  3 28  1  0
  3 29  1  0
  4 30  1  0
  9 31  1  0
 10 32  1  0
 11 33  1  0
 13 34  1  0
 13 35  1  0
 15 36  1  0
 15 37  1  0
 16 38  1  0
 16 39  1  0
 17 40  1  0
 17 41  1  0
 18 42  1  0
 18 43  1  0
 21 44  1  0
 22 45  1  0
M  END
>  <Energy>  (968) 
87.837146002343147

>  <compound_id>  (968) 
23455

>  <target_id>  (968) 
1

>  <reference_id>  (968) 
120

>  <inspiration_ids>  (968) 
[120, 88]

>  <energy_score>  (968) 
-47.12691435701083

>  <distance_score>  (968) 
16.76189562367624

>  <path>  (968) 
/opt/xchem-fragalysis-2/maxwin/BulkDock/SCRATCH/511013/C23455-P120/C23455-P120.minimised.mol

>  <scratch_subdir>  (968) 
/opt/xchem-fragalysis-2/maxwin/BulkDock/SCRATCH/511013/C23455-P120

>  <fragmenstein_runtime>  (968) 
12.862118482589722

>  <fragmenstein_outcome>  (968) 
too moved

>  <fragmenstein_mode>  (968) 
expansion

>  <fragmenstein_error>  (968) 


$$$$
C23455-P88
     RDKit          3D

 45 48  0  0  0  0  0  0  0  0999 V2000
   -2.0109  -15.8755   17.9749 C   0  0  0  0  0  0  0  0  0  0  0  0
   -0.7338  -16.3071   18.7023 C   0  0  0  0  0  0  0  0  0  0  0  0
   -0.7992  -17.9305   18.9254 C   0  0  0  0  0  0  0  0  0  0  0  0
   -1.7318  -18.6976   19.9503 N   0  0  0  0  0  0  0  0  0  0  0  0
   -3.1199  -19.2650   19.7889 C   0  0  0  0  0  0  0  0  0  0  0  0
   -3.8905  -19.1981   18.8564 O   0  0  0  0  0  0  0  0  0  0  0  0
   -3.6898  -20.3112   21.1391 C   0  0  0  0  0  0  0  0  0  0  0  0
   -4.3735  -21.7228   20.5712 C   0  0  0  0  0  0  0  0  0  0  0  0
   -5.6725  -21.7651   20.0938 C   0  0  0  0  0  0  0  0  0  0  0  0
   -6.2188  -23.0823   20.1405 C   0  0  0  0  0  0  0  0  0  0  0  0
   -5.2806  -24.0104   20.5315 C   0  0  0  0  0  0  0  0  0  0  0  0
   -3.7502  -23.2925   20.8216 S   0  0  0  0  0  0  0  0  0  0  0  0
   -4.8591  -19.7941   22.1661 C   0  0  0  0  0  0  0  0  0  0  0  0
   -4.1195  -20.5124   23.2744 C   0  0  0  0  0  0  0  0  0  0  0  0
   -4.7087  -21.7830   23.8783 C   0  0  0  0  0  0  0  0  0  0  0  0
   -4.2620  -21.2671   25.2610 C   0  0  0  0  0  0  0  0  0  0  0  0
   -4.1020  -19.8717   24.6260 C   0  0  0  0  0  0  0  0  0  0  0  0
   -2.8372  -20.5457   22.4532 C   0  0  0  0  0  0  0  0  0  0  0  0
    0.5004  -15.6233   17.9875 C   0  0  0  0  0  0  0  0  0  0  0  0
    0.7692  -14.3170   18.0694 N   0  0  0  0  0  0  0  0  0  0  0  0
    1.9164  -13.9778   17.3613 C   0  0  0  0  0  0  0  0  0  0  0  0
    2.5373  -15.0333   16.7378 C   0  0  0  0  0  0  0  0  0  0  0  0
    1.6421  -16.4911   17.0326 S   0  0  0  0  0  0  0  0  0  0  0  0
   -2.1008  -14.7839   17.9493 H   0  0  0  0  0  0  0  0  0  0  0  0
   -2.0113  -16.2325   16.9390 H   0  0  0  0  0  0  0  0  0  0  0  0
   -2.9032  -16.2743   18.4674 H   0  0  0  0  0  0  0  0  0  0  0  0
   -0.7164  -15.8789   19.6969 H   0  0  0  0  0  0  0  0  0  0  0  0
   -1.0202  -18.3936   17.9564 H   0  0  0  0  0  0  0  0  0  0  0  0
    0.2049  -18.2532   19.2236 H   0  0  0  0  0  0  0  0  0  0  0  0
   -1.3420  -19.0166   20.8297 H   0  0  0  0  0  0  0  0  0  0  0  0
   -6.2486  -20.8840   19.8351 H   0  0  0  0  0  0  0  0  0  0  0  0
   -7.2447  -23.3326   19.8943 H   0  0  0  0  0  0  0  0  0  0  0  0
   -5.4097  -25.0785   20.6333 H   0  0  0  0  0  0  0  0  0  0  0  0
   -4.9902  -18.7288   22.2988 H   0  0  0  0  0  0  0  0  0  0  0  0
   -5.8826  -20.1548   22.0162 H   0  0  0  0  0  0  0  0  0  0  0  0
   -4.2500  -22.7362   23.6112 H   0  0  0  0  0  0  0  0  0  0  0  0
   -5.7966  -21.8733   23.7811 H   0  0  0  0  0  0  0  0  0  0  0  0
   -3.3181  -21.7008   25.6090 H   0  0  0  0  0  0  0  0  0  0  0  0
   -5.0075  -21.3364   26.0568 H   0  0  0  0  0  0  0  0  0  0  0  0
   -4.9734  -19.2360   24.8018 H   0  0  0  0  0  0  0  0  0  0  0  0
   -3.1853  -19.3461   24.8902 H   0  0  0  0  0  0  0  0  0  0  0  0
   -2.2516  -21.4672   22.5091 H   0  0  0  0  0  0  0  0  0  0  0  0
   -2.1488  -19.7243   22.6665 H   0  0  0  0  0  0  0  0  0  0  0  0
    2.2433  -12.9457   17.3415 H   0  0  0  0  0  0  0  0  0  0  0  0
    3.4318  -15.0396   16.1325 H   0  0  0  0  0  0  0  0  0  0  0  0
  1  2  1  0
  2  3  1  0
  3  4  1  0
  4  5  1  0
  5  6  2  0
  5  7  1  0
  7  8  1  0
  8  9  2  0
  9 10  1  0
 10 11  2  0
 11 12  1  0
  7 13  1  0
 13 14  1  0
 14 15  1  0
 15 16  1  0
 16 17  1  0
 14 18  1  0
  2 19  1  0
 19 20  2  0
 20 21  1  0
 21 22  2  0
 22 23  1  0
 18  7  1  0
 23 19  1  0
 12  8  1  0
 17 14  1  0
  1 24  1  0
  1 25  1  0
  1 26  1  0
  2 27  1  0
  3 28  1  0
  3 29  1  0
  4 30  1  0
  9 31  1  0
 10 32  1  0
 11 33  1  0
 13 34  1  0
 13 35  1  0
 15 36  1  0
 15 37  1  0
 16 38  1  0
 16 39  1  0
 17 40  1  0
 17 41  1  0
 18 42  1  0
 18 43  1  0
 21 44  1  0
 22 45  1  0
M  END
>  <Energy>  (969) 
105.38987694262907

>  <compound_id>  (969) 
23455

>  <target_id>  (969) 
1

>  <reference_id>  (969) 
88

>  <inspiration_ids>  (969) 
[120, 88]

>  <energy_score>  (969) 
-29.574183416724736

>  <distance_score>  (969) 
16.81301125218003

>  <path>  (969) 
/opt/xchem-fragalysis-2/maxwin/BulkDock/SCRATCH/511013/C23455-P88/C23455-P88.minimised.mol

>  <scratch_subdir>  (969) 
/opt/xchem-fragalysis-2/maxwin/BulkDock/SCRATCH/511013/C23455-P88

>  <fragmenstein_runtime>  (969) 
25.924954414367676

>  <fragmenstein_outcome>  (969) 
too moved

>  <fragmenstein_mode>  (969) 
expansion

>  <fragmenstein_error>  (969) 


$$$$
C23456-P120
     RDKit          3D

 45 48  0  0  0  0  0  0  0  0999 V2000
   -6.8169  -13.4350   27.0028 O   0  0  0  0  0  0  0  0  0  0  0  0
   -6.9959  -13.7669   25.8307 C   0  0  0  0  0  0  0  0  0  0  0  0
   -6.0630  -12.9536   24.3183 N   0  0  0  0  0  0  0  0  0  0  0  0
   -4.6910  -11.6962   24.2487 C   0  0  0  0  0  0  0  0  0  0  0  0
   -3.7394  -10.2351   23.0373 C   0  0  0  0  0  0  0  0  0  0  0  0
   -2.9049  -10.2140   21.4145 C   0  0  0  0  0  0  0  0  0  0  0  0
   -1.7573   -9.1897   21.1312 C   0  0  0  0  0  0  0  0  0  0  0  0
   -1.1395   -8.3583   21.9463 N   0  0  0  0  0  0  0  0  0  0  0  0
   -0.0650   -7.7324   21.3057 C   0  0  0  0  0  0  0  0  0  0  0  0
    0.1088   -8.0494   19.9784 C   0  0  0  0  0  0  0  0  0  0  0  0
   -1.1060   -9.1742   19.5105 S   0  0  0  0  0  0  0  0  0  0  0  0
   -8.3887  -15.3933   25.7348 C   0  0  0  0  0  0  0  0  0  0  0  0
   -9.1974  -15.7468   24.1375 C   0  0  0  0  0  0  0  0  0  0  0  0
   -8.6808  -16.3912   23.0319 C   0  0  0  0  0  0  0  0  0  0  0  0
   -9.5219  -16.4134   21.8832 C   0  0  0  0  0  0  0  0  0  0  0  0
  -10.6963  -15.7486   22.1080 C   0  0  0  0  0  0  0  0  0  0  0  0
  -10.8607  -15.3333   23.7462 S   0  0  0  0  0  0  0  0  0  0  0  0
   -8.3236  -16.6404   27.1509 C   0  0  0  0  0  0  0  0  0  0  0  0
   -9.9517  -17.6479   27.0596 C   0  0  0  0  0  0  0  0  0  0  0  0
   -8.9821  -19.0142   28.0294 C   0  0  0  0  0  0  0  0  0  0  0  0
  -10.3465  -20.4038   28.9964 C   0  0  0  0  0  0  0  0  0  0  0  0
  -11.1591  -18.4463   28.6314 C   0  0  0  0  0  0  0  0  0  0  0  0
   -9.9959  -15.7024   26.7434 C   0  0  0  0  0  0  0  0  0  0  0  0
   -6.3054  -13.4451   23.4615 H   0  0  0  0  0  0  0  0  0  0  0  0
   -3.8415  -12.2948   24.5261 H   0  0  0  0  0  0  0  0  0  0  0  0
   -5.5310  -11.8822   23.4952 H   0  0  0  0  0  0  0  0  0  0  0  0
   -4.1547   -9.2760   22.6872 H   0  0  0  0  0  0  0  0  0  0  0  0
   -3.0534   -9.7360   23.7476 H   0  0  0  0  0  0  0  0  0  0  0  0
   -3.6886  -10.0190   20.6768 H   0  0  0  0  0  0  0  0  0  0  0  0
   -2.5027  -11.1958   21.1498 H   0  0  0  0  0  0  0  0  0  0  0  0
    0.5595   -7.0578   21.8769 H   0  0  0  0  0  0  0  0  0  0  0  0
    0.8658   -7.7040   19.2907 H   0  0  0  0  0  0  0  0  0  0  0  0
   -7.7357  -16.9032   23.0280 H   0  0  0  0  0  0  0  0  0  0  0  0
   -9.2599  -16.8748   20.9380 H   0  0  0  0  0  0  0  0  0  0  0  0
  -11.5058  -15.5756   21.4101 H   0  0  0  0  0  0  0  0  0  0  0  0
   -7.4789  -17.2698   27.4452 H   0  0  0  0  0  0  0  0  0  0  0  0
   -8.0157  -15.9679   27.9619 H   0  0  0  0  0  0  0  0  0  0  0  0
   -8.0052  -19.3870   27.8615 H   0  0  0  0  0  0  0  0  0  0  0  0
   -8.3676  -18.3624   28.6736 H   0  0  0  0  0  0  0  0  0  0  0  0
  -10.6270  -21.3482   28.4293 H   0  0  0  0  0  0  0  0  0  0  0  0
  -10.3018  -20.8958   29.9975 H   0  0  0  0  0  0  0  0  0  0  0  0
  -12.1903  -18.5190   28.3946 H   0  0  0  0  0  0  0  0  0  0  0  0
  -11.5236  -17.8383   29.4510 H   0  0  0  0  0  0  0  0  0  0  0  0
  -10.1181  -14.9009   27.4950 H   0  0  0  0  0  0  0  0  0  0  0  0
  -10.9052  -15.4025   26.2203 H   0  0  0  0  0  0  0  0  0  0  0  0
  1  2  2  0
  2  3  1  0
  3  4  1  0
  4  5  1  0
  5  6  1  0
  6  7  1  0
  7  8  2  0
  8  9  1  0
  9 10  2  0
 10 11  1  0
  2 12  1  0
 12 13  1  0
 13 14  2  0
 14 15  1  0
 15 16  2  0
 16 17  1  0
 12 18  1  0
 18 19  1  0
 19 20  1  0
 20 21  1  0
 21 22  1  0
 19 23  1  0
 11  7  1  0
 23 12  1  0
 17 13  1  0
 22 19  1  0
  3 24  1  0
  4 25  1  0
  4 26  1  0
  5 27  1  0
  5 28  1  0
  6 29  1  0
  6 30  1  0
  9 31  1  0
 10 32  1  0
 14 33  1  0
 15 34  1  0
 16 35  1  0
 18 36  1  0
 18 37  1  0
 20 38  1  0
 20 39  1  0
 21 40  1  0
 21 41  1  0
 22 42  1  0
 22 43  1  0
 23 44  1  0
 23 45  1  0
M  END
>  <Energy>  (970) 
1061.1522315365391

>  <compound_id>  (970) 
23456

>  <target_id>  (970) 
1

>  <reference_id>  (970) 
120

>  <inspiration_ids>  (970) 
[120, 88]

>  <energy_score>  (970) 
925.4753574209768

>  <distance_score>  (970) 
15.157329587429615

>  <path>  (970) 
/opt/xchem-fragalysis-2/maxwin/BulkDock/SCRATCH/511013/C23456-P120/C23456-P120.minimised.mol

>  <scratch_subdir>  (970) 
/opt/xchem-fragalysis-2/maxwin/BulkDock/SCRATCH/511013/C23456-P120

>  <fragmenstein_runtime>  (970) 
12.35468864440918

>  <fragmenstein_outcome>  (970) 
too moved

>  <fragmenstein_mode>  (970) 
expansion

>  <fragmenstein_error>  (970) 


$$$$
C23456-P88
     RDKit          3D

 45 48  0  0  0  0  0  0  0  0999 V2000
   -8.6748   -8.4694   20.1486 O   0  0  0  0  0  0  0  0  0  0  0  0
   -7.7461   -9.2124   20.3936 C   0  0  0  0  0  0  0  0  0  0  0  0
   -6.2608   -9.0362   20.1521 N   0  0  0  0  0  0  0  0  0  0  0  0
   -5.4733   -7.9024   19.4256 C   0  0  0  0  0  0  0  0  0  0  0  0
   -3.8235   -7.6864   19.5088 C   0  0  0  0  0  0  0  0  0  0  0  0
   -3.1952   -6.5013   18.6426 C   0  0  0  0  0  0  0  0  0  0  0  0
   -1.6775   -6.2273   18.7109 C   0  0  0  0  0  0  0  0  0  0  0  0
   -0.8291   -6.4021   17.7076 N   0  0  0  0  0  0  0  0  0  0  0  0
    0.4246   -5.8805   18.0114 C   0  0  0  0  0  0  0  0  0  0  0  0
    0.5308   -5.3039   19.2556 C   0  0  0  0  0  0  0  0  0  0  0  0
   -0.9827   -5.4352   20.0795 S   0  0  0  0  0  0  0  0  0  0  0  0
   -8.3015  -10.7450   21.1298 C   0  0  0  0  0  0  0  0  0  0  0  0
   -8.9313  -11.8262   20.0413 C   0  0  0  0  0  0  0  0  0  0  0  0
   -8.1483  -12.6910   19.3099 C   0  0  0  0  0  0  0  0  0  0  0  0
   -8.8702  -13.8517   18.8901 C   0  0  0  0  0  0  0  0  0  0  0  0
  -10.2137  -13.7522   19.1748 C   0  0  0  0  0  0  0  0  0  0  0  0
  -10.5915  -12.2303   19.8682 S   0  0  0  0  0  0  0  0  0  0  0  0
   -7.5285  -11.5722   22.2323 C   0  0  0  0  0  0  0  0  0  0  0  0
   -8.8285  -11.8250   22.9935 C   0  0  0  0  0  0  0  0  0  0  0  0
   -8.8843  -12.0381   24.4932 C   0  0  0  0  0  0  0  0  0  0  0  0
   -9.3385  -13.4891   24.2599 C   0  0  0  0  0  0  0  0  0  0  0  0
   -9.5911  -13.1289   22.7893 C   0  0  0  0  0  0  0  0  0  0  0  0
   -9.3631  -10.5396   22.3743 C   0  0  0  0  0  0  0  0  0  0  0  0
   -5.7776   -9.8954   20.4047 H   0  0  0  0  0  0  0  0  0  0  0  0
   -5.7234   -8.0366   18.3670 H   0  0  0  0  0  0  0  0  0  0  0  0
   -5.9493   -6.9703   19.7498 H   0  0  0  0  0  0  0  0  0  0  0  0
   -3.3533   -8.6284   19.2074 H   0  0  0  0  0  0  0  0  0  0  0  0
   -3.5954   -7.5144   20.5641 H   0  0  0  0  0  0  0  0  0  0  0  0
   -3.7209   -5.5761   18.9112 H   0  0  0  0  0  0  0  0  0  0  0  0
   -3.4445   -6.7008   17.5925 H   0  0  0  0  0  0  0  0  0  0  0  0
    1.2188   -5.9540   17.2789 H   0  0  0  0  0  0  0  0  0  0  0  0
    1.3872   -4.8387   19.7207 H   0  0  0  0  0  0  0  0  0  0  0  0
   -7.0955  -12.5294   19.1498 H   0  0  0  0  0  0  0  0  0  0  0  0
   -8.4339  -14.7000   18.3756 H   0  0  0  0  0  0  0  0  0  0  0  0
  -10.9983  -14.4604   18.9459 H   0  0  0  0  0  0  0  0  0  0  0  0
   -7.0259  -12.4648   21.8704 H   0  0  0  0  0  0  0  0  0  0  0  0
   -6.8174  -10.9370   22.7418 H   0  0  0  0  0  0  0  0  0  0  0  0
   -7.9527  -11.9638   25.0495 H   0  0  0  0  0  0  0  0  0  0  0  0
   -9.6573  -11.4464   24.9964 H   0  0  0  0  0  0  0  0  0  0  0  0
  -10.2218  -13.7987   24.8255 H   0  0  0  0  0  0  0  0  0  0  0  0
   -8.5621  -14.2405   24.3830 H   0  0  0  0  0  0  0  0  0  0  0  0
  -10.6631  -13.0180   22.5969 H   0  0  0  0  0  0  0  0  0  0  0  0
   -9.1635  -13.8592   22.0984 H   0  0  0  0  0  0  0  0  0  0  0  0
   -9.1426   -9.6380   22.9618 H   0  0  0  0  0  0  0  0  0  0  0  0
  -10.4279  -10.5090   22.1317 H   0  0  0  0  0  0  0  0  0  0  0  0
  1  2  2  0
  2  3  1  0
  3  4  1  0
  4  5  1  0
  5  6  1  0
  6  7  1  0
  7  8  2  0
  8  9  1  0
  9 10  2  0
 10 11  1  0
  2 12  1  0
 12 13  1  0
 13 14  2  0
 14 15  1  0
 15 16  2  0
 16 17  1  0
 12 18  1  0
 18 19  1  0
 19 20  1  0
 20 21  1  0
 21 22  1  0
 19 23  1  0
 11  7  1  0
 23 12  1  0
 17 13  1  0
 22 19  1  0
  3 24  1  0
  4 25  1  0
  4 26  1  0
  5 27  1  0
  5 28  1  0
  6 29  1  0
  6 30  1  0
  9 31  1  0
 10 32  1  0
 14 33  1  0
 15 34  1  0
 16 35  1  0
 18 36  1  0
 18 37  1  0
 20 38  1  0
 20 39  1  0
 21 40  1  0
 21 41  1  0
 22 42  1  0
 22 43  1  0
 23 44  1  0
 23 45  1  0
M  END
>  <Energy>  (971) 
99.758600383474828

>  <compound_id>  (971) 
23456

>  <target_id>  (971) 
1

>  <reference_id>  (971) 
88

>  <inspiration_ids>  (971) 
[120, 88]

>  <energy_score>  (971) 
-35.91827373208554

>  <distance_score>  (971) 
16.666077298023364

>  <path>  (971) 
/opt/xchem-fragalysis-2/maxwin/BulkDock/SCRATCH/511013/C23456-P88/C23456-P88.minimised.mol

>  <scratch_subdir>  (971) 
/opt/xchem-fragalysis-2/maxwin/BulkDock/SCRATCH/511013/C23456-P88

>  <fragmenstein_runtime>  (971) 
27.219499349594116

>  <fragmenstein_outcome>  (971) 
too moved

>  <fragmenstein_mode>  (971) 
expansion

>  <fragmenstein_error>  (971) 


$$$$
C23458-P120
     RDKit          3D

 34 36  0  0  0  0  0  0  0  0999 V2000
    3.2652  -10.1258   16.8617 C   0  0  0  0  0  0  0  0  0  0  0  0
    1.8364   -9.1422   17.8190 C   0  0  0  0  0  0  0  0  0  0  0  0
    1.4368   -9.0267   19.6848 C   0  0  0  0  0  0  0  0  0  0  0  0
    0.8540  -10.5459   20.9902 N   0  0  0  0  0  0  0  0  0  0  0  0
   -0.5384  -10.9212   21.7655 C   0  0  0  0  0  0  0  0  0  0  0  0
   -1.5668  -10.2664   21.7918 O   0  0  0  0  0  0  0  0  0  0  0  0
   -0.3016  -12.8537   22.6076 C   0  0  0  0  0  0  0  0  0  0  0  0
    0.5169  -14.1153   23.7004 C   0  0  0  0  0  0  0  0  0  0  0  0
   -0.2056  -15.4168   24.5488 S   0  0  0  0  0  0  0  0  0  0  0  0
   -1.1235  -15.6120   23.1755 C   0  0  0  0  0  0  0  0  0  0  0  0
   -2.2549  -16.5436   23.2934 C   0  0  0  0  0  0  0  0  0  0  0  0
   -3.2572  -16.4894   24.2712 C   0  0  0  0  0  0  0  0  0  0  0  0
   -4.0929  -17.6467   24.3202 C   0  0  0  0  0  0  0  0  0  0  0  0
   -3.7239  -18.5575   23.3605 C   0  0  0  0  0  0  0  0  0  0  0  0
   -2.4015  -18.0002   22.4095 S   0  0  0  0  0  0  0  0  0  0  0  0
   -0.7671  -14.6633   22.2671 N   0  0  0  0  0  0  0  0  0  0  0  0
    3.1792   -8.8972   18.5194 C   0  0  0  0  0  0  0  0  0  0  0  0
    4.7726   -9.0080   18.7354 N   0  0  0  0  0  0  0  0  0  0  0  0
    5.8537   -9.1420   17.7504 C   0  0  0  0  0  0  0  0  0  0  0  0
    5.5380   -8.4290   16.6637 C   0  0  0  0  0  0  0  0  0  0  0  0
    4.4703   -7.4422   17.4945 S   0  0  0  0  0  0  0  0  0  0  0  0
    3.5386   -9.6918   15.8772 H   0  0  0  0  0  0  0  0  0  0  0  0
    4.2650  -10.3597   17.1650 H   0  0  0  0  0  0  0  0  0  0  0  0
    3.0224  -11.1388   16.8995 H   0  0  0  0  0  0  0  0  0  0  0  0
    1.9125   -8.1384   17.3318 H   0  0  0  0  0  0  0  0  0  0  0  0
    0.8240   -9.0664   17.4704 H   0  0  0  0  0  0  0  0  0  0  0  0
    0.7188   -8.2017   19.7084 H   0  0  0  0  0  0  0  0  0  0  0  0
    1.4046  -11.2194   21.0673 H   0  0  0  0  0  0  0  0  0  0  0  0
    1.4725  -13.8721   24.1966 H   0  0  0  0  0  0  0  0  0  0  0  0
   -3.3517  -15.6659   24.9710 H   0  0  0  0  0  0  0  0  0  0  0  0
   -4.9003  -17.8009   25.0268 H   0  0  0  0  0  0  0  0  0  0  0  0
   -4.1600  -19.5253   23.1544 H   0  0  0  0  0  0  0  0  0  0  0  0
    6.7276   -9.7418   17.9675 H   0  0  0  0  0  0  0  0  0  0  0  0
    6.0937   -8.2225   15.7614 H   0  0  0  0  0  0  0  0  0  0  0  0
  1  2  1  0
  2  3  1  0
  3  4  1  0
  4  5  1  0
  5  6  2  0
  5  7  1  0
  7  8  2  0
  8  9  1  0
  9 10  1  0
 10 11  1  0
 11 12  2  0
 12 13  1  0
 13 14  2  0
 14 15  1  0
 10 16  2  0
  3 17  1  0
 17 18  2  0
 18 19  1  0
 19 20  2  0
 20 21  1  0
 16  7  1  0
 21 17  1  0
 15 11  1  0
  1 22  1  0
  1 23  1  0
  1 24  1  0
  2 25  1  0
  2 26  1  0
  3 27  1  0
  4 28  1  0
  8 29  1  0
 12 30  1  0
 13 31  1  0
 14 32  1  0
 19 33  1  0
 20 34  1  0
M  END
>  <Energy>  (972) 
1211.9345765866408

>  <compound_id>  (972) 
23458

>  <target_id>  (972) 
1

>  <reference_id>  (972) 
120

>  <inspiration_ids>  (972) 
[120, 88]

>  <energy_score>  (972) 
1081.7711006628942

>  <distance_score>  (972) 
15.023734404844049

>  <path>  (972) 
/opt/xchem-fragalysis-2/maxwin/BulkDock/SCRATCH/511013/C23458-P120/C23458-P120.minimised.mol

>  <scratch_subdir>  (972) 
/opt/xchem-fragalysis-2/maxwin/BulkDock/SCRATCH/511013/C23458-P120

>  <fragmenstein_runtime>  (972) 
7.482729196548462

>  <fragmenstein_outcome>  (972) 
too moved

>  <fragmenstein_mode>  (972) 
expansion

>  <fragmenstein_error>  (972) 


$$$$
C23458-P88
     RDKit          3D

 34 36  0  0  0  0  0  0  0  0999 V2000
    7.0569   -9.6319   17.5126 C   0  0  0  0  0  0  0  0  0  0  0  0
    6.1491  -10.4407   18.5126 C   0  0  0  0  0  0  0  0  0  0  0  0
    4.4714  -11.1710   18.3728 C   0  0  0  0  0  0  0  0  0  0  0  0
    4.3822  -12.7383   19.1277 N   0  0  0  0  0  0  0  0  0  0  0  0
    3.5881  -13.3732   20.9823 C   0  0  0  0  0  0  0  0  0  0  0  0
    2.9803  -12.5372   21.6787 O   0  0  0  0  0  0  0  0  0  0  0  0
    3.7749  -14.9985   21.9752 C   0  0  0  0  0  0  0  0  0  0  0  0
    4.4164  -14.8665   23.2054 C   0  0  0  0  0  0  0  0  0  0  0  0
    3.9767  -16.2040   24.3570 S   0  0  0  0  0  0  0  0  0  0  0  0
    3.4845  -17.1962   23.1102 C   0  0  0  0  0  0  0  0  0  0  0  0
    2.5191  -18.3053   23.4040 C   0  0  0  0  0  0  0  0  0  0  0  0
    1.6519  -18.9746   22.5484 C   0  0  0  0  0  0  0  0  0  0  0  0
    0.6709  -19.7924   23.2157 C   0  0  0  0  0  0  0  0  0  0  0  0
    0.8305  -19.7916   24.5793 C   0  0  0  0  0  0  0  0  0  0  0  0
    2.1611  -18.8311   25.0441 S   0  0  0  0  0  0  0  0  0  0  0  0
    3.8202  -16.5807   21.9589 N   0  0  0  0  0  0  0  0  0  0  0  0
    4.7213  -11.3451   16.7840 C   0  0  0  0  0  0  0  0  0  0  0  0
    5.1217  -10.3220   16.0152 N   0  0  0  0  0  0  0  0  0  0  0  0
    5.4992  -10.7170   14.7544 C   0  0  0  0  0  0  0  0  0  0  0  0
    5.4271  -12.0684   14.5466 C   0  0  0  0  0  0  0  0  0  0  0  0
    4.8040  -12.8532   15.9482 S   0  0  0  0  0  0  0  0  0  0  0  0
    7.9010   -9.2146   18.0756 H   0  0  0  0  0  0  0  0  0  0  0  0
    7.5103  -10.3088   16.7785 H   0  0  0  0  0  0  0  0  0  0  0  0
    6.5896   -8.8129   16.9752 H   0  0  0  0  0  0  0  0  0  0  0  0
    6.2190   -9.8943   19.4565 H   0  0  0  0  0  0  0  0  0  0  0  0
    6.7633  -11.3440   18.5350 H   0  0  0  0  0  0  0  0  0  0  0  0
    3.7428  -10.5097   18.7845 H   0  0  0  0  0  0  0  0  0  0  0  0
    4.7396  -13.5189   18.6435 H   0  0  0  0  0  0  0  0  0  0  0  0
    4.7478  -13.9119   23.5624 H   0  0  0  0  0  0  0  0  0  0  0  0
    1.6756  -18.8294   21.4743 H   0  0  0  0  0  0  0  0  0  0  0  0
   -0.1043  -20.3497   22.7033 H   0  0  0  0  0  0  0  0  0  0  0  0
    0.2457  -20.3193   25.3203 H   0  0  0  0  0  0  0  0  0  0  0  0
    5.8265   -9.9792   14.0337 H   0  0  0  0  0  0  0  0  0  0  0  0
    5.6716  -12.6299   13.6575 H   0  0  0  0  0  0  0  0  0  0  0  0
  1  2  1  0
  2  3  1  0
  3  4  1  0
  4  5  1  0
  5  6  2  0
  5  7  1  0
  7  8  2  0
  8  9  1  0
  9 10  1  0
 10 11  1  0
 11 12  2  0
 12 13  1  0
 13 14  2  0
 14 15  1  0
 10 16  2  0
  3 17  1  0
 17 18  2  0
 18 19  1  0
 19 20  2  0
 20 21  1  0
 16  7  1  0
 21 17  1  0
 15 11  1  0
  1 22  1  0
  1 23  1  0
  1 24  1  0
  2 25  1  0
  2 26  1  0
  3 27  1  0
  4 28  1  0
  8 29  1  0
 12 30  1  0
 13 31  1  0
 14 32  1  0
 19 33  1  0
 20 34  1  0
M  END
>  <Energy>  (973) 
457.00759839041638

>  <compound_id>  (973) 
23458

>  <target_id>  (973) 
1

>  <reference_id>  (973) 
88

>  <inspiration_ids>  (973) 
[120, 88]

>  <energy_score>  (973) 
326.84412246666363

>  <distance_score>  (973) 
16.529700418889707

>  <path>  (973) 
/opt/xchem-fragalysis-2/maxwin/BulkDock/SCRATCH/511013/C23458-P88/C23458-P88.minimised.mol

>  <scratch_subdir>  (973) 
/opt/xchem-fragalysis-2/maxwin/BulkDock/SCRATCH/511013/C23458-P88

>  <fragmenstein_runtime>  (973) 
9.464754104614258

>  <fragmenstein_outcome>  (973) 
too moved

>  <fragmenstein_mode>  (973) 
expansion

>  <fragmenstein_error>  (973) 


$$$$
C23459-P120
     RDKit          3D

 43 46  0  0  0  0  0  0  0  0999 V2000
    3.6118  -15.2912   20.0870 C   0  0  0  0  0  0  0  0  0  0  0  0
    4.3915  -15.0699   21.3898 C   0  0  0  0  0  0  0  0  0  0  0  0
    4.6285  -16.5131   22.1113 C   0  0  0  0  0  0  0  0  0  0  0  0
    3.4349  -17.4566   22.3731 N   0  0  0  0  0  0  0  0  0  0  0  0
    3.2743  -18.5901   23.3432 C   0  0  0  0  0  0  0  0  0  0  0  0
    4.0099  -18.9881   24.2084 O   0  0  0  0  0  0  0  0  0  0  0  0
    1.9008  -19.4147   23.3165 C   0  0  0  0  0  0  0  0  0  0  0  0
    1.2159  -19.7714   24.5446 C   0  0  0  0  0  0  0  0  0  0  0  0
   -0.0821  -20.3229   24.5153 C   0  0  0  0  0  0  0  0  0  0  0  0
   -1.0108  -20.6954   25.6263 C   0  0  0  0  0  0  0  0  0  0  0  0
   -2.3659  -21.0189   25.5040 C   0  0  0  0  0  0  0  0  0  0  0  0
   -2.9800  -21.4407   26.7156 C   0  0  0  0  0  0  0  0  0  0  0  0
   -2.0887  -21.3967   27.7592 C   0  0  0  0  0  0  0  0  0  0  0  0
   -0.5366  -20.8532   27.2620 S   0  0  0  0  0  0  0  0  0  0  0  0
   -0.6770  -20.5816   23.3371 N   0  0  0  0  0  0  0  0  0  0  0  0
   -0.0289  -20.3642   22.2014 C   0  0  0  0  0  0  0  0  0  0  0  0
   -0.7087  -20.7334   21.0568 C   0  0  0  0  0  0  0  0  0  0  0  0
   -0.1329  -20.5845   19.7945 C   0  0  0  0  0  0  0  0  0  0  0  0
    1.1509  -20.0684   19.6780 C   0  0  0  0  0  0  0  0  0  0  0  0
    1.8500  -19.6857   20.8237 C   0  0  0  0  0  0  0  0  0  0  0  0
    1.2708  -19.7989   22.1112 C   0  0  0  0  0  0  0  0  0  0  0  0
    5.6127  -14.1431   21.0707 C   0  0  0  0  0  0  0  0  0  0  0  0
    5.5062  -12.8359   20.8383 N   0  0  0  0  0  0  0  0  0  0  0  0
    6.7188  -12.2865   20.4436 C   0  0  0  0  0  0  0  0  0  0  0  0
    7.7638  -13.1771   20.3796 C   0  0  0  0  0  0  0  0  0  0  0  0
    7.2095  -14.7516   20.8367 S   0  0  0  0  0  0  0  0  0  0  0  0
    3.4005  -14.3413   19.5835 H   0  0  0  0  0  0  0  0  0  0  0  0
    4.1816  -15.9154   19.3898 H   0  0  0  0  0  0  0  0  0  0  0  0
    2.6517  -15.7809   20.2753 H   0  0  0  0  0  0  0  0  0  0  0  0
    3.7593  -14.5003   22.0803 H   0  0  0  0  0  0  0  0  0  0  0  0
    5.1148  -16.3570   23.0805 H   0  0  0  0  0  0  0  0  0  0  0  0
    5.3160  -17.1072   21.4987 H   0  0  0  0  0  0  0  0  0  0  0  0
    2.5819  -17.3528   21.8378 H   0  0  0  0  0  0  0  0  0  0  0  0
    1.6994  -19.5557   25.4935 H   0  0  0  0  0  0  0  0  0  0  0  0
   -2.8833  -20.9868   24.5513 H   0  0  0  0  0  0  0  0  0  0  0  0
   -4.0099  -21.7605   26.8004 H   0  0  0  0  0  0  0  0  0  0  0  0
   -2.2577  -21.6538   28.7956 H   0  0  0  0  0  0  0  0  0  0  0  0
   -1.7068  -21.1575   21.1400 H   0  0  0  0  0  0  0  0  0  0  0  0
   -0.6839  -20.8884   18.9080 H   0  0  0  0  0  0  0  0  0  0  0  0
    1.6143  -19.9737   18.6988 H   0  0  0  0  0  0  0  0  0  0  0  0
    2.8693  -19.3273   20.6967 H   0  0  0  0  0  0  0  0  0  0  0  0
    6.7723  -11.2295   20.2154 H   0  0  0  0  0  0  0  0  0  0  0  0
    8.7930  -13.0021   20.1031 H   0  0  0  0  0  0  0  0  0  0  0  0
  1  2  1  0
  2  3  1  0
  3  4  1  0
  4  5  1  0
  5  6  2  0
  5  7  1  0
  7  8  2  0
  8  9  1  0
  9 10  1  0
 10 11  2  0
 11 12  1  0
 12 13  2  0
 13 14  1  0
  9 15  2  0
 15 16  1  0
 16 17  2  0
 17 18  1  0
 18 19  2  0
 19 20  1  0
 20 21  2  0
  2 22  1  0
 22 23  2  0
 23 24  1  0
 24 25  2  0
 25 26  1  0
 21  7  1  0
 26 22  1  0
 14 10  1  0
 21 16  1  0
  1 27  1  0
  1 28  1  0
  1 29  1  0
  2 30  1  0
  3 31  1  0
  3 32  1  0
  4 33  1  0
  8 34  1  0
 11 35  1  0
 12 36  1  0
 13 37  1  0
 17 38  1  0
 18 39  1  0
 19 40  1  0
 20 41  1  0
 24 42  1  0
 25 43  1  0
M  END
>  <Energy>  (974) 
68.524491515229386

>  <compound_id>  (974) 
23459

>  <target_id>  (974) 
1

>  <reference_id>  (974) 
120

>  <inspiration_ids>  (974) 
[120, 88]

>  <energy_score>  (974) 
-65.45092876542844

>  <distance_score>  (974) 
16.11045965669537

>  <path>  (974) 
/opt/xchem-fragalysis-2/maxwin/BulkDock/SCRATCH/511013/C23459-P120/C23459-P120.minimised.mol

>  <scratch_subdir>  (974) 
/opt/xchem-fragalysis-2/maxwin/BulkDock/SCRATCH/511013/C23459-P120

>  <fragmenstein_runtime>  (974) 
10.42160177230835

>  <fragmenstein_outcome>  (974) 
too moved

>  <fragmenstein_mode>  (974) 
expansion

>  <fragmenstein_error>  (974) 


$$$$
C23459-P88
     RDKit          3D

 43 46  0  0  0  0  0  0  0  0999 V2000
    5.1184   -7.5825   26.4911 C   0  0  0  0  0  0  0  0  0  0  0  0
    4.1040   -7.3555   25.3483 C   0  0  0  0  0  0  0  0  0  0  0  0
    2.2520   -7.6990   25.7384 C   0  0  0  0  0  0  0  0  0  0  0  0
    1.0898   -8.5783   26.3453 N   0  0  0  0  0  0  0  0  0  0  0  0
    0.7740   -9.1565   27.9383 C   0  0  0  0  0  0  0  0  0  0  0  0
    1.5554   -8.7106   28.6930 O   0  0  0  0  0  0  0  0  0  0  0  0
   -0.4878  -10.6556   29.0220 C   0  0  0  0  0  0  0  0  0  0  0  0
   -1.4117  -12.2222   28.3978 C   0  0  0  0  0  0  0  0  0  0  0  0
   -2.8548  -13.1693   29.0185 C   0  0  0  0  0  0  0  0  0  0  0  0
   -4.1491  -14.4094   28.6518 C   0  0  0  0  0  0  0  0  0  0  0  0
   -4.4994  -15.1409   27.4666 C   0  0  0  0  0  0  0  0  0  0  0  0
   -5.7020  -15.8866   27.4567 C   0  0  0  0  0  0  0  0  0  0  0  0
   -6.3436  -15.6747   28.6280 C   0  0  0  0  0  0  0  0  0  0  0  0
   -5.3481  -15.0289   29.8333 S   0  0  0  0  0  0  0  0  0  0  0  0
   -2.8687  -13.0974   30.4153 N   0  0  0  0  0  0  0  0  0  0  0  0
   -2.2348  -12.3132   31.2842 C   0  0  0  0  0  0  0  0  0  0  0  0
   -3.0985  -13.2357   32.2086 C   0  0  0  0  0  0  0  0  0  0  0  0
   -2.9800  -14.6499   31.9627 C   0  0  0  0  0  0  0  0  0  0  0  0
   -1.9135  -14.7843   30.9199 C   0  0  0  0  0  0  0  0  0  0  0  0
   -0.8539  -13.3135   30.1406 C   0  0  0  0  0  0  0  0  0  0  0  0
   -0.9635  -11.7489   30.2626 C   0  0  0  0  0  0  0  0  0  0  0  0
    4.6305   -6.0531   24.5642 C   0  0  0  0  0  0  0  0  0  0  0  0
    4.8347   -6.0259   23.2518 N   0  0  0  0  0  0  0  0  0  0  0  0
    5.5425   -4.8974   22.8576 C   0  0  0  0  0  0  0  0  0  0  0  0
    5.8570   -4.0257   23.8711 C   0  0  0  0  0  0  0  0  0  0  0  0
    5.2495   -4.6353   25.3646 S   0  0  0  0  0  0  0  0  0  0  0  0
    6.1243   -7.2358   26.2220 H   0  0  0  0  0  0  0  0  0  0  0  0
    5.2656   -8.6492   26.6670 H   0  0  0  0  0  0  0  0  0  0  0  0
    4.8343   -7.0551   27.4041 H   0  0  0  0  0  0  0  0  0  0  0  0
    4.4123   -8.1244   24.6442 H   0  0  0  0  0  0  0  0  0  0  0  0
    2.4179   -7.1470   26.5903 H   0  0  0  0  0  0  0  0  0  0  0  0
    2.7608   -8.5100   26.2571 H   0  0  0  0  0  0  0  0  0  0  0  0
    0.3431   -8.9199   25.7645 H   0  0  0  0  0  0  0  0  0  0  0  0
   -1.2159  -12.6833   27.4073 H   0  0  0  0  0  0  0  0  0  0  0  0
   -3.8361  -15.1499   26.6114 H   0  0  0  0  0  0  0  0  0  0  0  0
   -6.1023  -16.4330   26.6145 H   0  0  0  0  0  0  0  0  0  0  0  0
   -7.3351  -15.9655   28.8521 H   0  0  0  0  0  0  0  0  0  0  0  0
   -3.7257  -12.8064   32.9779 H   0  0  0  0  0  0  0  0  0  0  0  0
   -3.4802  -15.4521   32.4711 H   0  0  0  0  0  0  0  0  0  0  0  0
   -1.5316  -15.7837   30.7601 H   0  0  0  0  0  0  0  0  0  0  0  0
    0.0275  -13.6817   29.5338 H   0  0  0  0  0  0  0  0  0  0  0  0
    5.7964   -4.7681   21.8124 H   0  0  0  0  0  0  0  0  0  0  0  0
    6.3929   -3.0888   23.8208 H   0  0  0  0  0  0  0  0  0  0  0  0
  1  2  1  0
  2  3  1  0
  3  4  1  0
  4  5  1  0
  5  6  2  0
  5  7  1  0
  7  8  2  0
  8  9  1  0
  9 10  1  0
 10 11  2  0
 11 12  1  0
 12 13  2  0
 13 14  1  0
  9 15  2  0
 15 16  1  0
 16 17  2  0
 17 18  1  0
 18 19  2  0
 19 20  1  0
 20 21  2  0
  2 22  1  0
 22 23  2  0
 23 24  1  0
 24 25  2  0
 25 26  1  0
 21  7  1  0
 26 22  1  0
 14 10  1  0
 21 16  1  0
  1 27  1  0
  1 28  1  0
  1 29  1  0
  2 30  1  0
  3 31  1  0
  3 32  1  0
  4 33  1  0
  8 34  1  0
 11 35  1  0
 12 36  1  0
 13 37  1  0
 17 38  1  0
 18 39  1  0
 19 40  1  0
 20 41  1  0
 24 42  1  0
 25 43  1  0
M  END
>  <Energy>  (975) 
1296.9403461405773

>  <compound_id>  (975) 
23459

>  <target_id>  (975) 
1

>  <reference_id>  (975) 
88

>  <inspiration_ids>  (975) 
[120, 88]

>  <energy_score>  (975) 
1162.9649258599184

>  <distance_score>  (975) 
14.451289869577272

>  <path>  (975) 
/opt/xchem-fragalysis-2/maxwin/BulkDock/SCRATCH/511013/C23459-P88/C23459-P88.minimised.mol

>  <scratch_subdir>  (975) 
/opt/xchem-fragalysis-2/maxwin/BulkDock/SCRATCH/511013/C23459-P88

>  <fragmenstein_runtime>  (975) 
16.322296857833862

>  <fragmenstein_outcome>  (975) 
too moved

>  <fragmenstein_mode>  (975) 
expansion

>  <fragmenstein_error>  (975) 


$$$$
C23464-P120
     RDKit          3D

 35 37  0  0  0  0  0  0  0  0999 V2000
    1.7638  -11.1350   25.9247 O   0  0  0  0  0  0  0  0  0  0  0  0
    1.2952  -11.8456   25.0634 C   0  0  0  0  0  0  0  0  0  0  0  0
    0.8027  -11.4486   23.1318 N   0  0  0  0  0  0  0  0  0  0  0  0
    0.7677   -9.7207   22.0306 C   0  0  0  0  0  0  0  0  0  0  0  0
    2.2678   -8.4372   22.6284 C   0  0  0  0  0  0  0  0  0  0  0  0
    4.2557   -7.9898   23.1506 C   0  0  0  0  0  0  0  0  0  0  0  0
    5.5754   -8.0918   24.6350 C   0  0  0  0  0  0  0  0  0  0  0  0
    5.5025   -8.5612   25.8728 N   0  0  0  0  0  0  0  0  0  0  0  0
    6.6909   -8.8746   26.5621 C   0  0  0  0  0  0  0  0  0  0  0  0
    7.8823   -8.6504   25.9505 C   0  0  0  0  0  0  0  0  0  0  0  0
    7.6523   -8.0138   24.4157 S   0  0  0  0  0  0  0  0  0  0  0  0
    0.8405  -13.5176   25.8113 C   0  0  0  0  0  0  0  0  0  0  0  0
   -0.0820  -14.5024   25.2180 C   0  0  0  0  0  0  0  0  0  0  0  0
   -0.8299  -15.2317   26.1360 C   0  0  0  0  0  0  0  0  0  0  0  0
   -0.6270  -14.6637   27.3673 C   0  0  0  0  0  0  0  0  0  0  0  0
   -1.4796  -15.0807   28.4883 C   0  0  0  0  0  0  0  0  0  0  0  0
   -2.2228  -14.3034   29.3561 C   0  0  0  0  0  0  0  0  0  0  0  0
   -3.1967  -15.0575   30.0981 C   0  0  0  0  0  0  0  0  0  0  0  0
   -3.1480  -16.4037   29.8192 C   0  0  0  0  0  0  0  0  0  0  0  0
   -1.9093  -16.7630   28.7014 S   0  0  0  0  0  0  0  0  0  0  0  0
    0.3196  -13.5952   27.2274 O   0  0  0  0  0  0  0  0  0  0  0  0
    0.3644  -12.1825   22.7052 H   0  0  0  0  0  0  0  0  0  0  0  0
   -0.1941   -9.2455   22.2601 H   0  0  0  0  0  0  0  0  0  0  0  0
    0.8318   -9.9231   20.9956 H   0  0  0  0  0  0  0  0  0  0  0  0
    1.7577   -8.0383   23.5582 H   0  0  0  0  0  0  0  0  0  0  0  0
    1.6084   -7.8645   21.9104 H   0  0  0  0  0  0  0  0  0  0  0  0
    3.8913   -7.2871   23.9139 H   0  0  0  0  0  0  0  0  0  0  0  0
    4.4762   -9.0751   23.2492 H   0  0  0  0  0  0  0  0  0  0  0  0
    6.5915   -9.2928   27.5564 H   0  0  0  0  0  0  0  0  0  0  0  0
    8.8725   -8.8399   26.3372 H   0  0  0  0  0  0  0  0  0  0  0  0
   -0.1578  -14.6400   24.1442 H   0  0  0  0  0  0  0  0  0  0  0  0
   -1.5380  -16.0126   25.8964 H   0  0  0  0  0  0  0  0  0  0  0  0
   -2.1320  -13.2243   29.3993 H   0  0  0  0  0  0  0  0  0  0  0  0
   -3.9012  -14.6200   30.7950 H   0  0  0  0  0  0  0  0  0  0  0  0
   -3.7663  -17.1903   30.2311 H   0  0  0  0  0  0  0  0  0  0  0  0
  1  2  2  0
  2  3  1  0
  3  4  1  0
  4  5  1  0
  5  6  1  0
  6  7  1  0
  7  8  2  0
  8  9  1  0
  9 10  2  0
 10 11  1  0
  2 12  1  0
 12 13  2  0
 13 14  1  0
 14 15  2  0
 15 16  1  0
 16 17  2  0
 17 18  1  0
 18 19  2  0
 19 20  1  0
 15 21  1  0
 11  7  1  0
 21 12  1  0
 20 16  1  0
  3 22  1  0
  4 23  1  0
  4 24  1  0
  5 25  1  0
  5 26  1  0
  6 27  1  0
  6 28  1  0
  9 29  1  0
 10 30  1  0
 13 31  1  0
 14 32  1  0
 17 33  1  0
 18 34  1  0
 19 35  1  0
M  END
>  <Energy>  (976) 
672.69966885400095

>  <compound_id>  (976) 
23464

>  <target_id>  (976) 
1

>  <reference_id>  (976) 
120

>  <inspiration_ids>  (976) 
[120, 88]

>  <energy_score>  (976) 
611.9286713477945

>  <distance_score>  (976) 
15.542922584891553

>  <path>  (976) 
/opt/xchem-fragalysis-2/maxwin/BulkDock/SCRATCH/511013/C23464-P120/C23464-P120.minimised.mol

>  <scratch_subdir>  (976) 
/opt/xchem-fragalysis-2/maxwin/BulkDock/SCRATCH/511013/C23464-P120

>  <fragmenstein_runtime>  (976) 
6.910551071166992

>  <fragmenstein_outcome>  (976) 
too moved

>  <fragmenstein_mode>  (976) 
expansion

>  <fragmenstein_error>  (976) 


$$$$
C23464-P88
     RDKit          3D

 35 37  0  0  0  0  0  0  0  0999 V2000
   -5.0144   -6.2108   20.4878 O   0  0  0  0  0  0  0  0  0  0  0  0
   -4.2564   -7.1410   20.4998 C   0  0  0  0  0  0  0  0  0  0  0  0
   -2.9486   -7.3310   19.8077 N   0  0  0  0  0  0  0  0  0  0  0  0
   -2.1965   -6.4313   18.8138 C   0  0  0  0  0  0  0  0  0  0  0  0
   -0.6622   -5.9309   19.0818 C   0  0  0  0  0  0  0  0  0  0  0  0
    0.0139   -5.0820   17.9315 C   0  0  0  0  0  0  0  0  0  0  0  0
    1.4142   -4.4943   18.1579 C   0  0  0  0  0  0  0  0  0  0  0  0
    2.4487   -4.6745   17.3470 N   0  0  0  0  0  0  0  0  0  0  0  0
    3.5182   -3.8745   17.7243 C   0  0  0  0  0  0  0  0  0  0  0  0
    3.2950   -3.0760   18.8214 C   0  0  0  0  0  0  0  0  0  0  0  0
    1.6971   -3.3409   19.4097 S   0  0  0  0  0  0  0  0  0  0  0  0
   -4.7325   -8.2535   21.5120 C   0  0  0  0  0  0  0  0  0  0  0  0
   -5.0721   -8.0606   22.8522 C   0  0  0  0  0  0  0  0  0  0  0  0
   -5.5613   -9.2712   23.4121 C   0  0  0  0  0  0  0  0  0  0  0  0
   -5.5770  -10.2431   22.4239 C   0  0  0  0  0  0  0  0  0  0  0  0
   -6.0238  -11.6406   22.6154 C   0  0  0  0  0  0  0  0  0  0  0  0
   -6.6056  -12.1877   23.7618 C   0  0  0  0  0  0  0  0  0  0  0  0
   -6.9156  -13.5825   23.6568 C   0  0  0  0  0  0  0  0  0  0  0  0
   -6.5626  -14.0798   22.4262 C   0  0  0  0  0  0  0  0  0  0  0  0
   -5.8689  -12.8680   21.4243 S   0  0  0  0  0  0  0  0  0  0  0  0
   -5.0636   -9.6139   21.2398 O   0  0  0  0  0  0  0  0  0  0  0  0
   -2.6186   -8.2703   19.9743 H   0  0  0  0  0  0  0  0  0  0  0  0
   -2.8203   -5.5406   18.6828 H   0  0  0  0  0  0  0  0  0  0  0  0
   -2.2019   -6.9891   17.8710 H   0  0  0  0  0  0  0  0  0  0  0  0
   -0.0492   -6.8167   19.2499 H   0  0  0  0  0  0  0  0  0  0  0  0
   -0.6715   -5.3550   20.0119 H   0  0  0  0  0  0  0  0  0  0  0  0
    0.0589   -5.7154   17.0364 H   0  0  0  0  0  0  0  0  0  0  0  0
   -0.6590   -4.2505   17.6852 H   0  0  0  0  0  0  0  0  0  0  0  0
    4.4368   -3.9180   17.1534 H   0  0  0  0  0  0  0  0  0  0  0  0
    3.9631   -2.3777   19.3024 H   0  0  0  0  0  0  0  0  0  0  0  0
   -4.9832   -7.1089   23.3620 H   0  0  0  0  0  0  0  0  0  0  0  0
   -5.8882   -9.4016   24.4349 H   0  0  0  0  0  0  0  0  0  0  0  0
   -6.8045  -11.6109   24.6570 H   0  0  0  0  0  0  0  0  0  0  0  0
   -7.3635  -14.1764   24.4437 H   0  0  0  0  0  0  0  0  0  0  0  0
   -6.6680  -15.0908   22.0566 H   0  0  0  0  0  0  0  0  0  0  0  0
  1  2  2  0
  2  3  1  0
  3  4  1  0
  4  5  1  0
  5  6  1  0
  6  7  1  0
  7  8  2  0
  8  9  1  0
  9 10  2  0
 10 11  1  0
  2 12  1  0
 12 13  2  0
 13 14  1  0
 14 15  2  0
 15 16  1  0
 16 17  2  0
 17 18  1  0
 18 19  2  0
 19 20  1  0
 15 21  1  0
 11  7  1  0
 21 12  1  0
 20 16  1  0
  3 22  1  0
  4 23  1  0
  4 24  1  0
  5 25  1  0
  5 26  1  0
  6 27  1  0
  6 28  1  0
  9 29  1  0
 10 30  1  0
 13 31  1  0
 14 32  1  0
 17 33  1  0
 18 34  1  0
 19 35  1  0
M  END
>  <Energy>  (977) 
56.340182766129168

>  <compound_id>  (977) 
23464

>  <target_id>  (977) 
1

>  <reference_id>  (977) 
88

>  <inspiration_ids>  (977) 
[120, 88]

>  <energy_score>  (977) 
-4.430814740080962

>  <distance_score>  (977) 
16.108039511791482

>  <path>  (977) 
/opt/xchem-fragalysis-2/maxwin/BulkDock/SCRATCH/511013/C23464-P88/C23464-P88.minimised.mol

>  <scratch_subdir>  (977) 
/opt/xchem-fragalysis-2/maxwin/BulkDock/SCRATCH/511013/C23464-P88

>  <fragmenstein_runtime>  (977) 
9.562071561813354

>  <fragmenstein_outcome>  (977) 
too moved

>  <fragmenstein_mode>  (977) 
expansion

>  <fragmenstein_error>  (977) 


$$$$
C23465-P120
     RDKit          3D

 48 49  0  0  0  0  0  0  0  0999 V2000
   12.9271  -10.1287   21.2665 C   0  0  0  0  0  0  0  0  0  0  0  0
   11.6826  -10.9168   20.7543 C   0  0  0  0  0  0  0  0  0  0  0  0
   11.0947   -9.9129   19.6937 C   0  0  0  0  0  0  0  0  0  0  0  0
   10.8125  -11.6250   22.0995 C   0  0  0  0  0  0  0  0  0  0  0  0
   11.8287  -12.4805   22.9073 C   0  0  0  0  0  0  0  0  0  0  0  0
    9.2195  -12.6284   22.2445 C   0  0  0  0  0  0  0  0  0  0  0  0
    8.1657  -13.2972   20.9223 N   0  0  0  0  0  0  0  0  0  0  0  0
    9.5800  -13.0875   20.3247 C   0  0  0  0  0  0  0  0  0  0  0  0
    6.4693  -12.5520   20.4729 C   0  0  0  0  0  0  0  0  0  0  0  0
    6.5056  -11.6870   19.6233 O   0  0  0  0  0  0  0  0  0  0  0  0
    4.5087  -12.9700   20.9240 C   0  0  0  0  0  0  0  0  0  0  0  0
    3.2197  -14.2094   22.0086 C   0  0  0  0  0  0  0  0  0  0  0  0
    3.1834  -15.4566   22.9543 C   0  0  0  0  0  0  0  0  0  0  0  0
    1.9013  -16.0939   23.0432 C   0  0  0  0  0  0  0  0  0  0  0  0
    1.2760  -15.2728   23.9562 C   0  0  0  0  0  0  0  0  0  0  0  0
    0.0200  -15.4728   24.9070 C   0  0  0  0  0  0  0  0  0  0  0  0
   -0.5058  -16.8557   25.0627 N   0  0  0  0  0  0  0  0  0  0  0  0
   -1.7279  -17.2419   25.5380 C   0  0  0  0  0  0  0  0  0  0  0  0
   -1.9917  -18.5137   25.7818 N   0  0  0  0  0  0  0  0  0  0  0  0
   -3.3037  -18.6977   26.1873 C   0  0  0  0  0  0  0  0  0  0  0  0
   -4.0490  -17.5501   26.2958 C   0  0  0  0  0  0  0  0  0  0  0  0
   -3.0801  -16.2069   25.8457 S   0  0  0  0  0  0  0  0  0  0  0  0
    2.5334  -13.7994   24.0103 S   0  0  0  0  0  0  0  0  0  0  0  0
   13.6374  -10.7929   21.7653 H   0  0  0  0  0  0  0  0  0  0  0  0
   13.4814   -9.6577   20.4471 H   0  0  0  0  0  0  0  0  0  0  0  0
   12.6242   -9.3483   21.9722 H   0  0  0  0  0  0  0  0  0  0  0  0
   12.0593  -11.7798   20.1890 H   0  0  0  0  0  0  0  0  0  0  0  0
   11.8526   -9.6869   18.9332 H   0  0  0  0  0  0  0  0  0  0  0  0
   10.2437  -10.3159   19.1404 H   0  0  0  0  0  0  0  0  0  0  0  0
   10.8108   -8.9624   20.1557 H   0  0  0  0  0  0  0  0  0  0  0  0
   10.6344  -10.7728   22.7737 H   0  0  0  0  0  0  0  0  0  0  0  0
   12.6557  -11.8761   23.2875 H   0  0  0  0  0  0  0  0  0  0  0  0
   11.3537  -12.9229   23.7892 H   0  0  0  0  0  0  0  0  0  0  0  0
   12.2383  -13.2878   22.2935 H   0  0  0  0  0  0  0  0  0  0  0  0
    9.6002  -13.5927   22.6456 H   0  0  0  0  0  0  0  0  0  0  0  0
    8.6670  -12.2804   23.1346 H   0  0  0  0  0  0  0  0  0  0  0  0
   10.4511  -13.4993   20.8530 H   0  0  0  0  0  0  0  0  0  0  0  0
    9.6698  -13.8767   19.5655 H   0  0  0  0  0  0  0  0  0  0  0  0
    9.6826  -12.1434   19.8051 H   0  0  0  0  0  0  0  0  0  0  0  0
    4.1416  -12.9332   19.9008 H   0  0  0  0  0  0  0  0  0  0  0  0
    4.1712  -12.0612   21.4212 H   0  0  0  0  0  0  0  0  0  0  0  0
    4.0617  -15.8985   23.4053 H   0  0  0  0  0  0  0  0  0  0  0  0
    1.6840  -17.1540   23.0580 H   0  0  0  0  0  0  0  0  0  0  0  0
    0.2905  -15.0842   25.8951 H   0  0  0  0  0  0  0  0  0  0  0  0
   -0.7723  -14.8458   24.4857 H   0  0  0  0  0  0  0  0  0  0  0  0
    0.2141  -17.5657   25.1165 H   0  0  0  0  0  0  0  0  0  0  0  0
   -3.6572  -19.6986   26.3961 H   0  0  0  0  0  0  0  0  0  0  0  0
   -5.0773  -17.4379   26.6087 H   0  0  0  0  0  0  0  0  0  0  0  0
  1  2  1  0
  2  3  1  0
  2  4  1  0
  4  5  1  0
  4  6  1  0
  6  7  1  0
  7  8  1  0
  7  9  1  0
  9 10  2  0
  9 11  1  0
 11 12  1  0
 12 13  2  0
 13 14  1  0
 14 15  2  0
 15 16  1  0
 16 17  1  0
 17 18  1  0
 18 19  2  0
 19 20  1  0
 20 21  2  0
 21 22  1  0
 15 23  1  0
 23 12  1  0
 22 18  1  0
  1 24  1  0
  1 25  1  0
  1 26  1  0
  2 27  1  0
  3 28  1  0
  3 29  1  0
  3 30  1  0
  4 31  1  0
  5 32  1  0
  5 33  1  0
  5 34  1  0
  6 35  1  0
  6 36  1  0
  8 37  1  0
  8 38  1  0
  8 39  1  0
 11 40  1  0
 11 41  1  0
 13 42  1  0
 14 43  1  0
 16 44  1  0
 16 45  1  0
 17 46  1  0
 20 47  1  0
 21 48  1  0
M  END
>  <Energy>  (978) 
631.65370915678511

>  <compound_id>  (978) 
23465

>  <target_id>  (978) 
1

>  <reference_id>  (978) 
120

>  <inspiration_ids>  (978) 
[120, 88]

>  <energy_score>  (978) 
554.9067953035786

>  <distance_score>  (978) 
14.778067275043778

>  <path>  (978) 
/opt/xchem-fragalysis-2/maxwin/BulkDock/SCRATCH/511013/C23465-P120/C23465-P120.minimised.mol

>  <scratch_subdir>  (978) 
/opt/xchem-fragalysis-2/maxwin/BulkDock/SCRATCH/511013/C23465-P120

>  <fragmenstein_runtime>  (978) 
10.085124731063843

>  <fragmenstein_outcome>  (978) 
too moved

>  <fragmenstein_mode>  (978) 
expansion

>  <fragmenstein_error>  (978) 


$$$$
C23465-P88
     RDKit          3D

 48 49  0  0  0  0  0  0  0  0999 V2000
    6.5833   -8.3431   24.3827 C   0  0  0  0  0  0  0  0  0  0  0  0
    5.7184   -7.2927   25.0975 C   0  0  0  0  0  0  0  0  0  0  0  0
    6.3245   -5.9154   24.6645 C   0  0  0  0  0  0  0  0  0  0  0  0
    5.6050   -7.5440   26.6984 C   0  0  0  0  0  0  0  0  0  0  0  0
    5.4111   -6.2131   27.4573 C   0  0  0  0  0  0  0  0  0  0  0  0
    4.6977   -8.7953   27.5786 C   0  0  0  0  0  0  0  0  0  0  0  0
    3.1858   -9.3701   27.4937 N   0  0  0  0  0  0  0  0  0  0  0  0
    2.8937   -7.9565   27.2910 C   0  0  0  0  0  0  0  0  0  0  0  0
    2.8924  -10.2742   28.6735 C   0  0  0  0  0  0  0  0  0  0  0  0
    2.4263  -10.0132   29.7634 O   0  0  0  0  0  0  0  0  0  0  0  0
    3.1157  -11.8795   28.4515 C   0  0  0  0  0  0  0  0  0  0  0  0
    1.8706  -12.9056   28.9662 C   0  0  0  0  0  0  0  0  0  0  0  0
    1.0040  -12.8449   30.0593 C   0  0  0  0  0  0  0  0  0  0  0  0
    0.0105  -13.9108   30.1342 C   0  0  0  0  0  0  0  0  0  0  0  0
    0.1124  -14.8415   29.1155 C   0  0  0  0  0  0  0  0  0  0  0  0
   -0.6879  -16.1751   28.8946 C   0  0  0  0  0  0  0  0  0  0  0  0
   -2.1616  -16.1246   28.8329 N   0  0  0  0  0  0  0  0  0  0  0  0
   -2.8149  -17.1817   28.2619 C   0  0  0  0  0  0  0  0  0  0  0  0
   -2.3982  -18.4303   28.2493 N   0  0  0  0  0  0  0  0  0  0  0  0
   -3.2145  -19.2148   27.4520 C   0  0  0  0  0  0  0  0  0  0  0  0
   -4.2636  -18.5620   26.8495 C   0  0  0  0  0  0  0  0  0  0  0  0
   -4.2877  -16.9312   27.3785 S   0  0  0  0  0  0  0  0  0  0  0  0
    1.4706  -14.3809   28.0850 S   0  0  0  0  0  0  0  0  0  0  0  0
    6.5884   -8.1882   23.2986 H   0  0  0  0  0  0  0  0  0  0  0  0
    6.1887   -9.3463   24.5718 H   0  0  0  0  0  0  0  0  0  0  0  0
    7.6181   -8.3148   24.7398 H   0  0  0  0  0  0  0  0  0  0  0  0
    4.7050   -7.3407   24.6936 H   0  0  0  0  0  0  0  0  0  0  0  0
    6.3847   -5.8439   23.5735 H   0  0  0  0  0  0  0  0  0  0  0  0
    5.7006   -5.0889   25.0142 H   0  0  0  0  0  0  0  0  0  0  0  0
    7.3323   -5.7893   25.0736 H   0  0  0  0  0  0  0  0  0  0  0  0
    6.6288   -7.8441   26.9762 H   0  0  0  0  0  0  0  0  0  0  0  0
    5.3540   -6.3763   28.5382 H   0  0  0  0  0  0  0  0  0  0  0  0
    6.2594   -5.5402   27.2953 H   0  0  0  0  0  0  0  0  0  0  0  0
    4.5033   -5.6952   27.1424 H   0  0  0  0  0  0  0  0  0  0  0  0
    5.2791   -9.6897   27.4549 H   0  0  0  0  0  0  0  0  0  0  0  0
    4.8574   -8.5627   28.6466 H   0  0  0  0  0  0  0  0  0  0  0  0
    3.0852   -7.3245   28.1684 H   0  0  0  0  0  0  0  0  0  0  0  0
    1.7963   -7.9282   27.2235 H   0  0  0  0  0  0  0  0  0  0  0  0
    3.2132   -7.5705   26.3259 H   0  0  0  0  0  0  0  0  0  0  0  0
    3.9888  -12.1668   29.0472 H   0  0  0  0  0  0  0  0  0  0  0  0
    3.3117  -12.0838   27.3967 H   0  0  0  0  0  0  0  0  0  0  0  0
    1.0530  -12.0388   30.7835 H   0  0  0  0  0  0  0  0  0  0  0  0
   -0.7264  -13.9816   30.9262 H   0  0  0  0  0  0  0  0  0  0  0  0
   -0.3081  -16.6185   27.9638 H   0  0  0  0  0  0  0  0  0  0  0  0
   -0.3986  -16.8494   29.7113 H   0  0  0  0  0  0  0  0  0  0  0  0
   -2.5064  -15.2117   28.5588 H   0  0  0  0  0  0  0  0  0  0  0  0
   -2.9784  -20.2646   27.3321 H   0  0  0  0  0  0  0  0  0  0  0  0
   -5.0090  -18.9567   26.1759 H   0  0  0  0  0  0  0  0  0  0  0  0
  1  2  1  0
  2  3  1  0
  2  4  1  0
  4  5  1  0
  4  6  1  0
  6  7  1  0
  7  8  1  0
  7  9  1  0
  9 10  2  0
  9 11  1  0
 11 12  1  0
 12 13  2  0
 13 14  1  0
 14 15  2  0
 15 16  1  0
 16 17  1  0
 17 18  1  0
 18 19  2  0
 19 20  1  0
 20 21  2  0
 21 22  1  0
 15 23  1  0
 23 12  1  0
 22 18  1  0
  1 24  1  0
  1 25  1  0
  1 26  1  0
  2 27  1  0
  3 28  1  0
  3 29  1  0
  3 30  1  0
  4 31  1  0
  5 32  1  0
  5 33  1  0
  5 34  1  0
  6 35  1  0
  6 36  1  0
  8 37  1  0
  8 38  1  0
  8 39  1  0
 11 40  1  0
 11 41  1  0
 13 42  1  0
 14 43  1  0
 16 44  1  0
 16 45  1  0
 17 46  1  0
 20 47  1  0
 21 48  1  0
M  END
>  <Energy>  (979) 
130.94021807094117

>  <compound_id>  (979) 
23465

>  <target_id>  (979) 
1

>  <reference_id>  (979) 
88

>  <inspiration_ids>  (979) 
[120, 88]

>  <energy_score>  (979) 
54.19330421773884

>  <distance_score>  (979) 
15.221126815495639

>  <path>  (979) 
/opt/xchem-fragalysis-2/maxwin/BulkDock/SCRATCH/511013/C23465-P88/C23465-P88.minimised.mol

>  <scratch_subdir>  (979) 
/opt/xchem-fragalysis-2/maxwin/BulkDock/SCRATCH/511013/C23465-P88

>  <fragmenstein_runtime>  (979) 
19.758041381835938

>  <fragmenstein_outcome>  (979) 
too moved

>  <fragmenstein_mode>  (979) 
expansion

>  <fragmenstein_error>  (979) 


$$$$
C23468-P120
     RDKit          3D

 36 37  0  0  0  0  0  0  0  0999 V2000
   -0.1659  -16.4330   20.2796 O   0  0  0  0  0  0  0  0  0  0  0  0
   -1.2672  -16.5698   19.7935 C   0  0  0  0  0  0  0  0  0  0  0  0
   -2.0764  -17.9870   19.8841 C   0  0  0  0  0  0  0  0  0  0  0  0
   -2.5127  -18.6000   21.1278 N   0  0  0  0  0  0  0  0  0  0  0  0
   -3.7879  -18.5943   21.7812 C   0  0  0  0  0  0  0  0  0  0  0  0
   -4.8413  -18.1501   21.4309 O   0  0  0  0  0  0  0  0  0  0  0  0
   -3.7272  -19.1529   23.1486 C   0  0  0  0  0  0  0  0  0  0  0  0
   -4.1750  -18.5319   24.3073 C   0  0  0  0  0  0  0  0  0  0  0  0
   -4.0896  -19.3677   25.4624 C   0  0  0  0  0  0  0  0  0  0  0  0
   -3.6382  -20.6191   25.1278 C   0  0  0  0  0  0  0  0  0  0  0  0
   -3.5396  -22.0677   26.3804 Br  0  0  0  0  0  0  0  0  0  0  0  0
   -3.2341  -20.7638   23.4794 S   0  0  0  0  0  0  0  0  0  0  0  0
   -2.1236  -15.5976   18.9255 N   0  0  0  0  0  0  0  0  0  0  0  0
   -1.7253  -13.8291   18.1621 C   0  0  0  0  0  0  0  0  0  0  0  0
   -1.9338  -12.0227   18.8829 C   0  0  0  0  0  0  0  0  0  0  0  0
   -1.6257  -10.2213   18.4631 C   0  0  0  0  0  0  0  0  0  0  0  0
   -0.3528   -8.4304   18.9297 S   0  0  0  0  0  0  0  0  0  0  0  0
    1.7849   -8.1936   18.9873 C   0  0  0  0  0  0  0  0  0  0  0  0
    2.4255   -6.7688   19.3919 N   0  0  0  0  0  0  0  0  0  0  0  0
    4.2198   -6.3702   19.0489 C   0  0  0  0  0  0  0  0  0  0  0  0
    4.5472   -7.1836   18.0785 C   0  0  0  0  0  0  0  0  0  0  0  0
    2.8450   -8.6595   17.8084 S   0  0  0  0  0  0  0  0  0  0  0  0
   -2.9711  -17.9206   19.2579 H   0  0  0  0  0  0  0  0  0  0  0  0
   -1.4152  -18.7171   19.4019 H   0  0  0  0  0  0  0  0  0  0  0  0
   -1.8220  -18.9910   21.7566 H   0  0  0  0  0  0  0  0  0  0  0  0
   -4.5716  -17.5231   24.3146 H   0  0  0  0  0  0  0  0  0  0  0  0
   -4.4055  -19.0676   26.4532 H   0  0  0  0  0  0  0  0  0  0  0  0
   -2.9600  -16.0734   18.6232 H   0  0  0  0  0  0  0  0  0  0  0  0
   -0.7376  -13.6286   17.7212 H   0  0  0  0  0  0  0  0  0  0  0  0
   -2.3376  -13.8267   17.2464 H   0  0  0  0  0  0  0  0  0  0  0  0
   -1.7535  -12.0869   19.9607 H   0  0  0  0  0  0  0  0  0  0  0  0
   -3.0249  -11.9390   18.8006 H   0  0  0  0  0  0  0  0  0  0  0  0
   -2.0937   -9.9899   17.5099 H   0  0  0  0  0  0  0  0  0  0  0  0
   -2.3912   -9.8352   19.1578 H   0  0  0  0  0  0  0  0  0  0  0  0
    4.5029   -5.2915   19.2052 H   0  0  0  0  0  0  0  0  0  0  0  0
    5.3326   -6.9940   17.3574 H   0  0  0  0  0  0  0  0  0  0  0  0
  1  2  2  0
  2  3  1  0
  3  4  1  0
  4  5  1  0
  5  6  2  0
  5  7  1  0
  7  8  2  0
  8  9  1  0
  9 10  2  0
 10 11  1  0
 10 12  1  0
  2 13  1  0
 13 14  1  0
 14 15  1  0
 15 16  1  0
 16 17  1  0
 17 18  1  0
 18 19  2  0
 19 20  1  0
 20 21  2  0
 21 22  1  0
 12  7  1  0
 22 18  1  0
  3 23  1  0
  3 24  1  0
  4 25  1  0
  8 26  1  0
  9 27  1  0
 13 28  1  0
 14 29  1  0
 14 30  1  0
 15 31  1  0
 15 32  1  0
 16 33  1  0
 16 34  1  0
 20 35  1  0
 21 36  1  0
M  END
>  <Energy>  (980) 
487.19431696704964

>  <compound_id>  (980) 
23468

>  <target_id>  (980) 
1

>  <reference_id>  (980) 
120

>  <inspiration_ids>  (980) 
[120, 88]

>  <energy_score>  (980) 
399.18082103402924

>  <distance_score>  (980) 
14.131828565323584

>  <path>  (980) 
/opt/xchem-fragalysis-2/maxwin/BulkDock/SCRATCH/511013/C23468-P120/C23468-P120.minimised.mol

>  <scratch_subdir>  (980) 
/opt/xchem-fragalysis-2/maxwin/BulkDock/SCRATCH/511013/C23468-P120

>  <fragmenstein_runtime>  (980) 
21.092149019241333

>  <fragmenstein_outcome>  (980) 
too moved

>  <fragmenstein_mode>  (980) 
expansion

>  <fragmenstein_error>  (980) 


$$$$
C23468-P88
     RDKit          3D

 36 37  0  0  0  0  0  0  0  0999 V2000
    6.2504  -10.1682   23.2409 O   0  0  0  0  0  0  0  0  0  0  0  0
    6.4322   -9.2235   23.9647 C   0  0  0  0  0  0  0  0  0  0  0  0
    5.9048   -9.3907   25.4852 C   0  0  0  0  0  0  0  0  0  0  0  0
    4.8735  -10.4405   25.8489 N   0  0  0  0  0  0  0  0  0  0  0  0
    4.7102  -11.2443   27.0584 C   0  0  0  0  0  0  0  0  0  0  0  0
    5.3991  -11.3306   28.0337 O   0  0  0  0  0  0  0  0  0  0  0  0
    3.3888  -12.0247   27.1274 C   0  0  0  0  0  0  0  0  0  0  0  0
    2.0720  -11.5908   26.9594 C   0  0  0  0  0  0  0  0  0  0  0  0
    1.0670  -12.5307   27.4016 C   0  0  0  0  0  0  0  0  0  0  0  0
    1.6242  -13.7013   27.8480 C   0  0  0  0  0  0  0  0  0  0  0  0
    0.5694  -15.1880   28.5200 Br  0  0  0  0  0  0  0  0  0  0  0  0
    3.3290  -13.6669   27.7609 S   0  0  0  0  0  0  0  0  0  0  0  0
    7.1397   -7.9363   23.7178 N   0  0  0  0  0  0  0  0  0  0  0  0
    7.9315   -7.4585   22.5244 C   0  0  0  0  0  0  0  0  0  0  0  0
    7.9388   -5.9249   22.0786 C   0  0  0  0  0  0  0  0  0  0  0  0
    9.0134   -5.5328   20.9846 C   0  0  0  0  0  0  0  0  0  0  0  0
    8.8165   -3.8144   20.3314 S   0  0  0  0  0  0  0  0  0  0  0  0
   10.1774   -3.5582   19.2369 C   0  0  0  0  0  0  0  0  0  0  0  0
   10.0131   -2.8601   18.1278 N   0  0  0  0  0  0  0  0  0  0  0  0
   11.2413   -2.6627   17.5118 C   0  0  0  0  0  0  0  0  0  0  0  0
   12.3209   -3.2428   18.1381 C   0  0  0  0  0  0  0  0  0  0  0  0
   11.7898   -4.0589   19.5539 S   0  0  0  0  0  0  0  0  0  0  0  0
    5.4567   -8.4355   25.7794 H   0  0  0  0  0  0  0  0  0  0  0  0
    6.7790   -9.5701   26.1195 H   0  0  0  0  0  0  0  0  0  0  0  0
    4.1389  -10.6803   25.1892 H   0  0  0  0  0  0  0  0  0  0  0  0
    1.8258  -10.5905   26.6282 H   0  0  0  0  0  0  0  0  0  0  0  0
    0.0033  -12.3272   27.3909 H   0  0  0  0  0  0  0  0  0  0  0  0
    7.1719   -7.4039   24.5792 H   0  0  0  0  0  0  0  0  0  0  0  0
    8.9647   -7.7521   22.7413 H   0  0  0  0  0  0  0  0  0  0  0  0
    7.5919   -8.0688   21.6882 H   0  0  0  0  0  0  0  0  0  0  0  0
    6.9337   -5.6871   21.7097 H   0  0  0  0  0  0  0  0  0  0  0  0
    8.1064   -5.3132   22.9733 H   0  0  0  0  0  0  0  0  0  0  0  0
    8.9490   -6.2305   20.1453 H   0  0  0  0  0  0  0  0  0  0  0  0
   10.0053   -5.6345   21.4357 H   0  0  0  0  0  0  0  0  0  0  0  0
   11.2924   -2.0806   16.5993 H   0  0  0  0  0  0  0  0  0  0  0  0
   13.3608   -3.2262   17.8461 H   0  0  0  0  0  0  0  0  0  0  0  0
  1  2  2  0
  2  3  1  0
  3  4  1  0
  4  5  1  0
  5  6  2  0
  5  7  1  0
  7  8  2  0
  8  9  1  0
  9 10  2  0
 10 11  1  0
 10 12  1  0
  2 13  1  0
 13 14  1  0
 14 15  1  0
 15 16  1  0
 16 17  1  0
 17 18  1  0
 18 19  2  0
 19 20  1  0
 20 21  2  0
 21 22  1  0
 12  7  1  0
 22 18  1  0
  3 23  1  0
  3 24  1  0
  4 25  1  0
  8 26  1  0
  9 27  1  0
 13 28  1  0
 14 29  1  0
 14 30  1  0
 15 31  1  0
 15 32  1  0
 16 33  1  0
 16 34  1  0
 20 35  1  0
 21 36  1  0
M  END
>  <Energy>  (981) 
37.843734184932075

>  <compound_id>  (981) 
23468

>  <target_id>  (981) 
1

>  <reference_id>  (981) 
88

>  <inspiration_ids>  (981) 
[120, 88]

>  <energy_score>  (981) 
-50.169761748082294

>  <distance_score>  (981) 
15.547933815593236

>  <path>  (981) 
/opt/xchem-fragalysis-2/maxwin/BulkDock/SCRATCH/511013/C23468-P88/C23468-P88.minimised.mol

>  <scratch_subdir>  (981) 
/opt/xchem-fragalysis-2/maxwin/BulkDock/SCRATCH/511013/C23468-P88

>  <fragmenstein_runtime>  (981) 
18.19838809967041

>  <fragmenstein_outcome>  (981) 
too moved

>  <fragmenstein_mode>  (981) 
expansion

>  <fragmenstein_error>  (981) 


$$$$
C23474-P120
     RDKit          3D

 28 30  0  0  0  0  0  0  0  0999 V2000
  -11.0807  -23.6955   27.6341 S   0  0  0  0  0  0  0  0  0  0  0  0
  -11.3444  -23.8873   29.2562 C   0  0  0  0  0  0  0  0  0  0  0  0
  -11.6087  -25.1471   29.7713 N   0  0  0  0  0  0  0  0  0  0  0  0
  -11.5649  -25.1326   31.1236 N   0  0  0  0  0  0  0  0  0  0  0  0
  -11.3567  -23.8817   31.4176 C   0  0  0  0  0  0  0  0  0  0  0  0
  -11.1664  -23.4383   32.7723 C   0  0  0  0  0  0  0  0  0  0  0  0
  -11.9036  -22.5444   33.5216 C   0  0  0  0  0  0  0  0  0  0  0  0
  -11.3303  -22.3185   34.8068 C   0  0  0  0  0  0  0  0  0  0  0  0
  -10.1929  -23.0693   35.0040 C   0  0  0  0  0  0  0  0  0  0  0  0
   -9.8284  -24.0481   33.6512 S   0  0  0  0  0  0  0  0  0  0  0  0
  -11.2672  -23.0294   30.3350 N   0  0  0  0  0  0  0  0  0  0  0  0
  -10.9222  -21.5808   30.4931 C   0  0  0  0  0  0  0  0  0  0  0  0
  -10.7554  -20.6110   29.1833 C   0  0  0  0  0  0  0  0  0  0  0  0
  -10.6487  -18.4982   29.0863 C   0  0  0  0  0  0  0  0  0  0  0  0
  -11.5666  -17.3758   30.0199 N   0  0  0  0  0  0  0  0  0  0  0  0
  -10.9376  -15.5433   30.5115 C   0  0  0  0  0  0  0  0  0  0  0  0
   -9.1814  -15.1546   29.7802 C   0  0  0  0  0  0  0  0  0  0  0  0
   -8.4402  -17.2673   28.3777 S   0  0  0  0  0  0  0  0  0  0  0  0
  -11.6593  -26.0045   29.2346 H   0  0  0  0  0  0  0  0  0  0  0  0
  -12.8078  -22.0663   33.1685 H   0  0  0  0  0  0  0  0  0  0  0  0
  -11.7315  -21.6426   35.5526 H   0  0  0  0  0  0  0  0  0  0  0  0
   -9.5609  -23.0973   35.8815 H   0  0  0  0  0  0  0  0  0  0  0  0
  -11.7492  -21.3052   31.1223 H   0  0  0  0  0  0  0  0  0  0  0  0
  -10.0832  -21.4899   31.1783 H   0  0  0  0  0  0  0  0  0  0  0  0
  -10.0665  -21.1564   28.5386 H   0  0  0  0  0  0  0  0  0  0  0  0
  -11.8016  -20.7691   28.7951 H   0  0  0  0  0  0  0  0  0  0  0  0
  -11.3658  -15.6036   31.5315 H   0  0  0  0  0  0  0  0  0  0  0  0
   -8.9074  -14.4047   29.0064 H   0  0  0  0  0  0  0  0  0  0  0  0
  1  2  2  0
  2  3  1  0
  3  4  1  0
  4  5  2  0
  5  6  1  0
  6  7  2  0
  7  8  1  0
  8  9  2  0
  9 10  1  0
  5 11  1  0
 11 12  1  0
 12 13  1  0
 13 14  1  0
 14 15  2  0
 15 16  1  0
 16 17  2  0
 17 18  1  0
 11  2  1  0
 18 14  1  0
 10  6  1  0
  3 19  1  0
  7 20  1  0
  8 21  1  0
  9 22  1  0
 12 23  1  0
 12 24  1  0
 13 25  1  0
 13 26  1  0
 16 27  1  0
 17 28  1  0
M  END
>  <Energy>  (982) 
881.00886675994377

>  <compound_id>  (982) 
23474

>  <target_id>  (982) 
1

>  <reference_id>  (982) 
120

>  <inspiration_ids>  (982) 
[120, 88]

>  <energy_score>  (982) 
787.919765658733

>  <distance_score>  (982) 
1.7572231689997864

>  <path>  (982) 
/opt/xchem-fragalysis-2/maxwin/BulkDock/SCRATCH/511013/C23474-P120/C23474-P120.minimised.mol

>  <scratch_subdir>  (982) 
/opt/xchem-fragalysis-2/maxwin/BulkDock/SCRATCH/511013/C23474-P120

>  <fragmenstein_runtime>  (982) 
2.136995315551758

>  <fragmenstein_outcome>  (982) 
too moved

>  <fragmenstein_mode>  (982) 
expansion

>  <fragmenstein_error>  (982) 


$$$$
C23474-P88
     RDKit          3D

 28 30  0  0  0  0  0  0  0  0999 V2000
  -11.8188  -23.2967   27.0611 S   0  0  0  0  0  0  0  0  0  0  0  0
  -11.1541  -23.6202   28.5357 C   0  0  0  0  0  0  0  0  0  0  0  0
  -10.5096  -24.8156   28.7536 N   0  0  0  0  0  0  0  0  0  0  0  0
  -10.1084  -24.9065   30.0400 N   0  0  0  0  0  0  0  0  0  0  0  0
  -10.4754  -23.7804   30.5872 C   0  0  0  0  0  0  0  0  0  0  0  0
  -10.1951  -23.4843   31.9650 C   0  0  0  0  0  0  0  0  0  0  0  0
  -10.9544  -22.8621   32.9280 C   0  0  0  0  0  0  0  0  0  0  0  0
  -10.2382  -22.5785   34.1208 C   0  0  0  0  0  0  0  0  0  0  0  0
   -8.9542  -23.0484   34.0480 C   0  0  0  0  0  0  0  0  0  0  0  0
   -8.6864  -23.9289   32.6221 S   0  0  0  0  0  0  0  0  0  0  0  0
  -11.1032  -22.9200   29.7249 N   0  0  0  0  0  0  0  0  0  0  0  0
  -11.9044  -21.7357   30.0428 C   0  0  0  0  0  0  0  0  0  0  0  0
  -11.2792  -20.6182   30.8952 C   0  0  0  0  0  0  0  0  0  0  0  0
  -12.2265  -20.1135   31.9475 C   0  0  0  0  0  0  0  0  0  0  0  0
  -13.5326  -20.1369   31.8267 N   0  0  0  0  0  0  0  0  0  0  0  0
  -14.1403  -19.6366   32.9610 C   0  0  0  0  0  0  0  0  0  0  0  0
  -13.2797  -19.1411   33.9055 C   0  0  0  0  0  0  0  0  0  0  0  0
  -11.6698  -19.3796   33.3910 S   0  0  0  0  0  0  0  0  0  0  0  0
  -10.3889  -25.5630   28.0812 H   0  0  0  0  0  0  0  0  0  0  0  0
  -11.9788  -22.5634   32.7776 H   0  0  0  0  0  0  0  0  0  0  0  0
  -10.6509  -22.0464   34.9712 H   0  0  0  0  0  0  0  0  0  0  0  0
   -8.1577  -22.9358   34.7636 H   0  0  0  0  0  0  0  0  0  0  0  0
  -12.1825  -21.2809   29.0926 H   0  0  0  0  0  0  0  0  0  0  0  0
  -12.8223  -22.1281   30.4923 H   0  0  0  0  0  0  0  0  0  0  0  0
  -10.3561  -20.9348   31.3706 H   0  0  0  0  0  0  0  0  0  0  0  0
  -11.0138  -19.7813   30.2383 H   0  0  0  0  0  0  0  0  0  0  0  0
  -15.2205  -19.6562   33.0368 H   0  0  0  0  0  0  0  0  0  0  0  0
  -13.5236  -18.6699   34.8412 H   0  0  0  0  0  0  0  0  0  0  0  0
  1  2  2  0
  2  3  1  0
  3  4  1  0
  4  5  2  0
  5  6  1  0
  6  7  2  0
  7  8  1  0
  8  9  2  0
  9 10  1  0
  5 11  1  0
 11 12  1  0
 12 13  1  0
 13 14  1  0
 14 15  2  0
 15 16  1  0
 16 17  2  0
 17 18  1  0
 11  2  1  0
 18 14  1  0
 10  6  1  0
  3 19  1  0
  7 20  1  0
  8 21  1  0
  9 22  1  0
 12 23  1  0
 12 24  1  0
 13 25  1  0
 13 26  1  0
 16 27  1  0
 17 28  1  0
M  END
>  <Energy>  (983) 
28.785104240433906

>  <compound_id>  (983) 
23474

>  <target_id>  (983) 
1

>  <reference_id>  (983) 
88

>  <inspiration_ids>  (983) 
[120, 88]

>  <energy_score>  (983) 
-69.79567904413236

>  <distance_score>  (983) 
1.0617388349988781

>  <path>  (983) 
/opt/xchem-fragalysis-2/maxwin/BulkDock/SCRATCH/511013/C23474-P88/C23474-P88.minimised.mol

>  <scratch_subdir>  (983) 
/opt/xchem-fragalysis-2/maxwin/BulkDock/SCRATCH/511013/C23474-P88

>  <fragmenstein_runtime>  (983) 
2.119352340698242

>  <fragmenstein_outcome>  (983) 
too moved

>  <fragmenstein_mode>  (983) 
expansion

>  <fragmenstein_error>  (983) 


$$$$
C23478-P120
     RDKit          3D

 37 38  0  0  0  0  0  0  0  0999 V2000
    8.1663   -5.8927   14.4263 C   0  0  0  0  0  0  0  0  0  0  0  0
    7.3768   -5.5859   13.1600 C   0  0  0  0  0  0  0  0  0  0  0  0
    7.4456   -6.6661   12.0452 C   0  0  0  0  0  0  0  0  0  0  0  0
    7.1769   -8.0673   12.4758 N   0  0  0  0  0  0  0  0  0  0  0  0
    5.8103   -8.6591   12.3033 C   0  0  0  0  0  0  0  0  0  0  0  0
    5.7267  -10.2506   12.6736 C   0  0  0  0  0  0  0  0  0  0  0  0
    6.7297  -10.8153   13.0218 O   0  0  0  0  0  0  0  0  0  0  0  0
    4.3333  -10.7445   12.5544 N   0  0  0  0  0  0  0  0  0  0  0  0
    3.7541  -12.0017   12.9046 N   0  0  0  0  0  0  0  0  0  0  0  0
    2.4471  -12.5878   12.5619 C   0  0  0  0  0  0  0  0  0  0  0  0
    1.5796  -12.1860   11.8380 O   0  0  0  0  0  0  0  0  0  0  0  0
    2.0653  -13.8597   13.3127 C   0  0  0  0  0  0  0  0  0  0  0  0
    0.7532  -14.3096   13.5475 C   0  0  0  0  0  0  0  0  0  0  0  0
    0.6450  -15.4366   14.4271 C   0  0  0  0  0  0  0  0  0  0  0  0
    1.8894  -15.9189   14.7477 C   0  0  0  0  0  0  0  0  0  0  0  0
    3.1409  -15.0439   13.9340 S   0  0  0  0  0  0  0  0  0  0  0  0
    8.7859   -6.5805   11.3063 C   0  0  0  0  0  0  0  0  0  0  0  0
    9.9010   -6.0477   11.7706 N   0  0  0  0  0  0  0  0  0  0  0  0
   10.9082   -6.1921   10.8373 C   0  0  0  0  0  0  0  0  0  0  0  0
   10.5536   -6.8035    9.6568 C   0  0  0  0  0  0  0  0  0  0  0  0
    8.8979   -7.2251    9.7025 S   0  0  0  0  0  0  0  0  0  0  0  0
    7.7630   -6.7712   14.9350 H   0  0  0  0  0  0  0  0  0  0  0  0
    8.0934   -5.0504   15.1223 H   0  0  0  0  0  0  0  0  0  0  0  0
    9.2257   -6.0672   14.2256 H   0  0  0  0  0  0  0  0  0  0  0  0
    7.7028   -4.6173   12.7604 H   0  0  0  0  0  0  0  0  0  0  0  0
    6.3250   -5.4636   13.4497 H   0  0  0  0  0  0  0  0  0  0  0  0
    6.6772   -6.3909   11.3086 H   0  0  0  0  0  0  0  0  0  0  0  0
    7.6225   -8.3206   13.3514 H   0  0  0  0  0  0  0  0  0  0  0  0
    5.5037   -8.5640   11.2565 H   0  0  0  0  0  0  0  0  0  0  0  0
    5.1012   -8.1316   12.9482 H   0  0  0  0  0  0  0  0  0  0  0  0
    3.7528  -10.0137   12.1483 H   0  0  0  0  0  0  0  0  0  0  0  0
    4.2009  -12.5766   13.6182 H   0  0  0  0  0  0  0  0  0  0  0  0
   -0.1062  -13.7775   13.1520 H   0  0  0  0  0  0  0  0  0  0  0  0
   -0.2851  -15.8677   14.7752 H   0  0  0  0  0  0  0  0  0  0  0  0
    2.1455  -16.7623   15.3740 H   0  0  0  0  0  0  0  0  0  0  0  0
   11.9006   -5.8252   11.0675 H   0  0  0  0  0  0  0  0  0  0  0  0
   11.1727   -7.0141    8.7976 H   0  0  0  0  0  0  0  0  0  0  0  0
  1  2  1  0
  2  3  1  0
  3  4  1  0
  4  5  1  0
  5  6  1  0
  6  7  2  0
  6  8  1  0
  8  9  1  0
  9 10  1  0
 10 11  2  0
 10 12  1  0
 12 13  2  0
 13 14  1  0
 14 15  2  0
 15 16  1  0
  3 17  1  0
 17 18  2  0
 18 19  1  0
 19 20  2  0
 20 21  1  0
 16 12  1  0
 21 17  1  0
  1 22  1  0
  1 23  1  0
  1 24  1  0
  2 25  1  0
  2 26  1  0
  3 27  1  0
  4 28  1  0
  5 29  1  0
  5 30  1  0
  8 31  1  0
  9 32  1  0
 13 33  1  0
 14 34  1  0
 15 35  1  0
 19 36  1  0
 20 37  1  0
M  END
>  <Energy>  (984) 
145.01040027773257

>  <compound_id>  (984) 
23478

>  <target_id>  (984) 
1

>  <reference_id>  (984) 
120

>  <inspiration_ids>  (984) 
[120, 88]

>  <energy_score>  (984) 
-66.81014887541176

>  <distance_score>  (984) 
18.341993194550245

>  <path>  (984) 
/opt/xchem-fragalysis-2/maxwin/BulkDock/SCRATCH/511013/C23478-P120/C23478-P120.minimised.mol

>  <scratch_subdir>  (984) 
/opt/xchem-fragalysis-2/maxwin/BulkDock/SCRATCH/511013/C23478-P120

>  <fragmenstein_runtime>  (984) 
12.310513019561768

>  <fragmenstein_outcome>  (984) 
too moved

>  <fragmenstein_mode>  (984) 
expansion

>  <fragmenstein_error>  (984) 


$$$$
C23478-P88
     RDKit          3D

 37 38  0  0  0  0  0  0  0  0999 V2000
    9.7319   -6.8508    9.9839 C   0  0  0  0  0  0  0  0  0  0  0  0
    9.5160   -6.3163   11.3938 C   0  0  0  0  0  0  0  0  0  0  0  0
    9.3687   -7.4593   12.4463 C   0  0  0  0  0  0  0  0  0  0  0  0
    8.1112   -8.2603   12.2746 N   0  0  0  0  0  0  0  0  0  0  0  0
    8.2494   -9.7665   12.2141 C   0  0  0  0  0  0  0  0  0  0  0  0
    6.8043  -10.4974   12.0532 C   0  0  0  0  0  0  0  0  0  0  0  0
    5.9716   -9.9551   11.3722 O   0  0  0  0  0  0  0  0  0  0  0  0
    6.7202  -11.7247   12.8925 N   0  0  0  0  0  0  0  0  0  0  0  0
    5.5919  -12.5761   13.2200 N   0  0  0  0  0  0  0  0  0  0  0  0
    5.5441  -13.9519   13.7382 C   0  0  0  0  0  0  0  0  0  0  0  0
    6.4267  -14.7399   13.9398 O   0  0  0  0  0  0  0  0  0  0  0  0
    4.1635  -14.4472   14.2045 C   0  0  0  0  0  0  0  0  0  0  0  0
    3.9015  -15.6907   14.8099 C   0  0  0  0  0  0  0  0  0  0  0  0
    2.5942  -15.8366   15.3840 C   0  0  0  0  0  0  0  0  0  0  0  0
    1.8483  -14.7020   15.1933 C   0  0  0  0  0  0  0  0  0  0  0  0
    2.7372  -13.4909   14.3467 S   0  0  0  0  0  0  0  0  0  0  0  0
    9.4578   -6.8317   13.8393 C   0  0  0  0  0  0  0  0  0  0  0  0
   10.5107   -6.9065   14.6366 N   0  0  0  0  0  0  0  0  0  0  0  0
   10.3028   -6.1469   15.7662 C   0  0  0  0  0  0  0  0  0  0  0  0
    9.0727   -5.5408   15.8520 C   0  0  0  0  0  0  0  0  0  0  0  0
    8.1391   -5.9088   14.4692 S   0  0  0  0  0  0  0  0  0  0  0  0
    9.8728   -6.0200    9.2851 H   0  0  0  0  0  0  0  0  0  0  0  0
   10.6230   -7.4849    9.9391 H   0  0  0  0  0  0  0  0  0  0  0  0
    8.8748   -7.4360    9.6383 H   0  0  0  0  0  0  0  0  0  0  0  0
    8.6249   -5.6759   11.3982 H   0  0  0  0  0  0  0  0  0  0  0  0
   10.3627   -5.6709   11.6547 H   0  0  0  0  0  0  0  0  0  0  0  0
   10.2302   -8.1308   12.3334 H   0  0  0  0  0  0  0  0  0  0  0  0
    7.5963   -7.9611   11.4458 H   0  0  0  0  0  0  0  0  0  0  0  0
    8.7266  -10.1103   13.1363 H   0  0  0  0  0  0  0  0  0  0  0  0
    8.8560  -10.0522   11.3490 H   0  0  0  0  0  0  0  0  0  0  0  0
    7.5947  -11.8454   13.3975 H   0  0  0  0  0  0  0  0  0  0  0  0
    4.6488  -12.1696   13.2583 H   0  0  0  0  0  0  0  0  0  0  0  0
    4.6697  -16.4537   14.8797 H   0  0  0  0  0  0  0  0  0  0  0  0
    2.2420  -16.7172   15.9059 H   0  0  0  0  0  0  0  0  0  0  0  0
    0.8315  -14.5161   15.5066 H   0  0  0  0  0  0  0  0  0  0  0  0
   11.0898   -6.0711   16.5054 H   0  0  0  0  0  0  0  0  0  0  0  0
    8.6873   -4.8996   16.6281 H   0  0  0  0  0  0  0  0  0  0  0  0
  1  2  1  0
  2  3  1  0
  3  4  1  0
  4  5  1  0
  5  6  1  0
  6  7  2  0
  6  8  1  0
  8  9  1  0
  9 10  1  0
 10 11  2  0
 10 12  1  0
 12 13  2  0
 13 14  1  0
 14 15  2  0
 15 16  1  0
  3 17  1  0
 17 18  2  0
 18 19  1  0
 19 20  2  0
 20 21  1  0
 16 12  1  0
 21 17  1  0
  1 22  1  0
  1 23  1  0
  1 24  1  0
  2 25  1  0
  2 26  1  0
  3 27  1  0
  4 28  1  0
  5 29  1  0
  5 30  1  0
  8 31  1  0
  9 32  1  0
 13 33  1  0
 14 34  1  0
 15 35  1  0
 19 36  1  0
 20 37  1  0
M  END
>  <Energy>  (985) 
141.94520873925148

>  <compound_id>  (985) 
23478

>  <target_id>  (985) 
1

>  <reference_id>  (985) 
88

>  <inspiration_ids>  (985) 
[120, 88]

>  <energy_score>  (985) 
-69.87534041389694

>  <distance_score>  (985) 
18.59628804558665

>  <path>  (985) 
/opt/xchem-fragalysis-2/maxwin/BulkDock/SCRATCH/511013/C23478-P88/C23478-P88.minimised.mol

>  <scratch_subdir>  (985) 
/opt/xchem-fragalysis-2/maxwin/BulkDock/SCRATCH/511013/C23478-P88

>  <fragmenstein_runtime>  (985) 
15.18474268913269

>  <fragmenstein_outcome>  (985) 
too moved

>  <fragmenstein_mode>  (985) 
expansion

>  <fragmenstein_error>  (985) 


$$$$
C23479-P120
     RDKit          3D

 38 39  0  0  0  0  0  0  0  0999 V2000
    0.1581   -8.2952   28.7334 C   0  0  0  0  0  0  0  0  0  0  0  0
    0.5475   -9.7332   28.7944 C   0  0  0  0  0  0  0  0  0  0  0  0
   -0.2943  -10.8306   28.7243 C   0  0  0  0  0  0  0  0  0  0  0  0
    0.3727  -12.0834   28.8945 C   0  0  0  0  0  0  0  0  0  0  0  0
   -0.1857  -13.3548   28.8734 N   0  0  0  0  0  0  0  0  0  0  0  0
   -1.5608  -13.7923   29.0243 C   0  0  0  0  0  0  0  0  0  0  0  0
   -2.5525  -13.1758   29.2842 O   0  0  0  0  0  0  0  0  0  0  0  0
   -1.6501  -15.3397   28.6642 C   0  0  0  0  0  0  0  0  0  0  0  0
   -0.5990  -15.9231   28.5798 O   0  0  0  0  0  0  0  0  0  0  0  0
   -2.9888  -15.7848   28.3970 N   0  0  0  0  0  0  0  0  0  0  0  0
   -3.4860  -17.0494   27.8333 C   0  0  0  0  0  0  0  0  0  0  0  0
   -3.6517  -16.3900   29.7300 C   0  0  0  0  0  0  0  0  0  0  0  0
   -3.3694  -17.8482   30.3532 C   0  0  0  0  0  0  0  0  0  0  0  0
   -1.9180  -18.0015   30.7955 C   0  0  0  0  0  0  0  0  0  0  0  0
   -4.2864  -18.1994   31.5133 C   0  0  0  0  0  0  0  0  0  0  0  0
   -5.0549  -17.3570   32.1650 N   0  0  0  0  0  0  0  0  0  0  0  0
   -5.7351  -18.0256   33.1684 C   0  0  0  0  0  0  0  0  0  0  0  0
   -5.4387  -19.3617   33.3106 C   0  0  0  0  0  0  0  0  0  0  0  0
   -4.3272  -19.8334   32.1033 S   0  0  0  0  0  0  0  0  0  0  0  0
    1.7293  -11.8737   29.0452 C   0  0  0  0  0  0  0  0  0  0  0  0
    2.1652  -10.2126   29.0535 S   0  0  0  0  0  0  0  0  0  0  0  0
   -0.1235   -8.0219   27.7118 H   0  0  0  0  0  0  0  0  0  0  0  0
   -0.7043   -8.1098   29.3826 H   0  0  0  0  0  0  0  0  0  0  0  0
    0.9649   -7.6323   29.0607 H   0  0  0  0  0  0  0  0  0  0  0  0
   -1.3666  -10.7408   28.5858 H   0  0  0  0  0  0  0  0  0  0  0  0
    0.4101  -14.1709   28.7324 H   0  0  0  0  0  0  0  0  0  0  0  0
   -3.3931  -16.8718   26.7503 H   0  0  0  0  0  0  0  0  0  0  0  0
   -2.7825  -17.8791   27.9639 H   0  0  0  0  0  0  0  0  0  0  0  0
   -4.5560  -17.2765   27.9320 H   0  0  0  0  0  0  0  0  0  0  0  0
   -3.3426  -15.6746   30.5082 H   0  0  0  0  0  0  0  0  0  0  0  0
   -4.7382  -16.2158   29.6481 H   0  0  0  0  0  0  0  0  0  0  0  0
   -3.5629  -18.6201   29.6087 H   0  0  0  0  0  0  0  0  0  0  0  0
   -1.7129  -18.9804   31.2410 H   0  0  0  0  0  0  0  0  0  0  0  0
   -1.6468  -17.2408   31.5361 H   0  0  0  0  0  0  0  0  0  0  0  0
   -1.2386  -17.9073   29.9452 H   0  0  0  0  0  0  0  0  0  0  0  0
   -6.4403  -17.4797   33.7825 H   0  0  0  0  0  0  0  0  0  0  0  0
   -5.8513  -20.0692   34.0139 H   0  0  0  0  0  0  0  0  0  0  0  0
    2.4907  -12.6268   29.1998 H   0  0  0  0  0  0  0  0  0  0  0  0
  1  2  1  0
  2  3  2  0
  3  4  1  0
  4  5  1  0
  5  6  1  0
  6  7  2  0
  6  8  1  0
  8  9  2  0
  8 10  1  0
 10 11  1  0
 10 12  1  0
 12 13  1  0
 13 14  1  0
 13 15  1  0
 15 16  2  0
 16 17  1  0
 17 18  2  0
 18 19  1  0
  4 20  2  0
 20 21  1  0
 21  2  1  0
 19 15  1  0
  1 22  1  0
  1 23  1  0
  1 24  1  0
  3 25  1  0
  5 26  1  0
 11 27  1  0
 11 28  1  0
 11 29  1  0
 12 30  1  0
 12 31  1  0
 13 32  1  0
 14 33  1  0
 14 34  1  0
 14 35  1  0
 17 36  1  0
 18 37  1  0
 20 38  1  0
M  END
>  <Energy>  (986) 
139.92747080252661

>  <compound_id>  (986) 
23479

>  <target_id>  (986) 
1

>  <reference_id>  (986) 
120

>  <inspiration_ids>  (986) 
[120, 88]

>  <energy_score>  (986) 
-8.0360722600999

>  <distance_score>  (986) 
14.239721176485052

>  <path>  (986) 
/opt/xchem-fragalysis-2/maxwin/BulkDock/SCRATCH/511013/C23479-P120/C23479-P120.minimised.mol

>  <scratch_subdir>  (986) 
/opt/xchem-fragalysis-2/maxwin/BulkDock/SCRATCH/511013/C23479-P120

>  <fragmenstein_runtime>  (986) 
16.31186556816101

>  <fragmenstein_outcome>  (986) 
too moved

>  <fragmenstein_mode>  (986) 
expansion

>  <fragmenstein_error>  (986) 


$$$$
C23479-P88
     RDKit          3D

 38 39  0  0  0  0  0  0  0  0999 V2000
    6.3424   -7.4921   25.9296 C   0  0  0  0  0  0  0  0  0  0  0  0
    5.8985   -8.7798   25.3348 C   0  0  0  0  0  0  0  0  0  0  0  0
    4.8235   -9.5909   25.6896 C   0  0  0  0  0  0  0  0  0  0  0  0
    4.5220  -10.9452   25.0406 C   0  0  0  0  0  0  0  0  0  0  0  0
    3.1782  -12.1158   25.2985 N   0  0  0  0  0  0  0  0  0  0  0  0
    3.1345  -13.7344   26.1736 C   0  0  0  0  0  0  0  0  0  0  0  0
    4.0146  -14.3629   26.6596 O   0  0  0  0  0  0  0  0  0  0  0  0
    1.6434  -14.4904   26.5453 C   0  0  0  0  0  0  0  0  0  0  0  0
    0.8912  -13.6866   27.0084 O   0  0  0  0  0  0  0  0  0  0  0  0
    1.4094  -15.9170   26.2316 N   0  0  0  0  0  0  0  0  0  0  0  0
    0.1866  -16.7192   26.2894 C   0  0  0  0  0  0  0  0  0  0  0  0
    1.7890  -16.8567   27.5167 C   0  0  0  0  0  0  0  0  0  0  0  0
    1.0872  -18.3599   28.0238 C   0  0  0  0  0  0  0  0  0  0  0  0
    1.8294  -18.9039   29.2523 C   0  0  0  0  0  0  0  0  0  0  0  0
   -0.4393  -18.4814   28.3189 C   0  0  0  0  0  0  0  0  0  0  0  0
   -1.2661  -19.1985   27.5728 N   0  0  0  0  0  0  0  0  0  0  0  0
   -2.5690  -19.0776   28.0245 C   0  0  0  0  0  0  0  0  0  0  0  0
   -2.7295  -18.2824   29.1339 C   0  0  0  0  0  0  0  0  0  0  0  0
   -1.2026  -17.7113   29.6639 S   0  0  0  0  0  0  0  0  0  0  0  0
    5.3475  -10.5795   23.9151 C   0  0  0  0  0  0  0  0  0  0  0  0
    6.6524   -9.4471   23.9993 S   0  0  0  0  0  0  0  0  0  0  0  0
    6.2090   -6.6709   25.2178 H   0  0  0  0  0  0  0  0  0  0  0  0
    5.7639   -7.2547   26.8283 H   0  0  0  0  0  0  0  0  0  0  0  0
    7.3983   -7.5383   26.2159 H   0  0  0  0  0  0  0  0  0  0  0  0
    4.1288   -9.1165   26.3069 H   0  0  0  0  0  0  0  0  0  0  0  0
    2.2413  -11.7983   25.0686 H   0  0  0  0  0  0  0  0  0  0  0  0
    0.3290  -17.7421   25.9303 H   0  0  0  0  0  0  0  0  0  0  0  0
   -0.5085  -16.3619   25.5224 H   0  0  0  0  0  0  0  0  0  0  0  0
   -0.4165  -16.4566   27.1618 H   0  0  0  0  0  0  0  0  0  0  0  0
    1.7063  -16.1904   28.3891 H   0  0  0  0  0  0  0  0  0  0  0  0
    2.8613  -17.0491   27.3766 H   0  0  0  0  0  0  0  0  0  0  0  0
    1.3036  -19.0620   27.2048 H   0  0  0  0  0  0  0  0  0  0  0  0
    1.4491  -19.8867   29.5526 H   0  0  0  0  0  0  0  0  0  0  0  0
    1.7458  -18.2258   30.1080 H   0  0  0  0  0  0  0  0  0  0  0  0
    2.8958  -19.0144   29.0278 H   0  0  0  0  0  0  0  0  0  0  0  0
   -3.3635  -19.5840   27.4913 H   0  0  0  0  0  0  0  0  0  0  0  0
   -3.6345  -18.0084   29.6562 H   0  0  0  0  0  0  0  0  0  0  0  0
    5.3067  -10.8435   22.9204 H   0  0  0  0  0  0  0  0  0  0  0  0
  1  2  1  0
  2  3  2  0
  3  4  1  0
  4  5  1  0
  5  6  1  0
  6  7  2  0
  6  8  1  0
  8  9  2  0
  8 10  1  0
 10 11  1  0
 10 12  1  0
 12 13  1  0
 13 14  1  0
 13 15  1  0
 15 16  2  0
 16 17  1  0
 17 18  2  0
 18 19  1  0
  4 20  2  0
 20 21  1  0
 21  2  1  0
 19 15  1  0
  1 22  1  0
  1 23  1  0
  1 24  1  0
  3 25  1  0
  5 26  1  0
 11 27  1  0
 11 28  1  0
 11 29  1  0
 12 30  1  0
 12 31  1  0
 13 32  1  0
 14 33  1  0
 14 34  1  0
 14 35  1  0
 17 36  1  0
 18 37  1  0
 20 38  1  0
M  END
>  <Energy>  (987) 
362.65353424669712

>  <compound_id>  (987) 
23479

>  <target_id>  (987) 
1

>  <reference_id>  (987) 
88

>  <inspiration_ids>  (987) 
[120, 88]

>  <energy_score>  (987) 
214.68999118407464

>  <distance_score>  (987) 
13.543620742290745

>  <path>  (987) 
/opt/xchem-fragalysis-2/maxwin/BulkDock/SCRATCH/511013/C23479-P88/C23479-P88.minimised.mol

>  <scratch_subdir>  (987) 
/opt/xchem-fragalysis-2/maxwin/BulkDock/SCRATCH/511013/C23479-P88

>  <fragmenstein_runtime>  (987) 
21.951584815979004

>  <fragmenstein_outcome>  (987) 
too moved

>  <fragmenstein_mode>  (987) 
expansion

>  <fragmenstein_error>  (987) 


$$$$
C23488-P120
     RDKit          3D

 40 41  0  0  0  0  0  0  0  0999 V2000
   -2.1713  -19.8759   23.2024 C   0  0  0  0  0  0  0  0  0  0  0  0
   -1.6792  -19.1525   21.9734 C   0  0  0  0  0  0  0  0  0  0  0  0
   -2.1711  -17.9949   21.4171 C   0  0  0  0  0  0  0  0  0  0  0  0
   -1.5322  -17.6600   20.1682 C   0  0  0  0  0  0  0  0  0  0  0  0
   -0.4850  -18.5047   19.7753 C   0  0  0  0  0  0  0  0  0  0  0  0
   -0.0657  -18.9763   18.3850 C   0  0  0  0  0  0  0  0  0  0  0  0
   -1.0393  -19.3044   17.7531 O   0  0  0  0  0  0  0  0  0  0  0  0
    1.3926  -19.0825   18.0388 N   0  0  0  0  0  0  0  0  0  0  0  0
    2.0563  -19.7184   16.8822 C   0  0  0  0  0  0  0  0  0  0  0  0
    1.9902  -17.5606   17.1748 C   0  0  0  0  0  0  0  0  0  0  0  0
    2.5846  -15.6181   17.1902 C   0  0  0  0  0  0  0  0  0  0  0  0
    3.6662  -15.1815   17.9861 O   0  0  0  0  0  0  0  0  0  0  0  0
    1.5174  -14.1060   16.6684 C   0  0  0  0  0  0  0  0  0  0  0  0
    1.9239  -12.6148   15.5164 N   0  0  0  0  0  0  0  0  0  0  0  0
    3.6082  -11.5822   15.4972 C   0  0  0  0  0  0  0  0  0  0  0  0
    4.3058  -10.6436   14.0544 C   0  0  0  0  0  0  0  0  0  0  0  0
    5.4987  -10.9756   13.5566 N   0  0  0  0  0  0  0  0  0  0  0  0
    6.0483  -10.0658   12.6624 C   0  0  0  0  0  0  0  0  0  0  0  0
    5.2272   -9.0235   12.3438 C   0  0  0  0  0  0  0  0  0  0  0  0
    3.7219   -9.3012   13.0880 S   0  0  0  0  0  0  0  0  0  0  0  0
   -0.3769  -19.7697   21.0285 S   0  0  0  0  0  0  0  0  0  0  0  0
   -2.5092  -20.8841   22.9423 H   0  0  0  0  0  0  0  0  0  0  0  0
   -3.0111  -19.3406   23.6575 H   0  0  0  0  0  0  0  0  0  0  0  0
   -1.3706  -19.9503   23.9451 H   0  0  0  0  0  0  0  0  0  0  0  0
   -3.0123  -17.4488   21.8268 H   0  0  0  0  0  0  0  0  0  0  0  0
   -1.9366  -16.8834   19.5354 H   0  0  0  0  0  0  0  0  0  0  0  0
    3.1371  -19.7832   16.8851 H   0  0  0  0  0  0  0  0  0  0  0  0
    1.5869  -19.5282   15.9069 H   0  0  0  0  0  0  0  0  0  0  0  0
    1.7812  -20.7752   17.0269 H   0  0  0  0  0  0  0  0  0  0  0  0
    1.3195  -17.6064   16.4328 H   0  0  0  0  0  0  0  0  0  0  0  0
    2.7201  -17.9293   16.4323 H   0  0  0  0  0  0  0  0  0  0  0  0
    3.0471  -15.7854   16.2584 H   0  0  0  0  0  0  0  0  0  0  0  0
    3.3949  -14.5631   18.6887 H   0  0  0  0  0  0  0  0  0  0  0  0
    1.0876  -13.7653   17.6016 H   0  0  0  0  0  0  0  0  0  0  0  0
    0.6954  -14.5089   16.1396 H   0  0  0  0  0  0  0  0  0  0  0  0
    1.4802  -12.8378   14.6389 H   0  0  0  0  0  0  0  0  0  0  0  0
    3.5846  -11.0035   16.4228 H   0  0  0  0  0  0  0  0  0  0  0  0
    4.4130  -12.2245   15.3350 H   0  0  0  0  0  0  0  0  0  0  0  0
    7.0494  -10.2376   12.2881 H   0  0  0  0  0  0  0  0  0  0  0  0
    5.4020   -8.1974   11.6706 H   0  0  0  0  0  0  0  0  0  0  0  0
  1  2  1  0
  2  3  2  0
  3  4  1  0
  4  5  2  0
  5  6  1  0
  6  7  2  0
  6  8  1  0
  8  9  1  0
  8 10  1  0
 10 11  1  0
 11 12  1  0
 11 13  1  0
 13 14  1  0
 14 15  1  0
 15 16  1  0
 16 17  2  0
 17 18  1  0
 18 19  2  0
 19 20  1  0
  5 21  1  0
 21  2  1  0
 20 16  1  0
  1 22  1  0
  1 23  1  0
  1 24  1  0
  3 25  1  0
  4 26  1  0
  9 27  1  0
  9 28  1  0
  9 29  1  0
 10 30  1  0
 10 31  1  0
 11 32  1  0
 12 33  1  0
 13 34  1  0
 13 35  1  0
 14 36  1  0
 15 37  1  0
 15 38  1  0
 18 39  1  0
 19 40  1  0
M  END
>  <Energy>  (988) 
552.60218312588711

>  <compound_id>  (988) 
23488

>  <target_id>  (988) 
1

>  <reference_id>  (988) 
120

>  <inspiration_ids>  (988) 
[120, 88]

>  <energy_score>  (988) 
396.2195585072003

>  <distance_score>  (988) 
15.39825666779381

>  <path>  (988) 
/opt/xchem-fragalysis-2/maxwin/BulkDock/SCRATCH/511013/C23488-P120/C23488-P120.minimised.mol

>  <scratch_subdir>  (988) 
/opt/xchem-fragalysis-2/maxwin/BulkDock/SCRATCH/511013/C23488-P120

>  <fragmenstein_runtime>  (988) 
16.111565351486206

>  <fragmenstein_outcome>  (988) 
too moved

>  <fragmenstein_mode>  (988) 
expansion

>  <fragmenstein_error>  (988) 


$$$$
C23488-P88
     RDKit          3D

 40 41  0  0  0  0  0  0  0  0999 V2000
    0.2031  -11.1729   27.8230 C   0  0  0  0  0  0  0  0  0  0  0  0
    1.0876   -9.9921   27.4668 C   0  0  0  0  0  0  0  0  0  0  0  0
    0.7377   -8.7301   27.0298 C   0  0  0  0  0  0  0  0  0  0  0  0
    1.8792   -7.8572   26.7665 C   0  0  0  0  0  0  0  0  0  0  0  0
    3.1183   -8.4437   26.9870 C   0  0  0  0  0  0  0  0  0  0  0  0
    4.6057   -8.1068   26.8013 C   0  0  0  0  0  0  0  0  0  0  0  0
    5.2357   -8.2402   27.8202 O   0  0  0  0  0  0  0  0  0  0  0  0
    5.0634   -7.7838   25.4297 N   0  0  0  0  0  0  0  0  0  0  0  0
    6.4133   -7.6407   24.8875 C   0  0  0  0  0  0  0  0  0  0  0  0
    5.0622   -6.1767   25.1895 C   0  0  0  0  0  0  0  0  0  0  0  0
    5.4941   -5.3337   23.7642 C   0  0  0  0  0  0  0  0  0  0  0  0
    4.8049   -5.9310   22.6727 O   0  0  0  0  0  0  0  0  0  0  0  0
    7.0337   -4.9839   23.3289 C   0  0  0  0  0  0  0  0  0  0  0  0
    7.2729   -4.1696   22.0680 N   0  0  0  0  0  0  0  0  0  0  0  0
    8.7461   -4.0464   21.8077 C   0  0  0  0  0  0  0  0  0  0  0  0
    9.1773   -3.1601   20.6533 C   0  0  0  0  0  0  0  0  0  0  0  0
    9.4041   -1.8629   20.7530 N   0  0  0  0  0  0  0  0  0  0  0  0
   10.0497   -1.4049   19.6187 C   0  0  0  0  0  0  0  0  0  0  0  0
   10.2737   -2.3490   18.6413 C   0  0  0  0  0  0  0  0  0  0  0  0
    9.6180   -3.8563   19.1364 S   0  0  0  0  0  0  0  0  0  0  0  0
    2.7982  -10.1037   27.5958 S   0  0  0  0  0  0  0  0  0  0  0  0
    0.5033  -12.0581   27.2537 H   0  0  0  0  0  0  0  0  0  0  0  0
   -0.8424  -10.9510   27.5875 H   0  0  0  0  0  0  0  0  0  0  0  0
    0.2793  -11.3924   28.8925 H   0  0  0  0  0  0  0  0  0  0  0  0
   -0.2907   -8.4179   26.8922 H   0  0  0  0  0  0  0  0  0  0  0  0
    1.7707   -6.8376   26.4187 H   0  0  0  0  0  0  0  0  0  0  0  0
    7.1017   -6.9668   25.4173 H   0  0  0  0  0  0  0  0  0  0  0  0
    6.4133   -7.6049   23.7953 H   0  0  0  0  0  0  0  0  0  0  0  0
    6.8680   -8.6218   25.0934 H   0  0  0  0  0  0  0  0  0  0  0  0
    3.9979   -5.9389   25.3224 H   0  0  0  0  0  0  0  0  0  0  0  0
    5.5599   -5.6942   26.0470 H   0  0  0  0  0  0  0  0  0  0  0  0
    5.0304   -4.3486   23.9088 H   0  0  0  0  0  0  0  0  0  0  0  0
    5.2744   -5.7097   21.8400 H   0  0  0  0  0  0  0  0  0  0  0  0
    7.5534   -5.9331   23.1719 H   0  0  0  0  0  0  0  0  0  0  0  0
    7.5006   -4.4722   24.1783 H   0  0  0  0  0  0  0  0  0  0  0  0
    6.9118   -3.2242   22.2142 H   0  0  0  0  0  0  0  0  0  0  0  0
    9.2230   -3.6441   22.7112 H   0  0  0  0  0  0  0  0  0  0  0  0
    9.1538   -5.0541   21.6585 H   0  0  0  0  0  0  0  0  0  0  0  0
   10.3447   -0.3635   19.5589 H   0  0  0  0  0  0  0  0  0  0  0  0
   10.7721   -2.2225   17.6905 H   0  0  0  0  0  0  0  0  0  0  0  0
  1  2  1  0
  2  3  2  0
  3  4  1  0
  4  5  2  0
  5  6  1  0
  6  7  2  0
  6  8  1  0
  8  9  1  0
  8 10  1  0
 10 11  1  0
 11 12  1  0
 11 13  1  0
 13 14  1  0
 14 15  1  0
 15 16  1  0
 16 17  2  0
 17 18  1  0
 18 19  2  0
 19 20  1  0
  5 21  1  0
 21  2  1  0
 20 16  1  0
  1 22  1  0
  1 23  1  0
  1 24  1  0
  3 25  1  0
  4 26  1  0
  9 27  1  0
  9 28  1  0
  9 29  1  0
 10 30  1  0
 10 31  1  0
 11 32  1  0
 12 33  1  0
 13 34  1  0
 13 35  1  0
 14 36  1  0
 15 37  1  0
 15 38  1  0
 18 39  1  0
 19 40  1  0
M  END
>  <Energy>  (989) 
183.60407740176365

>  <compound_id>  (989) 
23488

>  <target_id>  (989) 
1

>  <reference_id>  (989) 
88

>  <inspiration_ids>  (989) 
[120, 88]

>  <energy_score>  (989) 
27.221452783091422

>  <distance_score>  (989) 
17.177026801664887

>  <path>  (989) 
/opt/xchem-fragalysis-2/maxwin/BulkDock/SCRATCH/511013/C23488-P88/C23488-P88.minimised.mol

>  <scratch_subdir>  (989) 
/opt/xchem-fragalysis-2/maxwin/BulkDock/SCRATCH/511013/C23488-P88

>  <fragmenstein_runtime>  (989) 
14.291056394577026

>  <fragmenstein_outcome>  (989) 
too moved

>  <fragmenstein_mode>  (989) 
expansion

>  <fragmenstein_error>  (989) 


$$$$
C23489-P120
     RDKit          3D

 44 45  0  0  0  0  0  0  0  0999 V2000
    8.5715   -8.6962   25.5179 C   0  0  0  0  0  0  0  0  0  0  0  0
    7.3959   -8.2107   24.7444 C   0  0  0  0  0  0  0  0  0  0  0  0
    7.2899   -7.2969   23.6685 C   0  0  0  0  0  0  0  0  0  0  0  0
    5.9561   -6.9117   23.2328 C   0  0  0  0  0  0  0  0  0  0  0  0
    4.7735   -7.6151   23.6458 C   0  0  0  0  0  0  0  0  0  0  0  0
    2.7985   -8.5143   22.9048 S   0  0  0  0  0  0  0  0  0  0  0  0
    1.6975   -8.5057   21.9199 O   0  0  0  0  0  0  0  0  0  0  0  0
    1.9545   -7.9313   23.9019 O   0  0  0  0  0  0  0  0  0  0  0  0
    3.2265  -10.8455   22.9853 N   0  0  0  0  0  0  0  0  0  0  0  0
    2.2969  -12.2839   24.0171 C   0  0  0  0  0  0  0  0  0  0  0  0
    1.5032  -13.0000   25.6838 C   0  0  0  0  0  0  0  0  0  0  0  0
    0.4708  -12.5457   26.6843 N   0  0  0  0  0  0  0  0  0  0  0  0
    0.5841  -12.2489   28.0987 C   0  0  0  0  0  0  0  0  0  0  0  0
    1.5290  -12.2124   28.7976 O   0  0  0  0  0  0  0  0  0  0  0  0
   -0.8569  -12.0613   28.4209 N   0  0  0  0  0  0  0  0  0  0  0  0
   -1.5127  -11.6655   29.6891 C   0  0  0  0  0  0  0  0  0  0  0  0
   -1.5270  -13.4663   28.7765 C   0  0  0  0  0  0  0  0  0  0  0  0
   -3.0750  -13.6896   28.6004 C   0  0  0  0  0  0  0  0  0  0  0  0
   -3.5155  -15.1266   28.7232 C   0  0  0  0  0  0  0  0  0  0  0  0
   -3.7790  -15.9079   27.6965 N   0  0  0  0  0  0  0  0  0  0  0  0
   -4.2805  -17.1123   28.1460 C   0  0  0  0  0  0  0  0  0  0  0  0
   -4.3637  -17.2473   29.5141 C   0  0  0  0  0  0  0  0  0  0  0  0
   -3.8252  -15.8156   30.2716 S   0  0  0  0  0  0  0  0  0  0  0  0
    5.8232   -8.4898   25.2672 S   0  0  0  0  0  0  0  0  0  0  0  0
    9.4700   -8.1248   25.2633 H   0  0  0  0  0  0  0  0  0  0  0  0
    8.7627   -9.7500   25.2916 H   0  0  0  0  0  0  0  0  0  0  0  0
    8.4115   -8.5954   26.5964 H   0  0  0  0  0  0  0  0  0  0  0  0
    8.0931   -6.5629   23.4212 H   0  0  0  0  0  0  0  0  0  0  0  0
    6.2719   -6.6561   22.2742 H   0  0  0  0  0  0  0  0  0  0  0  0
    2.2410  -10.8334   22.8643 H   0  0  0  0  0  0  0  0  0  0  0  0
    1.4525  -12.0145   23.4446 H   0  0  0  0  0  0  0  0  0  0  0  0
    2.0672  -11.5431   24.6859 H   0  0  0  0  0  0  0  0  0  0  0  0
    2.1452  -13.6311   26.3060 H   0  0  0  0  0  0  0  0  0  0  0  0
    0.9044  -13.7641   25.2876 H   0  0  0  0  0  0  0  0  0  0  0  0
   -0.4823  -12.4058   26.3938 H   0  0  0  0  0  0  0  0  0  0  0  0
   -2.5832  -11.4687   29.5918 H   0  0  0  0  0  0  0  0  0  0  0  0
   -1.1993  -12.1916   30.6017 H   0  0  0  0  0  0  0  0  0  0  0  0
   -1.1001  -10.6603   29.8657 H   0  0  0  0  0  0  0  0  0  0  0  0
   -1.0831  -14.1334   28.0246 H   0  0  0  0  0  0  0  0  0  0  0  0
   -1.1203  -13.9062   29.7035 H   0  0  0  0  0  0  0  0  0  0  0  0
   -3.6573  -13.1050   29.3197 H   0  0  0  0  0  0  0  0  0  0  0  0
   -3.3587  -13.3200   27.6066 H   0  0  0  0  0  0  0  0  0  0  0  0
   -4.5709  -17.8577   27.4175 H   0  0  0  0  0  0  0  0  0  0  0  0
   -4.7253  -18.0761   30.1026 H   0  0  0  0  0  0  0  0  0  0  0  0
  1  2  1  0
  2  3  2  0
  3  4  1  0
  4  5  2  0
  5  6  1  0
  6  7  2  0
  6  8  2  0
  6  9  1  0
  9 10  1  0
 10 11  1  0
 11 12  1  0
 12 13  1  0
 13 14  2  0
 13 15  1  0
 15 16  1  0
 15 17  1  0
 17 18  1  0
 18 19  1  0
 19 20  2  0
 20 21  1  0
 21 22  2  0
 22 23  1  0
  5 24  1  0
 24  2  1  0
 23 19  1  0
  1 25  1  0
  1 26  1  0
  1 27  1  0
  3 28  1  0
  4 29  1  0
  9 30  1  0
 10 31  1  0
 10 32  1  0
 11 33  1  0
 11 34  1  0
 12 35  1  0
 16 36  1  0
 16 37  1  0
 16 38  1  0
 17 39  1  0
 17 40  1  0
 18 41  1  0
 18 42  1  0
 21 43  1  0
 22 44  1  0
M  END
>  <Energy>  (990) 
564.48705377874705

>  <compound_id>  (990) 
23489

>  <target_id>  (990) 
1

>  <reference_id>  (990) 
120

>  <inspiration_ids>  (990) 
[120, 88]

>  <energy_score>  (990) 
561.4587233257573

>  <distance_score>  (990) 
12.584362601317512

>  <path>  (990) 
/opt/xchem-fragalysis-2/maxwin/BulkDock/SCRATCH/511013/C23489-P120/C23489-P120.minimised.mol

>  <scratch_subdir>  (990) 
/opt/xchem-fragalysis-2/maxwin/BulkDock/SCRATCH/511013/C23489-P120

>  <fragmenstein_runtime>  (990) 
18.40697693824768

>  <fragmenstein_outcome>  (990) 
too moved

>  <fragmenstein_mode>  (990) 
expansion

>  <fragmenstein_error>  (990) 


$$$$
C23489-P88
     RDKit          3D

 44 45  0  0  0  0  0  0  0  0999 V2000
    6.2388  -10.0561   22.5950 C   0  0  0  0  0  0  0  0  0  0  0  0
    5.2901  -10.6942   23.5892 C   0  0  0  0  0  0  0  0  0  0  0  0
    5.1211  -10.1522   24.8018 C   0  0  0  0  0  0  0  0  0  0  0  0
    4.2904  -11.0517   25.5777 C   0  0  0  0  0  0  0  0  0  0  0  0
    3.5335  -12.4911   25.3058 C   0  0  0  0  0  0  0  0  0  0  0  0
    2.8520  -14.5424   26.1759 S   0  0  0  0  0  0  0  0  0  0  0  0
    3.6278  -14.8874   27.3511 O   0  0  0  0  0  0  0  0  0  0  0  0
    2.7377  -15.5365   25.1285 O   0  0  0  0  0  0  0  0  0  0  0  0
    1.0394  -14.7864   27.0447 N   0  0  0  0  0  0  0  0  0  0  0  0
    0.2571  -16.4289   26.9105 C   0  0  0  0  0  0  0  0  0  0  0  0
   -1.5224  -16.5533   26.9318 C   0  0  0  0  0  0  0  0  0  0  0  0
   -2.4575  -17.9469   27.0399 N   0  0  0  0  0  0  0  0  0  0  0  0
   -2.7413  -19.0541   25.9995 C   0  0  0  0  0  0  0  0  0  0  0  0
   -2.4199  -19.1137   24.8672 O   0  0  0  0  0  0  0  0  0  0  0  0
   -3.5112  -20.2519   26.8492 N   0  0  0  0  0  0  0  0  0  0  0  0
   -3.8476  -21.6052   26.4692 C   0  0  0  0  0  0  0  0  0  0  0  0
   -5.2874  -20.0856   26.7373 C   0  0  0  0  0  0  0  0  0  0  0  0
   -6.5318  -21.2792   27.5628 C   0  0  0  0  0  0  0  0  0  0  0  0
   -8.2103  -21.7596   28.3424 C   0  0  0  0  0  0  0  0  0  0  0  0
   -9.4554  -21.2496   28.2710 N   0  0  0  0  0  0  0  0  0  0  0  0
  -10.5268  -22.0243   28.6810 C   0  0  0  0  0  0  0  0  0  0  0  0
  -10.2347  -23.1399   29.4060 C   0  0  0  0  0  0  0  0  0  0  0  0
   -8.5595  -23.2734   29.6961 S   0  0  0  0  0  0  0  0  0  0  0  0
    4.0143  -12.3758   23.4573 S   0  0  0  0  0  0  0  0  0  0  0  0
    6.6342   -9.1311   23.0410 H   0  0  0  0  0  0  0  0  0  0  0  0
    5.7734   -9.7068   21.6797 H   0  0  0  0  0  0  0  0  0  0  0  0
    7.1372  -10.6436   22.4057 H   0  0  0  0  0  0  0  0  0  0  0  0
    5.6152   -9.2658   25.1861 H   0  0  0  0  0  0  0  0  0  0  0  0
    4.5329  -10.7412   26.5770 H   0  0  0  0  0  0  0  0  0  0  0  0
    1.3067  -14.7642   28.0374 H   0  0  0  0  0  0  0  0  0  0  0  0
    0.6343  -16.9604   27.7907 H   0  0  0  0  0  0  0  0  0  0  0  0
    0.6275  -16.8840   25.9917 H   0  0  0  0  0  0  0  0  0  0  0  0
   -1.8570  -16.1081   25.9918 H   0  0  0  0  0  0  0  0  0  0  0  0
   -1.8644  -15.9375   27.7695 H   0  0  0  0  0  0  0  0  0  0  0  0
   -2.8036  -18.2426   27.9452 H   0  0  0  0  0  0  0  0  0  0  0  0
   -4.0736  -22.1432   27.3749 H   0  0  0  0  0  0  0  0  0  0  0  0
   -4.4631  -21.7896   25.5821 H   0  0  0  0  0  0  0  0  0  0  0  0
   -2.8815  -22.0288   26.1579 H   0  0  0  0  0  0  0  0  0  0  0  0
   -5.4525  -19.0228   26.9166 H   0  0  0  0  0  0  0  0  0  0  0  0
   -5.4810  -20.1638   25.6602 H   0  0  0  0  0  0  0  0  0  0  0  0
   -5.8683  -21.6102   28.3302 H   0  0  0  0  0  0  0  0  0  0  0  0
   -7.0378  -20.3302   27.6723 H   0  0  0  0  0  0  0  0  0  0  0  0
  -11.5255  -21.6801   28.4444 H   0  0  0  0  0  0  0  0  0  0  0  0
  -10.9256  -23.8394   29.8522 H   0  0  0  0  0  0  0  0  0  0  0  0
  1  2  1  0
  2  3  2  0
  3  4  1  0
  4  5  2  0
  5  6  1  0
  6  7  2  0
  6  8  2  0
  6  9  1  0
  9 10  1  0
 10 11  1  0
 11 12  1  0
 12 13  1  0
 13 14  2  0
 13 15  1  0
 15 16  1  0
 15 17  1  0
 17 18  1  0
 18 19  1  0
 19 20  2  0
 20 21  1  0
 21 22  2  0
 22 23  1  0
  5 24  1  0
 24  2  1  0
 23 19  1  0
  1 25  1  0
  1 26  1  0
  1 27  1  0
  3 28  1  0
  4 29  1  0
  9 30  1  0
 10 31  1  0
 10 32  1  0
 11 33  1  0
 11 34  1  0
 12 35  1  0
 16 36  1  0
 16 37  1  0
 16 38  1  0
 17 39  1  0
 17 40  1  0
 18 41  1  0
 18 42  1  0
 21 43  1  0
 22 44  1  0
M  END
>  <Energy>  (991) 
471.92858281653901

>  <compound_id>  (991) 
23489

>  <target_id>  (991) 
1

>  <reference_id>  (991) 
88

>  <inspiration_ids>  (991) 
[120, 88]

>  <energy_score>  (991) 
468.90025236355484

>  <distance_score>  (991) 
10.54557147798372

>  <path>  (991) 
/opt/xchem-fragalysis-2/maxwin/BulkDock/SCRATCH/511013/C23489-P88/C23489-P88.minimised.mol

>  <scratch_subdir>  (991) 
/opt/xchem-fragalysis-2/maxwin/BulkDock/SCRATCH/511013/C23489-P88

>  <fragmenstein_runtime>  (991) 
24.681493282318115

>  <fragmenstein_outcome>  (991) 
too moved

>  <fragmenstein_mode>  (991) 
expansion

>  <fragmenstein_error>  (991) 


$$$$
C23492-P120
     RDKit          3D

 43 44  0  0  0  0  0  0  0  0999 V2000
   -8.5296  -17.1488   21.0855 C   0  0  0  0  0  0  0  0  0  0  0  0
   -8.0670  -16.1366   20.0659 C   0  0  0  0  0  0  0  0  0  0  0  0
   -7.8772  -16.2655   18.7054 C   0  0  0  0  0  0  0  0  0  0  0  0
   -7.3331  -15.0759   18.0656 C   0  0  0  0  0  0  0  0  0  0  0  0
   -7.0378  -14.0521   18.9488 C   0  0  0  0  0  0  0  0  0  0  0  0
   -6.2928  -12.6393   18.9287 C   0  0  0  0  0  0  0  0  0  0  0  0
   -5.6798  -12.6825   20.2228 O   0  0  0  0  0  0  0  0  0  0  0  0
   -5.1992  -11.6168   17.6997 C   0  0  0  0  0  0  0  0  0  0  0  0
   -3.6776  -10.2303   17.4506 C   0  0  0  0  0  0  0  0  0  0  0  0
   -1.8508  -10.1800   17.6674 N   0  0  0  0  0  0  0  0  0  0  0  0
   -2.4375  -10.9574   18.7673 C   0  0  0  0  0  0  0  0  0  0  0  0
   -0.6991   -8.7313   17.8059 C   0  0  0  0  0  0  0  0  0  0  0  0
   -0.3200   -8.1403   18.7656 O   0  0  0  0  0  0  0  0  0  0  0  0
   -0.2341   -8.5715   16.1352 N   0  0  0  0  0  0  0  0  0  0  0  0
    1.1080   -7.5203   15.2629 C   0  0  0  0  0  0  0  0  0  0  0  0
    0.1648   -7.1381   13.8123 C   0  0  0  0  0  0  0  0  0  0  0  0
    2.0674   -6.1044   14.8574 C   0  0  0  0  0  0  0  0  0  0  0  0
    3.3810   -6.2334   14.6305 N   0  0  0  0  0  0  0  0  0  0  0  0
    3.9918   -5.0473   14.2458 C   0  0  0  0  0  0  0  0  0  0  0  0
    3.1399   -3.9919   14.0479 C   0  0  0  0  0  0  0  0  0  0  0  0
    1.5217   -4.5052   14.3081 S   0  0  0  0  0  0  0  0  0  0  0  0
   -7.7242  -14.5390   20.5452 S   0  0  0  0  0  0  0  0  0  0  0  0
   -9.4257  -16.7927   21.6035 H   0  0  0  0  0  0  0  0  0  0  0  0
   -8.7720  -18.0991   20.5991 H   0  0  0  0  0  0  0  0  0  0  0  0
   -7.7421  -17.3336   21.8231 H   0  0  0  0  0  0  0  0  0  0  0  0
   -8.0824  -17.1828   18.1651 H   0  0  0  0  0  0  0  0  0  0  0  0
   -7.0843  -15.0344   17.0118 H   0  0  0  0  0  0  0  0  0  0  0  0
   -7.2221  -12.0291   18.9392 H   0  0  0  0  0  0  0  0  0  0  0  0
   -6.3118  -12.3436   20.8860 H   0  0  0  0  0  0  0  0  0  0  0  0
   -5.9807  -10.9887   17.2138 H   0  0  0  0  0  0  0  0  0  0  0  0
   -5.3701  -12.4241   16.9798 H   0  0  0  0  0  0  0  0  0  0  0  0
   -3.6977  -10.1168   16.3684 H   0  0  0  0  0  0  0  0  0  0  0  0
   -3.9180   -9.1557   17.5322 H   0  0  0  0  0  0  0  0  0  0  0  0
   -1.6271  -11.2182   19.4480 H   0  0  0  0  0  0  0  0  0  0  0  0
   -2.7126  -11.9437   18.4265 H   0  0  0  0  0  0  0  0  0  0  0  0
   -3.0651  -10.4051   19.4763 H   0  0  0  0  0  0  0  0  0  0  0  0
   -0.8083   -9.1620   15.5686 H   0  0  0  0  0  0  0  0  0  0  0  0
    1.9528   -8.1356   15.0114 H   0  0  0  0  0  0  0  0  0  0  0  0
   -0.6260   -7.8187   13.4840 H   0  0  0  0  0  0  0  0  0  0  0  0
   -0.3937   -6.2116   13.9755 H   0  0  0  0  0  0  0  0  0  0  0  0
    0.8420   -7.0232   12.9558 H   0  0  0  0  0  0  0  0  0  0  0  0
    5.0655   -5.0252   14.1077 H   0  0  0  0  0  0  0  0  0  0  0  0
    3.3709   -2.9857   13.7303 H   0  0  0  0  0  0  0  0  0  0  0  0
  1  2  1  0
  2  3  2  0
  3  4  1  0
  4  5  2  0
  5  6  1  0
  6  7  1  0
  6  8  1  0
  8  9  1  0
  9 10  1  0
 10 11  1  0
 10 12  1  0
 12 13  2  0
 12 14  1  0
 14 15  1  0
 15 16  1  0
 15 17  1  0
 17 18  2  0
 18 19  1  0
 19 20  2  0
 20 21  1  0
  5 22  1  0
 22  2  1  0
 21 17  1  0
  1 23  1  0
  1 24  1  0
  1 25  1  0
  3 26  1  0
  4 27  1  0
  6 28  1  0
  7 29  1  0
  8 30  1  0
  8 31  1  0
  9 32  1  0
  9 33  1  0
 11 34  1  0
 11 35  1  0
 11 36  1  0
 14 37  1  0
 15 38  1  0
 16 39  1  0
 16 40  1  0
 16 41  1  0
 19 42  1  0
 20 43  1  0
M  END
>  <Energy>  (992) 
535.18982778339569

>  <compound_id>  (992) 
23492

>  <target_id>  (992) 
1

>  <reference_id>  (992) 
120

>  <inspiration_ids>  (992) 
[120, 88]

>  <energy_score>  (992) 
520.3417942229871

>  <distance_score>  (992) 
14.702062362527634

>  <path>  (992) 
/opt/xchem-fragalysis-2/maxwin/BulkDock/SCRATCH/511013/C23492-P120/C23492-P120.minimised.mol

>  <scratch_subdir>  (992) 
/opt/xchem-fragalysis-2/maxwin/BulkDock/SCRATCH/511013/C23492-P120

>  <fragmenstein_runtime>  (992) 
13.962016344070435

>  <fragmenstein_outcome>  (992) 
too moved

>  <fragmenstein_mode>  (992) 
expansion

>  <fragmenstein_error>  (992) 


$$$$
C23492-P88
     RDKit          3D

 43 44  0  0  0  0  0  0  0  0999 V2000
   -4.4119  -14.7185   26.6130 C   0  0  0  0  0  0  0  0  0  0  0  0
   -3.9692  -14.4802   25.1991 C   0  0  0  0  0  0  0  0  0  0  0  0
   -4.1668  -15.2812   24.1136 C   0  0  0  0  0  0  0  0  0  0  0  0
   -3.7760  -14.5800   22.9254 C   0  0  0  0  0  0  0  0  0  0  0  0
   -2.4928  -13.8106   23.0108 C   0  0  0  0  0  0  0  0  0  0  0  0
   -1.2136  -12.7776   21.8513 C   0  0  0  0  0  0  0  0  0  0  0  0
    0.2738  -12.7368   22.0045 O   0  0  0  0  0  0  0  0  0  0  0  0
   -1.1826  -11.1691   20.5279 C   0  0  0  0  0  0  0  0  0  0  0  0
   -1.6456   -9.5169   19.4412 C   0  0  0  0  0  0  0  0  0  0  0  0
   -2.6594   -8.3481   18.4989 N   0  0  0  0  0  0  0  0  0  0  0  0
   -3.5902   -8.6717   19.5066 C   0  0  0  0  0  0  0  0  0  0  0  0
   -2.6583   -8.6991   16.9861 C   0  0  0  0  0  0  0  0  0  0  0  0
   -3.4004   -9.3958   16.3762 O   0  0  0  0  0  0  0  0  0  0  0  0
   -1.4858   -7.8009   16.4848 N   0  0  0  0  0  0  0  0  0  0  0  0
   -1.0283   -7.4854   15.1002 C   0  0  0  0  0  0  0  0  0  0  0  0
   -2.2055   -7.1590   14.1801 C   0  0  0  0  0  0  0  0  0  0  0  0
    0.1212   -6.4232   14.9015 C   0  0  0  0  0  0  0  0  0  0  0  0
    1.2611   -6.6707   14.2589 N   0  0  0  0  0  0  0  0  0  0  0  0
    2.0358   -5.5218   14.1202 C   0  0  0  0  0  0  0  0  0  0  0  0
    1.4844   -4.3795   14.6467 C   0  0  0  0  0  0  0  0  0  0  0  0
   -0.0618   -4.7499   15.2966 S   0  0  0  0  0  0  0  0  0  0  0  0
   -3.4012  -12.9385   24.6262 S   0  0  0  0  0  0  0  0  0  0  0  0
   -4.5334  -15.7893   26.8058 H   0  0  0  0  0  0  0  0  0  0  0  0
   -3.6706  -14.3297   27.3185 H   0  0  0  0  0  0  0  0  0  0  0  0
   -5.3695  -14.2225   26.8001 H   0  0  0  0  0  0  0  0  0  0  0  0
   -4.7837  -16.1720   24.1408 H   0  0  0  0  0  0  0  0  0  0  0  0
   -4.2645  -14.9205   22.0253 H   0  0  0  0  0  0  0  0  0  0  0  0
   -1.3258  -12.4394   22.9036 H   0  0  0  0  0  0  0  0  0  0  0  0
    0.8571  -13.2900   21.4010 H   0  0  0  0  0  0  0  0  0  0  0  0
   -2.0849  -11.3256   19.6014 H   0  0  0  0  0  0  0  0  0  0  0  0
   -0.1888  -10.6235   20.6179 H   0  0  0  0  0  0  0  0  0  0  0  0
   -1.3470   -8.7515   20.1271 H   0  0  0  0  0  0  0  0  0  0  0  0
   -0.7697   -9.4483   18.8112 H   0  0  0  0  0  0  0  0  0  0  0  0
   -3.9595   -9.6890   19.3796 H   0  0  0  0  0  0  0  0  0  0  0  0
   -3.3721   -8.2208   20.4625 H   0  0  0  0  0  0  0  0  0  0  0  0
   -4.4882   -8.1092   19.2058 H   0  0  0  0  0  0  0  0  0  0  0  0
   -1.0063   -7.4106   17.2716 H   0  0  0  0  0  0  0  0  0  0  0  0
   -0.5731   -8.4010   14.7413 H   0  0  0  0  0  0  0  0  0  0  0  0
   -2.9283   -7.9804   14.1543 H   0  0  0  0  0  0  0  0  0  0  0  0
   -2.7393   -6.2621   14.5099 H   0  0  0  0  0  0  0  0  0  0  0  0
   -1.8660   -6.9852   13.1529 H   0  0  0  0  0  0  0  0  0  0  0  0
    2.9981   -5.5915   13.6290 H   0  0  0  0  0  0  0  0  0  0  0  0
    1.8877   -3.3784   14.6757 H   0  0  0  0  0  0  0  0  0  0  0  0
  1  2  1  0
  2  3  2  0
  3  4  1  0
  4  5  2  0
  5  6  1  0
  6  7  1  0
  6  8  1  0
  8  9  1  0
  9 10  1  0
 10 11  1  0
 10 12  1  0
 12 13  2  0
 12 14  1  0
 14 15  1  0
 15 16  1  0
 15 17  1  0
 17 18  2  0
 18 19  1  0
 19 20  2  0
 20 21  1  0
  5 22  1  0
 22  2  1  0
 21 17  1  0
  1 23  1  0
  1 24  1  0
  1 25  1  0
  3 26  1  0
  4 27  1  0
  6 28  1  0
  7 29  1  0
  8 30  1  0
  8 31  1  0
  9 32  1  0
  9 33  1  0
 11 34  1  0
 11 35  1  0
 11 36  1  0
 14 37  1  0
 15 38  1  0
 16 39  1  0
 16 40  1  0
 16 41  1  0
 19 42  1  0
 20 43  1  0
M  END
>  <Energy>  (993) 
545.2074567285556

>  <compound_id>  (993) 
23492

>  <target_id>  (993) 
1

>  <reference_id>  (993) 
88

>  <inspiration_ids>  (993) 
[120, 88]

>  <energy_score>  (993) 
530.3594231681584

>  <distance_score>  (993) 
15.473712886761453

>  <path>  (993) 
/opt/xchem-fragalysis-2/maxwin/BulkDock/SCRATCH/511013/C23492-P88/C23492-P88.minimised.mol

>  <scratch_subdir>  (993) 
/opt/xchem-fragalysis-2/maxwin/BulkDock/SCRATCH/511013/C23492-P88

>  <fragmenstein_runtime>  (993) 
19.836475610733032

>  <fragmenstein_outcome>  (993) 
too moved

>  <fragmenstein_mode>  (993) 
expansion

>  <fragmenstein_error>  (993) 


$$$$
C23493-P120
     RDKit          3D

 45 46  0  0  0  0  0  0  0  0999 V2000
    2.6164  -14.4462   25.7603 C   0  0  0  0  0  0  0  0  0  0  0  0
    1.7939  -13.9156   24.6310 C   0  0  0  0  0  0  0  0  0  0  0  0
    0.6554  -14.5389   24.1589 C   0  0  0  0  0  0  0  0  0  0  0  0
   -0.1157  -13.6841   23.0836 C   0  0  0  0  0  0  0  0  0  0  0  0
    0.4224  -11.8311   22.7183 C   0  0  0  0  0  0  0  0  0  0  0  0
    0.0756  -10.5157   21.3866 C   0  0  0  0  0  0  0  0  0  0  0  0
   -1.0894  -10.6006   21.0061 O   0  0  0  0  0  0  0  0  0  0  0  0
    1.3153   -9.5493   20.7753 N   0  0  0  0  0  0  0  0  0  0  0  0
    1.3854   -8.4450   19.2672 C   0  0  0  0  0  0  0  0  0  0  0  0
    2.8934   -7.7019   18.2217 C   0  0  0  0  0  0  0  0  0  0  0  0
    4.6300   -6.8921   18.2379 N   0  0  0  0  0  0  0  0  0  0  0  0
    5.2704   -5.9877   17.1823 C   0  0  0  0  0  0  0  0  0  0  0  0
    5.7468   -4.5845   17.5660 C   0  0  0  0  0  0  0  0  0  0  0  0
    6.5817   -4.2666   18.5381 N   0  0  0  0  0  0  0  0  0  0  0  0
    6.7950   -2.9006   18.5509 C   0  0  0  0  0  0  0  0  0  0  0  0
    6.2611   -2.1951   17.4980 C   0  0  0  0  0  0  0  0  0  0  0  0
    5.3367   -3.2566   16.5234 S   0  0  0  0  0  0  0  0  0  0  0  0
    1.8106   -9.2798   17.8305 C   0  0  0  0  0  0  0  0  0  0  0  0
    3.1379  -10.5607   17.1050 C   0  0  0  0  0  0  0  0  0  0  0  0
    3.8451  -10.9289   15.3779 C   0  0  0  0  0  0  0  0  0  0  0  0
    3.5982  -12.0967   17.8547 C   0  0  0  0  0  0  0  0  0  0  0  0
    2.3410  -12.3562   23.7565 S   0  0  0  0  0  0  0  0  0  0  0  0
    3.5662  -14.8378   25.3824 H   0  0  0  0  0  0  0  0  0  0  0  0
    2.0995  -15.2544   26.2877 H   0  0  0  0  0  0  0  0  0  0  0  0
    2.8291  -13.6541   26.4852 H   0  0  0  0  0  0  0  0  0  0  0  0
    0.2901  -15.5088   24.4613 H   0  0  0  0  0  0  0  0  0  0  0  0
   -0.3388  -14.4409   22.3233 H   0  0  0  0  0  0  0  0  0  0  0  0
    2.1055   -9.6389   21.3414 H   0  0  0  0  0  0  0  0  0  0  0  0
    0.4043   -7.9728   19.1665 H   0  0  0  0  0  0  0  0  0  0  0  0
    3.4639   -8.6269   18.2920 H   0  0  0  0  0  0  0  0  0  0  0  0
    2.6176   -6.9527   18.9820 H   0  0  0  0  0  0  0  0  0  0  0  0
    5.2954   -7.6295   18.5131 H   0  0  0  0  0  0  0  0  0  0  0  0
    4.6701   -5.9185   16.2727 H   0  0  0  0  0  0  0  0  0  0  0  0
    6.1986   -6.4658   16.8731 H   0  0  0  0  0  0  0  0  0  0  0  0
    7.3474   -2.4695   19.3724 H   0  0  0  0  0  0  0  0  0  0  0  0
    6.3178   -1.1372   17.2905 H   0  0  0  0  0  0  0  0  0  0  0  0
    1.7695   -8.4436   17.0875 H   0  0  0  0  0  0  0  0  0  0  0  0
    0.7946   -9.3016   17.6212 H   0  0  0  0  0  0  0  0  0  0  0  0
    3.9273   -9.9230   17.3387 H   0  0  0  0  0  0  0  0  0  0  0  0
    4.0195  -11.9581   15.2823 H   0  0  0  0  0  0  0  0  0  0  0  0
    4.8070  -10.6556   14.9617 H   0  0  0  0  0  0  0  0  0  0  0  0
    3.4084  -10.4785   14.4813 H   0  0  0  0  0  0  0  0  0  0  0  0
    4.2413  -12.1973   17.0609 H   0  0  0  0  0  0  0  0  0  0  0  0
    4.3198  -12.3429   18.6792 H   0  0  0  0  0  0  0  0  0  0  0  0
    3.0358  -13.0020   18.0350 H   0  0  0  0  0  0  0  0  0  0  0  0
  1  2  1  0
  2  3  2  0
  3  4  1  0
  4  5  2  0
  5  6  1  0
  6  7  2  0
  6  8  1  0
  8  9  1  0
  9 10  1  0
 10 11  1  0
 11 12  1  0
 12 13  1  0
 13 14  2  0
 14 15  1  0
 15 16  2  0
 16 17  1  0
  9 18  1  0
 18 19  1  0
 19 20  1  0
 19 21  1  0
  5 22  1  0
 22  2  1  0
 17 13  1  0
  1 23  1  0
  1 24  1  0
  1 25  1  0
  3 26  1  0
  4 27  1  0
  8 28  1  0
  9 29  1  0
 10 30  1  0
 10 31  1  0
 11 32  1  0
 12 33  1  0
 12 34  1  0
 15 35  1  0
 16 36  1  0
 18 37  1  0
 18 38  1  0
 19 39  1  0
 20 40  1  0
 20 41  1  0
 20 42  1  0
 21 43  1  0
 21 44  1  0
 21 45  1  0
M  END
>  <Energy>  (994) 
872.41082814385311

>  <compound_id>  (994) 
23493

>  <target_id>  (994) 
1

>  <reference_id>  (994) 
120

>  <inspiration_ids>  (994) 
[120, 88]

>  <energy_score>  (994) 
732.3824702109146

>  <distance_score>  (994) 
15.964808732237499

>  <path>  (994) 
/opt/xchem-fragalysis-2/maxwin/BulkDock/SCRATCH/511013/C23493-P120/C23493-P120.minimised.mol

>  <scratch_subdir>  (994) 
/opt/xchem-fragalysis-2/maxwin/BulkDock/SCRATCH/511013/C23493-P120

>  <fragmenstein_runtime>  (994) 
14.923185110092163

>  <fragmenstein_outcome>  (994) 
too moved

>  <fragmenstein_mode>  (994) 
expansion

>  <fragmenstein_error>  (994) 


$$$$
C23493-P88
     RDKit          3D

 45 46  0  0  0  0  0  0  0  0999 V2000
   -0.5310  -10.0582   27.3039 C   0  0  0  0  0  0  0  0  0  0  0  0
    0.1494   -8.8158   26.7562 C   0  0  0  0  0  0  0  0  0  0  0  0
   -0.4076   -7.7042   26.1609 C   0  0  0  0  0  0  0  0  0  0  0  0
    0.5810   -6.7409   25.6869 C   0  0  0  0  0  0  0  0  0  0  0  0
    1.9099   -7.1123   25.8853 C   0  0  0  0  0  0  0  0  0  0  0  0
    3.3080   -6.5234   25.4676 C   0  0  0  0  0  0  0  0  0  0  0  0
    4.2454   -7.0824   25.9624 O   0  0  0  0  0  0  0  0  0  0  0  0
    3.2567   -5.3542   24.5597 N   0  0  0  0  0  0  0  0  0  0  0  0
    4.3802   -4.4198   24.0426 C   0  0  0  0  0  0  0  0  0  0  0  0
    5.1441   -4.7033   22.6060 C   0  0  0  0  0  0  0  0  0  0  0  0
    6.0853   -3.6266   22.1052 N   0  0  0  0  0  0  0  0  0  0  0  0
    6.7870   -3.9957   20.8400 C   0  0  0  0  0  0  0  0  0  0  0  0
    7.8084   -2.9619   20.3715 C   0  0  0  0  0  0  0  0  0  0  0  0
    7.5424   -1.7085   20.0414 N   0  0  0  0  0  0  0  0  0  0  0  0
    8.7143   -1.0496   19.7074 C   0  0  0  0  0  0  0  0  0  0  0  0
    9.8506   -1.8254   19.6775 C   0  0  0  0  0  0  0  0  0  0  0  0
    9.4630   -3.4219   20.1696 S   0  0  0  0  0  0  0  0  0  0  0  0
    5.4282   -4.1451   25.1500 C   0  0  0  0  0  0  0  0  0  0  0  0
    5.0074   -3.0966   26.2050 C   0  0  0  0  0  0  0  0  0  0  0  0
    3.7941   -3.5021   27.0395 C   0  0  0  0  0  0  0  0  0  0  0  0
    6.1894   -2.8077   27.1372 C   0  0  0  0  0  0  0  0  0  0  0  0
    1.8538   -8.5976   26.8851 S   0  0  0  0  0  0  0  0  0  0  0  0
   -0.1173  -10.9549   26.8320 H   0  0  0  0  0  0  0  0  0  0  0  0
   -1.6058  -10.0259   27.0996 H   0  0  0  0  0  0  0  0  0  0  0  0
   -0.3854  -10.1230   28.3866 H   0  0  0  0  0  0  0  0  0  0  0  0
   -1.4764   -7.5706   26.0390 H   0  0  0  0  0  0  0  0  0  0  0  0
    0.2984   -5.8242   25.1837 H   0  0  0  0  0  0  0  0  0  0  0  0
    2.3016   -5.2005   24.2717 H   0  0  0  0  0  0  0  0  0  0  0  0
    3.8349   -3.4839   23.8589 H   0  0  0  0  0  0  0  0  0  0  0  0
    4.3651   -4.8711   21.8536 H   0  0  0  0  0  0  0  0  0  0  0  0
    5.7025   -5.6395   22.7239 H   0  0  0  0  0  0  0  0  0  0  0  0
    5.5590   -2.7721   21.9233 H   0  0  0  0  0  0  0  0  0  0  0  0
    7.2822   -4.9628   20.9874 H   0  0  0  0  0  0  0  0  0  0  0  0
    6.0473   -4.1260   20.0437 H   0  0  0  0  0  0  0  0  0  0  0  0
    8.6817    0.0087   19.4791 H   0  0  0  0  0  0  0  0  0  0  0  0
   10.8587   -1.5311   19.4217 H   0  0  0  0  0  0  0  0  0  0  0  0
    5.7187   -5.0788   25.6431 H   0  0  0  0  0  0  0  0  0  0  0  0
    6.3467   -3.7671   24.6851 H   0  0  0  0  0  0  0  0  0  0  0  0
    4.7630   -2.1621   25.6837 H   0  0  0  0  0  0  0  0  0  0  0  0
    3.9491   -4.4711   27.5244 H   0  0  0  0  0  0  0  0  0  0  0  0
    2.8887   -3.5548   26.4289 H   0  0  0  0  0  0  0  0  0  0  0  0
    3.6010   -2.7637   27.8257 H   0  0  0  0  0  0  0  0  0  0  0  0
    7.0585   -2.4588   26.5695 H   0  0  0  0  0  0  0  0  0  0  0  0
    6.4842   -3.7042   27.6933 H   0  0  0  0  0  0  0  0  0  0  0  0
    5.9333   -2.0276   27.8621 H   0  0  0  0  0  0  0  0  0  0  0  0
  1  2  1  0
  2  3  2  0
  3  4  1  0
  4  5  2  0
  5  6  1  0
  6  7  2  0
  6  8  1  0
  8  9  1  0
  9 10  1  0
 10 11  1  0
 11 12  1  0
 12 13  1  0
 13 14  2  0
 14 15  1  0
 15 16  2  0
 16 17  1  0
  9 18  1  0
 18 19  1  0
 19 20  1  0
 19 21  1  0
  5 22  1  0
 22  2  1  0
 17 13  1  0
  1 23  1  0
  1 24  1  0
  1 25  1  0
  3 26  1  0
  4 27  1  0
  8 28  1  0
  9 29  1  0
 10 30  1  0
 10 31  1  0
 11 32  1  0
 12 33  1  0
 12 34  1  0
 15 35  1  0
 16 36  1  0
 18 37  1  0
 18 38  1  0
 19 39  1  0
 20 40  1  0
 20 41  1  0
 20 42  1  0
 21 43  1  0
 21 44  1  0
 21 45  1  0
M  END
>  <Energy>  (995) 
76.136753235645031

>  <compound_id>  (995) 
23493

>  <target_id>  (995) 
1

>  <reference_id>  (995) 
88

>  <inspiration_ids>  (995) 
[120, 88]

>  <energy_score>  (995) 
-63.891604697296145

>  <distance_score>  (995) 
17.59694159829173

>  <path>  (995) 
/opt/xchem-fragalysis-2/maxwin/BulkDock/SCRATCH/511013/C23493-P88/C23493-P88.minimised.mol

>  <scratch_subdir>  (995) 
/opt/xchem-fragalysis-2/maxwin/BulkDock/SCRATCH/511013/C23493-P88

>  <fragmenstein_runtime>  (995) 
25.540406703948975

>  <fragmenstein_outcome>  (995) 
too moved

>  <fragmenstein_mode>  (995) 
expansion

>  <fragmenstein_error>  (995) 


$$$$
C23497-P120
     RDKit          3D

 41 42  0  0  0  0  0  0  0  0999 V2000
   -0.2623   -4.7232   22.4832 C   0  0  0  0  0  0  0  0  0  0  0  0
   -0.1775   -6.0580   21.8292 C   0  0  0  0  0  0  0  0  0  0  0  0
    0.1023   -6.3560   20.5214 C   0  0  0  0  0  0  0  0  0  0  0  0
    0.0549   -7.7634   20.3086 C   0  0  0  0  0  0  0  0  0  0  0  0
   -0.1364   -8.5501   21.4625 C   0  0  0  0  0  0  0  0  0  0  0  0
   -0.1111  -10.1569   21.4375 C   0  0  0  0  0  0  0  0  0  0  0  0
    0.3168  -11.5569   22.4833 C   0  0  0  0  0  0  0  0  0  0  0  0
    2.0127  -11.9879   23.3826 C   0  0  0  0  0  0  0  0  0  0  0  0
   -0.9588  -13.0287   22.0702 N   0  0  0  0  0  0  0  0  0  0  0  0
   -1.4318  -14.1996   22.8982 C   0  0  0  0  0  0  0  0  0  0  0  0
   -1.2136  -14.4805   24.0316 O   0  0  0  0  0  0  0  0  0  0  0  0
   -2.4135  -15.0120   22.0346 C   0  0  0  0  0  0  0  0  0  0  0  0
   -3.4912  -15.7306   22.8560 C   0  0  0  0  0  0  0  0  0  0  0  0
   -4.4429  -14.7691   23.5968 C   0  0  0  0  0  0  0  0  0  0  0  0
   -4.0948  -13.6474   23.8299 O   0  0  0  0  0  0  0  0  0  0  0  0
   -5.6398  -15.4803   23.9704 N   0  0  0  0  0  0  0  0  0  0  0  0
   -6.6787  -15.1190   24.7677 C   0  0  0  0  0  0  0  0  0  0  0  0
   -7.8716  -15.6585   24.7015 N   0  0  0  0  0  0  0  0  0  0  0  0
   -8.6495  -15.2084   25.7515 C   0  0  0  0  0  0  0  0  0  0  0  0
   -8.0242  -14.3318   26.6063 C   0  0  0  0  0  0  0  0  0  0  0  0
   -6.4273  -14.0356   26.0540 S   0  0  0  0  0  0  0  0  0  0  0  0
   -0.4826   -7.4753   22.7378 S   0  0  0  0  0  0  0  0  0  0  0  0
   -1.3084   -4.4422   22.6431 H   0  0  0  0  0  0  0  0  0  0  0  0
    0.2502   -4.7198   23.4508 H   0  0  0  0  0  0  0  0  0  0  0  0
    0.2032   -3.9535   21.8586 H   0  0  0  0  0  0  0  0  0  0  0  0
    0.3019   -5.6192   19.7539 H   0  0  0  0  0  0  0  0  0  0  0  0
    0.2225   -8.1878   19.3284 H   0  0  0  0  0  0  0  0  0  0  0  0
    0.8192  -10.1010   20.9387 H   0  0  0  0  0  0  0  0  0  0  0  0
   -1.0195  -10.4507   20.8985 H   0  0  0  0  0  0  0  0  0  0  0  0
   -0.0243  -10.6958   22.9721 H   0  0  0  0  0  0  0  0  0  0  0  0
    1.8612  -11.8617   24.4321 H   0  0  0  0  0  0  0  0  0  0  0  0
    2.4039  -13.0174   23.5303 H   0  0  0  0  0  0  0  0  0  0  0  0
    2.9248  -11.5640   22.9744 H   0  0  0  0  0  0  0  0  0  0  0  0
   -1.4123  -13.0585   21.1512 H   0  0  0  0  0  0  0  0  0  0  0  0
   -2.9154  -14.3584   21.3124 H   0  0  0  0  0  0  0  0  0  0  0  0
   -1.8243  -15.7468   21.4749 H   0  0  0  0  0  0  0  0  0  0  0  0
   -3.0317  -16.3842   23.6063 H   0  0  0  0  0  0  0  0  0  0  0  0
   -4.0743  -16.3562   22.1701 H   0  0  0  0  0  0  0  0  0  0  0  0
   -5.6364  -16.3872   23.5282 H   0  0  0  0  0  0  0  0  0  0  0  0
   -9.6674  -15.5598   25.8529 H   0  0  0  0  0  0  0  0  0  0  0  0
   -8.4128  -13.8496   27.4912 H   0  0  0  0  0  0  0  0  0  0  0  0
  1  2  1  0
  2  3  2  0
  3  4  1  0
  4  5  2  0
  5  6  1  0
  6  7  1  0
  7  8  1  0
  7  9  1  0
  9 10  1  0
 10 11  2  0
 10 12  1  0
 12 13  1  0
 13 14  1  0
 14 15  2  0
 14 16  1  0
 16 17  1  0
 17 18  2  0
 18 19  1  0
 19 20  2  0
 20 21  1  0
  5 22  1  0
 22  2  1  0
 21 17  1  0
  1 23  1  0
  1 24  1  0
  1 25  1  0
  3 26  1  0
  4 27  1  0
  6 28  1  0
  6 29  1  0
  7 30  1  0
  8 31  1  0
  8 32  1  0
  8 33  1  0
  9 34  1  0
 12 35  1  0
 12 36  1  0
 13 37  1  0
 13 38  1  0
 16 39  1  0
 19 40  1  0
 20 41  1  0
M  END
>  <Energy>  (996) 
207.99990022640512

>  <compound_id>  (996) 
23497

>  <target_id>  (996) 
1

>  <reference_id>  (996) 
120

>  <inspiration_ids>  (996) 
[120, 88]

>  <energy_score>  (996) 
159.26501635458624

>  <distance_score>  (996) 
13.572313197458994

>  <path>  (996) 
/opt/xchem-fragalysis-2/maxwin/BulkDock/SCRATCH/511013/C23497-P120/C23497-P120.minimised.mol

>  <scratch_subdir>  (996) 
/opt/xchem-fragalysis-2/maxwin/BulkDock/SCRATCH/511013/C23497-P120

>  <fragmenstein_runtime>  (996) 
18.548349857330322

>  <fragmenstein_outcome>  (996) 
too moved

>  <fragmenstein_mode>  (996) 
expansion

>  <fragmenstein_error>  (996) 


$$$$
C23497-P88
     RDKit          3D

 41 42  0  0  0  0  0  0  0  0999 V2000
    3.8887   -5.7171   14.6490 C   0  0  0  0  0  0  0  0  0  0  0  0
    3.6528   -6.9368   15.4642 C   0  0  0  0  0  0  0  0  0  0  0  0
    4.2798   -7.3583   16.6148 C   0  0  0  0  0  0  0  0  0  0  0  0
    3.6674   -8.5325   17.1602 C   0  0  0  0  0  0  0  0  0  0  0  0
    2.6000   -8.9910   16.4035 C   0  0  0  0  0  0  0  0  0  0  0  0
    1.6923  -10.2079   16.6350 C   0  0  0  0  0  0  0  0  0  0  0  0
    0.2979   -9.9381   17.2832 C   0  0  0  0  0  0  0  0  0  0  0  0
   -0.6148   -9.0946   16.3919 C   0  0  0  0  0  0  0  0  0  0  0  0
   -0.4278  -11.1834   17.6480 N   0  0  0  0  0  0  0  0  0  0  0  0
   -1.5754  -11.3979   18.5130 C   0  0  0  0  0  0  0  0  0  0  0  0
   -2.2776  -10.6137   19.0904 O   0  0  0  0  0  0  0  0  0  0  0  0
   -1.9285  -12.9104   18.6195 C   0  0  0  0  0  0  0  0  0  0  0  0
   -2.6763  -13.2537   19.9341 C   0  0  0  0  0  0  0  0  0  0  0  0
   -3.3164  -14.6643   19.9936 C   0  0  0  0  0  0  0  0  0  0  0  0
   -3.4326  -15.3068   18.9890 O   0  0  0  0  0  0  0  0  0  0  0  0
   -3.7131  -14.9596   21.3603 N   0  0  0  0  0  0  0  0  0  0  0  0
   -4.4123  -16.0129   21.8828 C   0  0  0  0  0  0  0  0  0  0  0  0
   -4.9952  -17.0181   21.2766 N   0  0  0  0  0  0  0  0  0  0  0  0
   -5.5652  -17.8765   22.2080 C   0  0  0  0  0  0  0  0  0  0  0  0
   -5.4112  -17.5042   23.5246 C   0  0  0  0  0  0  0  0  0  0  0  0
   -4.5590  -16.0144   23.5959 S   0  0  0  0  0  0  0  0  0  0  0  0
    2.4501   -8.0472   14.9745 S   0  0  0  0  0  0  0  0  0  0  0  0
    4.4624   -5.9576   13.7497 H   0  0  0  0  0  0  0  0  0  0  0  0
    4.4361   -4.9699   15.2297 H   0  0  0  0  0  0  0  0  0  0  0  0
    2.9448   -5.2550   14.3401 H   0  0  0  0  0  0  0  0  0  0  0  0
    5.1060   -6.8369   17.0741 H   0  0  0  0  0  0  0  0  0  0  0  0
    3.9824   -9.0100   18.0801 H   0  0  0  0  0  0  0  0  0  0  0  0
    2.2400  -10.9058   17.2835 H   0  0  0  0  0  0  0  0  0  0  0  0
    1.5535  -10.7399   15.6843 H   0  0  0  0  0  0  0  0  0  0  0  0
    0.4409   -9.3931   18.2210 H   0  0  0  0  0  0  0  0  0  0  0  0
   -0.7504   -9.5632   15.4111 H   0  0  0  0  0  0  0  0  0  0  0  0
   -0.2167   -8.0871   16.2475 H   0  0  0  0  0  0  0  0  0  0  0  0
   -1.6083   -8.9810   16.8397 H   0  0  0  0  0  0  0  0  0  0  0  0
   -0.0259  -12.0840   17.4005 H   0  0  0  0  0  0  0  0  0  0  0  0
   -2.5596  -13.1481   17.7551 H   0  0  0  0  0  0  0  0  0  0  0  0
   -1.0276  -13.5282   18.5473 H   0  0  0  0  0  0  0  0  0  0  0  0
   -1.9782  -13.1389   20.7695 H   0  0  0  0  0  0  0  0  0  0  0  0
   -3.4964  -12.5424   20.0919 H   0  0  0  0  0  0  0  0  0  0  0  0
   -3.3835  -14.2238   21.9663 H   0  0  0  0  0  0  0  0  0  0  0  0
   -6.0682  -18.7704   21.8585 H   0  0  0  0  0  0  0  0  0  0  0  0
   -5.7363  -18.0113   24.4189 H   0  0  0  0  0  0  0  0  0  0  0  0
  1  2  1  0
  2  3  2  0
  3  4  1  0
  4  5  2  0
  5  6  1  0
  6  7  1  0
  7  8  1  0
  7  9  1  0
  9 10  1  0
 10 11  2  0
 10 12  1  0
 12 13  1  0
 13 14  1  0
 14 15  2  0
 14 16  1  0
 16 17  1  0
 17 18  2  0
 18 19  1  0
 19 20  2  0
 20 21  1  0
  5 22  1  0
 22  2  1  0
 21 17  1  0
  1 23  1  0
  1 24  1  0
  1 25  1  0
  3 26  1  0
  4 27  1  0
  6 28  1  0
  6 29  1  0
  7 30  1  0
  8 31  1  0
  8 32  1  0
  8 33  1  0
  9 34  1  0
 12 35  1  0
 12 36  1  0
 13 37  1  0
 13 38  1  0
 16 39  1  0
 19 40  1  0
 20 41  1  0
M  END
>  <Energy>  (997) 
-27.206239670379556

>  <compound_id>  (997) 
23497

>  <target_id>  (997) 
1

>  <reference_id>  (997) 
88

>  <inspiration_ids>  (997) 
[120, 88]

>  <energy_score>  (997) 
-75.94112354219101

>  <distance_score>  (997) 
14.041327000135823

>  <path>  (997) 
/opt/xchem-fragalysis-2/maxwin/BulkDock/SCRATCH/511013/C23497-P88/C23497-P88.minimised.mol

>  <scratch_subdir>  (997) 
/opt/xchem-fragalysis-2/maxwin/BulkDock/SCRATCH/511013/C23497-P88

>  <fragmenstein_runtime>  (997) 
43.504087686538696

>  <fragmenstein_outcome>  (997) 
too moved

>  <fragmenstein_mode>  (997) 
expansion

>  <fragmenstein_error>  (997) 


$$$$
C8130-P101
     RDKit          3D

 45 46  0  0  0  0  0  0  0  0999 V2000
   -0.2374  -13.9255   23.2699 C   0  0  0  0  0  0  0  0  0  0  0  0
   -1.1271  -15.0504   23.0732 C   0  0  0  0  0  0  0  0  0  0  0  0
    0.1860  -15.8517   21.5189 C   0  0  0  0  0  0  0  0  0  0  0  0
    1.8888  -14.9728   20.7052 N   0  0  0  0  0  0  0  0  0  0  0  0
    2.3318  -14.5459   18.9922 C   0  0  0  0  0  0  0  0  0  0  0  0
    1.7286  -14.8011   17.9958 O   0  0  0  0  0  0  0  0  0  0  0  0
    3.7776  -13.4293   18.5774 C   0  0  0  0  0  0  0  0  0  0  0  0
    3.4772  -11.7650   17.4230 C   0  0  0  0  0  0  0  0  0  0  0  0
    3.5425   -9.7896   17.1849 C   0  0  0  0  0  0  0  0  0  0  0  0
    4.1246   -8.6759   17.7640 C   0  0  0  0  0  0  0  0  0  0  0  0
    3.8821   -7.4090   17.1809 C   0  0  0  0  0  0  0  0  0  0  0  0
    3.3608   -7.5897   15.9947 N   0  0  0  0  0  0  0  0  0  0  0  0
    3.5272   -8.9173   15.8581 N   0  0  0  0  0  0  0  0  0  0  0  0
   -2.3590  -15.7298   24.6346 C   0  0  0  0  0  0  0  0  0  0  0  0
   -2.5604  -16.7087   26.3570 N   0  0  0  0  0  0  0  0  0  0  0  0
   -2.2800  -18.0402   26.7067 C   0  0  0  0  0  0  0  0  0  0  0  0
   -1.9293  -18.9404   26.0506 O   0  0  0  0  0  0  0  0  0  0  0  0
   -2.5891  -18.3207   28.1312 C   0  0  0  0  0  0  0  0  0  0  0  0
   -2.5879  -17.5291   29.2646 C   0  0  0  0  0  0  0  0  0  0  0  0
   -3.1672  -18.1579   30.3397 N   0  0  0  0  0  0  0  0  0  0  0  0
   -3.5339  -19.3327   29.8921 C   0  0  0  0  0  0  0  0  0  0  0  0
   -3.1806  -19.4986   28.5843 N   0  0  0  0  0  0  0  0  0  0  0  0
   -3.5260  -20.6696   27.8218 C   0  0  0  0  0  0  0  0  0  0  0  0
    0.6755  -14.1512   23.8473 H   0  0  0  0  0  0  0  0  0  0  0  0
   -0.1646  -13.9544   22.2505 H   0  0  0  0  0  0  0  0  0  0  0  0
   -0.2432  -12.8913   22.9455 H   0  0  0  0  0  0  0  0  0  0  0  0
   -0.8204  -14.9592   24.1395 H   0  0  0  0  0  0  0  0  0  0  0  0
    0.0864  -16.8975   21.2398 H   0  0  0  0  0  0  0  0  0  0  0  0
    0.6667  -15.2574   22.1654 H   0  0  0  0  0  0  0  0  0  0  0  0
    2.5644  -14.5394   21.3573 H   0  0  0  0  0  0  0  0  0  0  0  0
    4.3015  -14.2636   18.0968 H   0  0  0  0  0  0  0  0  0  0  0  0
    4.3161  -13.0965   19.4769 H   0  0  0  0  0  0  0  0  0  0  0  0
    3.4360  -11.8470   16.3301 H   0  0  0  0  0  0  0  0  0  0  0  0
    4.4979  -11.7755   17.6953 H   0  0  0  0  0  0  0  0  0  0  0  0
    4.7681   -8.8188   18.5747 H   0  0  0  0  0  0  0  0  0  0  0  0
    4.1253   -6.4156   17.5331 H   0  0  0  0  0  0  0  0  0  0  0  0
    3.4570   -9.3231   14.9251 H   0  0  0  0  0  0  0  0  0  0  0  0
   -3.3600  -15.6313   24.2355 H   0  0  0  0  0  0  0  0  0  0  0  0
   -2.2786  -14.7966   25.2259 H   0  0  0  0  0  0  0  0  0  0  0  0
   -2.7541  -16.1811   27.2059 H   0  0  0  0  0  0  0  0  0  0  0  0
   -2.2233  -16.5146   29.3611 H   0  0  0  0  0  0  0  0  0  0  0  0
   -4.0531  -20.0868   30.4679 H   0  0  0  0  0  0  0  0  0  0  0  0
   -4.5211  -20.5309   27.3983 H   0  0  0  0  0  0  0  0  0  0  0  0
   -2.8015  -20.8460   27.0361 H   0  0  0  0  0  0  0  0  0  0  0  0
   -3.5163  -21.5371   28.4861 H   0  0  0  0  0  0  0  0  0  0  0  0
  1  2  1  0
  2  3  1  0
  3  4  1  0
  4  5  1  0
  5  6  2  0
  5  7  1  0
  7  8  1  0
  8  9  1  0
  9 10  2  0
 10 11  1  0
 11 12  2  0
 12 13  1  0
  2 14  1  0
 14 15  1  0
 15 16  1  0
 16 17  2  0
 16 18  1  0
 18 19  2  0
 19 20  1  0
 20 21  2  0
 21 22  1  0
 22 23  1  0
 13  9  1  0
 22 18  1  0
  1 24  1  0
  1 25  1  0
  1 26  1  0
  2 27  1  0
  3 28  1  0
  3 29  1  0
  4 30  1  0
  7 31  1  0
  7 32  1  0
  8 33  1  0
  8 34  1  0
 10 35  1  0
 11 36  1  0
 13 37  1  0
 14 38  1  0
 14 39  1  0
 15 40  1  0
 19 41  1  0
 21 42  1  0
 23 43  1  0
 23 44  1  0
 23 45  1  0
M  END
>  <Energy>  (998) 
935.33632675708418

>  <compound_id>  (998) 
8130

>  <target_id>  (998) 
1

>  <reference_id>  (998) 
101

>  <inspiration_ids>  (998) 
[101, 122]

>  <energy_score>  (998) 
948.0624633672967

>  <distance_score>  (998) 
11.341120922939712

>  <path>  (998) 
/opt/xchem-fragalysis-2/maxwin/BulkDock/SCRATCH/511013/C8130-P101/C8130-P101.minimised.mol

>  <scratch_subdir>  (998) 
/opt/xchem-fragalysis-2/maxwin/BulkDock/SCRATCH/511013/C8130-P101

>  <fragmenstein_runtime>  (998) 
35.22855854034424

>  <fragmenstein_outcome>  (998) 
too moved

>  <fragmenstein_mode>  (998) 
expansion

>  <fragmenstein_error>  (998) 


$$$$
C8130-P122
     RDKit          3D

 45 46  0  0  0  0  0  0  0  0999 V2000
   -0.1372  -14.0490   23.3418 C   0  0  0  0  0  0  0  0  0  0  0  0
   -0.8923  -14.9974   22.5872 C   0  0  0  0  0  0  0  0  0  0  0  0
    0.5913  -15.7415   21.3942 C   0  0  0  0  0  0  0  0  0  0  0  0
    2.0956  -14.8461   20.3595 N   0  0  0  0  0  0  0  0  0  0  0  0
    3.2457  -13.4918   20.7936 C   0  0  0  0  0  0  0  0  0  0  0  0
    3.4131  -12.8929   21.8618 O   0  0  0  0  0  0  0  0  0  0  0  0
    4.1789  -12.9473   19.1050 C   0  0  0  0  0  0  0  0  0  0  0  0
    3.6582  -11.6737   17.5864 C   0  0  0  0  0  0  0  0  0  0  0  0
    3.3261   -9.7053   17.4896 C   0  0  0  0  0  0  0  0  0  0  0  0
    2.3400   -8.8426   18.0608 C   0  0  0  0  0  0  0  0  0  0  0  0
    2.4870   -7.5103   17.5803 C   0  0  0  0  0  0  0  0  0  0  0  0
    3.5041   -7.4573   16.7431 N   0  0  0  0  0  0  0  0  0  0  0  0
    3.6725   -8.7641   16.5042 N   0  0  0  0  0  0  0  0  0  0  0  0
   -2.0670  -15.4965   24.2744 C   0  0  0  0  0  0  0  0  0  0  0  0
   -2.4926  -16.8947   25.5064 N   0  0  0  0  0  0  0  0  0  0  0  0
   -2.4046  -16.9381   27.1669 C   0  0  0  0  0  0  0  0  0  0  0  0
   -2.1260  -16.0493   27.9526 O   0  0  0  0  0  0  0  0  0  0  0  0
   -2.5842  -18.2709   27.8408 C   0  0  0  0  0  0  0  0  0  0  0  0
   -3.7145  -18.9369   28.3380 C   0  0  0  0  0  0  0  0  0  0  0  0
   -3.4211  -20.1769   28.8546 N   0  0  0  0  0  0  0  0  0  0  0  0
   -2.1153  -20.1971   28.8902 C   0  0  0  0  0  0  0  0  0  0  0  0
   -1.5835  -19.0341   28.4048 N   0  0  0  0  0  0  0  0  0  0  0  0
   -0.2342  -18.5879   28.6327 C   0  0  0  0  0  0  0  0  0  0  0  0
    0.8713  -14.2713   23.7181 H   0  0  0  0  0  0  0  0  0  0  0  0
   -0.1968  -13.1290   22.8019 H   0  0  0  0  0  0  0  0  0  0  0  0
   -0.6005  -14.0602   24.3033 H   0  0  0  0  0  0  0  0  0  0  0  0
   -1.5839  -14.7499   21.7346 H   0  0  0  0  0  0  0  0  0  0  0  0
    0.0704  -16.0959   20.4229 H   0  0  0  0  0  0  0  0  0  0  0  0
    0.4353  -16.8547   21.3138 H   0  0  0  0  0  0  0  0  0  0  0  0
    2.2472  -15.1267   19.3964 H   0  0  0  0  0  0  0  0  0  0  0  0
    4.0770  -13.9030   18.5652 H   0  0  0  0  0  0  0  0  0  0  0  0
    5.1972  -12.7073   19.4437 H   0  0  0  0  0  0  0  0  0  0  0  0
    3.4606  -11.8395   16.5426 H   0  0  0  0  0  0  0  0  0  0  0  0
    2.8128  -11.6916   18.1145 H   0  0  0  0  0  0  0  0  0  0  0  0
    1.6322   -9.0628   18.8258 H   0  0  0  0  0  0  0  0  0  0  0  0
    1.9542   -6.6151   17.8737 H   0  0  0  0  0  0  0  0  0  0  0  0
    3.6771   -8.9888   15.5176 H   0  0  0  0  0  0  0  0  0  0  0  0
   -1.1290  -15.5235   24.6324 H   0  0  0  0  0  0  0  0  0  0  0  0
   -2.3157  -14.7310   25.0143 H   0  0  0  0  0  0  0  0  0  0  0  0
   -2.6633  -17.7963   25.1667 H   0  0  0  0  0  0  0  0  0  0  0  0
   -4.7447  -18.6137   28.2886 H   0  0  0  0  0  0  0  0  0  0  0  0
   -1.5115  -20.9896   29.3104 H   0  0  0  0  0  0  0  0  0  0  0  0
   -0.2604  -17.7358   29.3170 H   0  0  0  0  0  0  0  0  0  0  0  0
    0.1990  -18.2960   27.6804 H   0  0  0  0  0  0  0  0  0  0  0  0
    0.3488  -19.3955   29.0809 H   0  0  0  0  0  0  0  0  0  0  0  0
  1  2  1  0
  2  3  1  0
  3  4  1  0
  4  5  1  0
  5  6  2  0
  5  7  1  0
  7  8  1  0
  8  9  1  0
  9 10  2  0
 10 11  1  0
 11 12  2  0
 12 13  1  0
  2 14  1  0
 14 15  1  0
 15 16  1  0
 16 17  2  0
 16 18  1  0
 18 19  2  0
 19 20  1  0
 20 21  2  0
 21 22  1  0
 22 23  1  0
 13  9  1  0
 22 18  1  0
  1 24  1  0
  1 25  1  0
  1 26  1  0
  2 27  1  0
  3 28  1  0
  3 29  1  0
  4 30  1  0
  7 31  1  0
  7 32  1  0
  8 33  1  0
  8 34  1  0
 10 35  1  0
 11 36  1  0
 13 37  1  0
 14 38  1  0
 14 39  1  0
 15 40  1  0
 19 41  1  0
 21 42  1  0
 23 43  1  0
 23 44  1  0
 23 45  1  0
M  END
>  <Energy>  (999) 
727.99063208767325

>  <compound_id>  (999) 
8130

>  <target_id>  (999) 
1

>  <reference_id>  (999) 
122

>  <inspiration_ids>  (999) 
[101, 122]

>  <energy_score>  (999) 
740.7167686978913

>  <distance_score>  (999) 
11.522908705374293

>  <path>  (999) 
/opt/xchem-fragalysis-2/maxwin/BulkDock/SCRATCH/511013/C8130-P122/C8130-P122.minimised.mol

>  <scratch_subdir>  (999) 
/opt/xchem-fragalysis-2/maxwin/BulkDock/SCRATCH/511013/C8130-P122

>  <fragmenstein_runtime>  (999) 
32.01701855659485

>  <fragmenstein_outcome>  (999) 
too moved

>  <fragmenstein_mode>  (999) 
expansion

>  <fragmenstein_error>  (999) 


$$$$
C8131-P101
     RDKit          3D

 42 43  0  0  0  0  0  0  0  0999 V2000
    1.3584  -13.3329   25.9205 C   0  0  0  0  0  0  0  0  0  0  0  0
    1.3332  -13.5395   24.2805 C   0  0  0  0  0  0  0  0  0  0  0  0
    2.6530  -12.4177   23.2269 C   0  0  0  0  0  0  0  0  0  0  0  0
    3.2642  -10.8385   22.9954 N   0  0  0  0  0  0  0  0  0  0  0  0
    4.7873  -10.2451   23.1559 C   0  0  0  0  0  0  0  0  0  0  0  0
    5.8435  -10.8453   23.3748 O   0  0  0  0  0  0  0  0  0  0  0  0
    4.5839   -8.2177   23.1067 C   0  0  0  0  0  0  0  0  0  0  0  0
    5.3815   -7.4781   24.5026 C   0  0  0  0  0  0  0  0  0  0  0  0
    6.7830   -6.8191   24.3210 C   0  0  0  0  0  0  0  0  0  0  0  0
    8.0628   -7.3329   24.1885 C   0  0  0  0  0  0  0  0  0  0  0  0
    8.9100   -6.2297   23.9614 C   0  0  0  0  0  0  0  0  0  0  0  0
    8.2516   -5.0767   24.0762 N   0  0  0  0  0  0  0  0  0  0  0  0
    7.0190   -5.4745   24.4492 N   0  0  0  0  0  0  0  0  0  0  0  0
   -0.6664  -14.1065   24.2696 C   0  0  0  0  0  0  0  0  0  0  0  0
   -1.9394  -15.2112   25.1488 N   0  0  0  0  0  0  0  0  0  0  0  0
   -2.1457  -15.6036   26.9468 C   0  0  0  0  0  0  0  0  0  0  0  0
   -1.5658  -15.1268   27.9044 O   0  0  0  0  0  0  0  0  0  0  0  0
   -3.1905  -16.9704   27.3902 C   0  0  0  0  0  0  0  0  0  0  0  0
   -4.4215  -17.3591   28.1073 C   0  0  0  0  0  0  0  0  0  0  0  0
   -4.7444  -18.8781   28.0752 N   0  0  0  0  0  0  0  0  0  0  0  0
   -3.6933  -19.5329   27.5050 C   0  0  0  0  0  0  0  0  0  0  0  0
   -3.4959  -21.1815   27.1919 Cl  0  0  0  0  0  0  0  0  0  0  0  0
   -2.5979  -18.4437   27.0402 N   0  0  0  0  0  0  0  0  0  0  0  0
    0.4997  -13.6723   26.4379 H   0  0  0  0  0  0  0  0  0  0  0  0
    2.1437  -13.8194   26.4871 H   0  0  0  0  0  0  0  0  0  0  0  0
    1.2455  -12.2799   26.1559 H   0  0  0  0  0  0  0  0  0  0  0  0
    1.5117  -14.4486   23.6224 H   0  0  0  0  0  0  0  0  0  0  0  0
    1.7589  -11.9165   22.8909 H   0  0  0  0  0  0  0  0  0  0  0  0
    3.2832  -13.0029   22.5959 H   0  0  0  0  0  0  0  0  0  0  0  0
    2.6419  -10.0914   22.7369 H   0  0  0  0  0  0  0  0  0  0  0  0
    5.1706   -7.6458   22.4256 H   0  0  0  0  0  0  0  0  0  0  0  0
    3.5122   -8.0981   23.0430 H   0  0  0  0  0  0  0  0  0  0  0  0
    5.5272   -8.2592   25.2572 H   0  0  0  0  0  0  0  0  0  0  0  0
    4.7079   -6.7319   24.9259 H   0  0  0  0  0  0  0  0  0  0  0  0
    8.3280   -8.3809   24.1980 H   0  0  0  0  0  0  0  0  0  0  0  0
    9.9695   -6.2200   23.7403 H   0  0  0  0  0  0  0  0  0  0  0  0
    6.3653   -4.7671   24.7567 H   0  0  0  0  0  0  0  0  0  0  0  0
   -0.5209  -13.8930   23.1939 H   0  0  0  0  0  0  0  0  0  0  0  0
   -0.9913  -14.8652   23.5689 H   0  0  0  0  0  0  0  0  0  0  0  0
   -2.6240  -15.7169   24.5980 H   0  0  0  0  0  0  0  0  0  0  0  0
   -5.1299  -16.7754   28.6764 H   0  0  0  0  0  0  0  0  0  0  0  0
   -1.8676  -18.6359   26.3744 H   0  0  0  0  0  0  0  0  0  0  0  0
  1  2  1  0
  2  3  1  0
  3  4  1  0
  4  5  1  0
  5  6  2  0
  5  7  1  0
  7  8  1  0
  8  9  1  0
  9 10  2  0
 10 11  1  0
 11 12  2  0
 12 13  1  0
  2 14  1  0
 14 15  1  0
 15 16  1  0
 16 17  2  0
 16 18  1  0
 18 19  2  0
 19 20  1  0
 20 21  2  0
 21 22  1  0
 21 23  1  0
 13  9  1  0
 23 18  1  0
  1 24  1  0
  1 25  1  0
  1 26  1  0
  2 27  1  0
  3 28  1  0
  3 29  1  0
  4 30  1  0
  7 31  1  0
  7 32  1  0
  8 33  1  0
  8 34  1  0
 10 35  1  0
 11 36  1  0
 13 37  1  0
 14 38  1  0
 14 39  1  0
 15 40  1  0
 19 41  1  0
 23 42  1  0
M  END
>  <Energy>  (1000) 
593.25346157993533

>  <compound_id>  (1000) 
8131

>  <target_id>  (1000) 
1

>  <reference_id>  (1000) 
101

>  <inspiration_ids>  (1000) 
[101, 122]

>  <energy_score>  (1000) 
605.5418243738179

>  <distance_score>  (1000) 
11.32587543910584

>  <path>  (1000) 
/opt/xchem-fragalysis-2/maxwin/BulkDock/SCRATCH/511013/C8131-P101/C8131-P101.minimised.mol

>  <scratch_subdir>  (1000) 
/opt/xchem-fragalysis-2/maxwin/BulkDock/SCRATCH/511013/C8131-P101

>  <fragmenstein_runtime>  (1000) 
30.472533464431763

>  <fragmenstein_outcome>  (1000) 
too moved

>  <fragmenstein_mode>  (1000) 
expansion

>  <fragmenstein_error>  (1000) 


$$$$
C8131-P122
     RDKit          3D

 42 43  0  0  0  0  0  0  0  0999 V2000
   -2.4079  -12.8986   25.4220 C   0  0  0  0  0  0  0  0  0  0  0  0
   -1.2145  -14.2616   24.8491 C   0  0  0  0  0  0  0  0  0  0  0  0
    0.0279  -13.7988   23.4180 C   0  0  0  0  0  0  0  0  0  0  0  0
    1.2663  -12.1588   23.2036 N   0  0  0  0  0  0  0  0  0  0  0  0
    3.0164  -11.9965   23.2294 C   0  0  0  0  0  0  0  0  0  0  0  0
    3.5586  -12.9558   23.4878 O   0  0  0  0  0  0  0  0  0  0  0  0
    4.4443  -10.3794   23.0705 C   0  0  0  0  0  0  0  0  0  0  0  0
    5.4439   -9.2026   24.5347 C   0  0  0  0  0  0  0  0  0  0  0  0
    7.0627   -9.4189   24.8524 C   0  0  0  0  0  0  0  0  0  0  0  0
    7.8842  -10.4630   25.1937 C   0  0  0  0  0  0  0  0  0  0  0  0
    9.1867   -9.9024   25.1999 C   0  0  0  0  0  0  0  0  0  0  0  0
    9.1969   -8.6035   24.8917 N   0  0  0  0  0  0  0  0  0  0  0  0
    7.8951   -8.3194   24.7355 N   0  0  0  0  0  0  0  0  0  0  0  0
   -2.3664  -15.6217   25.1886 C   0  0  0  0  0  0  0  0  0  0  0  0
   -2.6484  -17.0380   26.3694 N   0  0  0  0  0  0  0  0  0  0  0  0
   -1.7783  -18.1119   26.8023 C   0  0  0  0  0  0  0  0  0  0  0  0
   -0.6310  -18.3149   26.5739 O   0  0  0  0  0  0  0  0  0  0  0  0
   -2.5110  -19.2224   27.6108 C   0  0  0  0  0  0  0  0  0  0  0  0
   -3.8014  -19.3926   28.1568 C   0  0  0  0  0  0  0  0  0  0  0  0
   -4.0777  -20.6977   28.4918 N   0  0  0  0  0  0  0  0  0  0  0  0
   -2.9344  -21.2892   28.3602 C   0  0  0  0  0  0  0  0  0  0  0  0
   -2.5191  -22.9061   28.6467 Cl  0  0  0  0  0  0  0  0  0  0  0  0
   -1.9654  -20.4369   27.9681 N   0  0  0  0  0  0  0  0  0  0  0  0
   -1.9757  -11.9819   25.7506 H   0  0  0  0  0  0  0  0  0  0  0  0
   -3.0135  -13.1648   26.2768 H   0  0  0  0  0  0  0  0  0  0  0  0
   -3.1895  -12.4755   24.7800 H   0  0  0  0  0  0  0  0  0  0  0  0
   -1.3716  -14.9680   24.0031 H   0  0  0  0  0  0  0  0  0  0  0  0
   -0.1918  -14.2922   22.4837 H   0  0  0  0  0  0  0  0  0  0  0  0
    0.8670  -14.2921   23.8829 H   0  0  0  0  0  0  0  0  0  0  0  0
    0.8797  -11.2733   22.8792 H   0  0  0  0  0  0  0  0  0  0  0  0
    5.1063  -10.7994   22.3334 H   0  0  0  0  0  0  0  0  0  0  0  0
    3.4910   -9.9254   23.1507 H   0  0  0  0  0  0  0  0  0  0  0  0
    5.2707   -8.0780   24.3303 H   0  0  0  0  0  0  0  0  0  0  0  0
    5.1860   -8.9548   25.6073 H   0  0  0  0  0  0  0  0  0  0  0  0
    7.6054  -11.4905   25.3758 H   0  0  0  0  0  0  0  0  0  0  0  0
   10.1256  -10.4012   25.4037 H   0  0  0  0  0  0  0  0  0  0  0  0
    7.6233   -7.3796   24.4686 H   0  0  0  0  0  0  0  0  0  0  0  0
   -2.3628  -14.9737   26.0708 H   0  0  0  0  0  0  0  0  0  0  0  0
   -3.2300  -15.5643   24.5428 H   0  0  0  0  0  0  0  0  0  0  0  0
   -3.5446  -17.1395   26.8226 H   0  0  0  0  0  0  0  0  0  0  0  0
   -4.5852  -18.6492   28.2393 H   0  0  0  0  0  0  0  0  0  0  0  0
   -1.0124  -20.7047   27.8629 H   0  0  0  0  0  0  0  0  0  0  0  0
  1  2  1  0
  2  3  1  0
  3  4  1  0
  4  5  1  0
  5  6  2  0
  5  7  1  0
  7  8  1  0
  8  9  1  0
  9 10  2  0
 10 11  1  0
 11 12  2  0
 12 13  1  0
  2 14  1  0
 14 15  1  0
 15 16  1  0
 16 17  2  0
 16 18  1  0
 18 19  2  0
 19 20  1  0
 20 21  2  0
 21 22  1  0
 21 23  1  0
 13  9  1  0
 23 18  1  0
  1 24  1  0
  1 25  1  0
  1 26  1  0
  2 27  1  0
  3 28  1  0
  3 29  1  0
  4 30  1  0
  7 31  1  0
  7 32  1  0
  8 33  1  0
  8 34  1  0
 10 35  1  0
 11 36  1  0
 13 37  1  0
 14 38  1  0
 14 39  1  0
 15 40  1  0
 19 41  1  0
 23 42  1  0
M  END
>  <Energy>  (1001) 
678.1602898612158

>  <compound_id>  (1001) 
8131

>  <target_id>  (1001) 
1

>  <reference_id>  (1001) 
122

>  <inspiration_ids>  (1001) 
[101, 122]

>  <energy_score>  (1001) 
690.4486526550842

>  <distance_score>  (1001) 
11.584108074370848

>  <path>  (1001) 
/opt/xchem-fragalysis-2/maxwin/BulkDock/SCRATCH/511013/C8131-P122/C8131-P122.minimised.mol

>  <scratch_subdir>  (1001) 
/opt/xchem-fragalysis-2/maxwin/BulkDock/SCRATCH/511013/C8131-P122

>  <fragmenstein_runtime>  (1001) 
35.97331476211548

>  <fragmenstein_outcome>  (1001) 
too moved

>  <fragmenstein_mode>  (1001) 
expansion

>  <fragmenstein_error>  (1001) 


$$$$
C8132-P101
     RDKit          3D

 42 43  0  0  0  0  0  0  0  0999 V2000
   -2.9337  -24.7574   23.5011 C   0  0  0  0  0  0  0  0  0  0  0  0
   -3.1648  -23.8536   24.6503 C   0  0  0  0  0  0  0  0  0  0  0  0
   -2.2554  -23.1612   25.3029 N   0  0  0  0  0  0  0  0  0  0  0  0
   -2.9566  -22.3800   26.1869 C   0  0  0  0  0  0  0  0  0  0  0  0
   -2.3837  -21.1057   26.7369 C   0  0  0  0  0  0  0  0  0  0  0  0
   -2.8748  -19.9013   25.7865 C   0  0  0  0  0  0  0  0  0  0  0  0
   -3.8428  -20.2190   25.0686 O   0  0  0  0  0  0  0  0  0  0  0  0
   -2.0985  -18.3749   25.9941 N   0  0  0  0  0  0  0  0  0  0  0  0
   -2.5475  -16.6546   25.3128 C   0  0  0  0  0  0  0  0  0  0  0  0
   -2.4421  -16.4616   27.1989 C   0  0  0  0  0  0  0  0  0  0  0  0
   -1.4962  -14.9852   24.6525 C   0  0  0  0  0  0  0  0  0  0  0  0
    0.3733  -14.3814   24.4193 N   0  0  0  0  0  0  0  0  0  0  0  0
    1.4728  -13.5145   25.5417 C   0  0  0  0  0  0  0  0  0  0  0  0
    1.1792  -13.0757   26.6016 O   0  0  0  0  0  0  0  0  0  0  0  0
    3.3633  -13.5771   24.7519 C   0  0  0  0  0  0  0  0  0  0  0  0
    5.1362  -13.3039   25.7324 C   0  0  0  0  0  0  0  0  0  0  0  0
    6.3258  -12.4231   25.3103 C   0  0  0  0  0  0  0  0  0  0  0  0
    7.1219  -12.0355   26.3752 C   0  0  0  0  0  0  0  0  0  0  0  0
    6.5102  -12.3577   27.4856 N   0  0  0  0  0  0  0  0  0  0  0  0
    5.4123  -13.0549   27.1211 N   0  0  0  0  0  0  0  0  0  0  0  0
   -4.2576  -22.8191   26.2685 C   0  0  0  0  0  0  0  0  0  0  0  0
   -4.4116  -23.5849   25.1461 N   0  0  0  0  0  0  0  0  0  0  0  0
   -2.6188  -25.7442   23.8530 H   0  0  0  0  0  0  0  0  0  0  0  0
   -3.8376  -24.8772   22.8956 H   0  0  0  0  0  0  0  0  0  0  0  0
   -2.1458  -24.3566   22.8560 H   0  0  0  0  0  0  0  0  0  0  0  0
   -2.8832  -20.9118   27.6956 H   0  0  0  0  0  0  0  0  0  0  0  0
   -1.3385  -21.2529   26.9941 H   0  0  0  0  0  0  0  0  0  0  0  0
   -1.3959  -18.4452   26.7129 H   0  0  0  0  0  0  0  0  0  0  0  0
   -3.4678  -16.2294   25.0215 H   0  0  0  0  0  0  0  0  0  0  0  0
   -1.6073  -17.0197   27.5933 H   0  0  0  0  0  0  0  0  0  0  0  0
   -2.2171  -15.4251   27.4838 H   0  0  0  0  0  0  0  0  0  0  0  0
   -3.3484  -16.8646   27.6596 H   0  0  0  0  0  0  0  0  0  0  0  0
   -1.6012  -15.1275   23.6189 H   0  0  0  0  0  0  0  0  0  0  0  0
   -1.9342  -14.2001   25.2932 H   0  0  0  0  0  0  0  0  0  0  0  0
    0.8558  -14.5664   23.5566 H   0  0  0  0  0  0  0  0  0  0  0  0
    3.6236  -14.5657   24.3520 H   0  0  0  0  0  0  0  0  0  0  0  0
    3.2778  -12.9380   23.8602 H   0  0  0  0  0  0  0  0  0  0  0  0
    6.5309  -12.0102   24.3306 H   0  0  0  0  0  0  0  0  0  0  0  0
    8.0311  -11.4494   26.3958 H   0  0  0  0  0  0  0  0  0  0  0  0
    4.7587  -13.2527   27.8565 H   0  0  0  0  0  0  0  0  0  0  0  0
   -5.0959  -22.4880   26.8558 H   0  0  0  0  0  0  0  0  0  0  0  0
   -5.2820  -23.9496   24.7840 H   0  0  0  0  0  0  0  0  0  0  0  0
  1  2  1  0
  2  3  2  0
  3  4  1  0
  4  5  1  0
  5  6  1  0
  6  7  2  0
  6  8  1  0
  8  9  1  0
  9 10  1  0
  9 11  1  0
 11 12  1  0
 12 13  1  0
 13 14  2  0
 13 15  1  0
 15 16  1  0
 16 17  2  0
 17 18  1  0
 18 19  2  0
 19 20  1  0
  4 21  2  0
 21 22  1  0
 22  2  1  0
 20 16  1  0
  1 23  1  0
  1 24  1  0
  1 25  1  0
  5 26  1  0
  5 27  1  0
  8 28  1  0
  9 29  1  0
 10 30  1  0
 10 31  1  0
 10 32  1  0
 11 33  1  0
 11 34  1  0
 12 35  1  0
 15 36  1  0
 15 37  1  0
 17 38  1  0
 18 39  1  0
 20 40  1  0
 21 41  1  0
 22 42  1  0
M  END
>  <Energy>  (1002) 
587.23070341934385

>  <compound_id>  (1002) 
8132

>  <target_id>  (1002) 
1

>  <reference_id>  (1002) 
101

>  <inspiration_ids>  (1002) 
[101, 122]

>  <energy_score>  (1002) 
523.9630183670091

>  <distance_score>  (1002) 
12.99964222843798

>  <path>  (1002) 
/opt/xchem-fragalysis-2/maxwin/BulkDock/SCRATCH/511013/C8132-P101/C8132-P101.minimised.mol

>  <scratch_subdir>  (1002) 
/opt/xchem-fragalysis-2/maxwin/BulkDock/SCRATCH/511013/C8132-P101

>  <fragmenstein_runtime>  (1002) 
35.06582975387573

>  <fragmenstein_outcome>  (1002) 
too moved

>  <fragmenstein_mode>  (1002) 
expansion

>  <fragmenstein_error>  (1002) 


$$$$
C8132-P122
     RDKit          3D

 42 43  0  0  0  0  0  0  0  0999 V2000
   -8.6556  -17.8826   21.1239 C   0  0  0  0  0  0  0  0  0  0  0  0
   -7.3533  -17.3792   20.6316 C   0  0  0  0  0  0  0  0  0  0  0  0
   -7.1511  -16.3748   19.8003 N   0  0  0  0  0  0  0  0  0  0  0  0
   -5.7834  -16.2678   19.6039 C   0  0  0  0  0  0  0  0  0  0  0  0
   -5.1585  -15.3130   18.5677 C   0  0  0  0  0  0  0  0  0  0  0  0
   -5.1194  -13.7890   18.9178 C   0  0  0  0  0  0  0  0  0  0  0  0
   -5.8787  -13.3804   19.7533 O   0  0  0  0  0  0  0  0  0  0  0  0
   -4.0679  -13.0922   18.1540 N   0  0  0  0  0  0  0  0  0  0  0  0
   -3.6840  -11.6399   18.1090 C   0  0  0  0  0  0  0  0  0  0  0  0
   -3.4471  -11.1349   19.5305 C   0  0  0  0  0  0  0  0  0  0  0  0
   -2.4465  -11.3182   17.1886 C   0  0  0  0  0  0  0  0  0  0  0  0
   -1.8232   -9.9750   17.2707 N   0  0  0  0  0  0  0  0  0  0  0  0
   -0.6614   -9.4134   16.5798 C   0  0  0  0  0  0  0  0  0  0  0  0
    0.0315   -9.8749   15.7122 O   0  0  0  0  0  0  0  0  0  0  0  0
   -0.2793   -8.0120   17.1728 C   0  0  0  0  0  0  0  0  0  0  0  0
    1.1696   -7.5277   16.9851 C   0  0  0  0  0  0  0  0  0  0  0  0
    1.7663   -6.3309   17.3575 C   0  0  0  0  0  0  0  0  0  0  0  0
    3.1179   -6.4379   16.9821 C   0  0  0  0  0  0  0  0  0  0  0  0
    3.3850   -7.6075   16.4017 N   0  0  0  0  0  0  0  0  0  0  0  0
    2.1917   -8.2508   16.4129 N   0  0  0  0  0  0  0  0  0  0  0  0
   -5.1645  -17.2603   20.3459 C   0  0  0  0  0  0  0  0  0  0  0  0
   -6.1616  -17.9546   20.9831 N   0  0  0  0  0  0  0  0  0  0  0  0
   -8.6746  -17.9002   22.2182 H   0  0  0  0  0  0  0  0  0  0  0  0
   -8.8395  -18.8967   20.7560 H   0  0  0  0  0  0  0  0  0  0  0  0
   -9.4720  -17.2406   20.7794 H   0  0  0  0  0  0  0  0  0  0  0  0
   -4.1320  -15.6510   18.3798 H   0  0  0  0  0  0  0  0  0  0  0  0
   -5.7213  -15.4132   17.6321 H   0  0  0  0  0  0  0  0  0  0  0  0
   -3.6757  -13.7299   17.4710 H   0  0  0  0  0  0  0  0  0  0  0  0
   -4.5581  -11.1138   17.7075 H   0  0  0  0  0  0  0  0  0  0  0  0
   -2.6118  -11.6626   20.0016 H   0  0  0  0  0  0  0  0  0  0  0  0
   -3.2381  -10.0624   19.5602 H   0  0  0  0  0  0  0  0  0  0  0  0
   -4.3413  -11.2863   20.1391 H   0  0  0  0  0  0  0  0  0  0  0  0
   -2.7161  -11.4809   16.1388 H   0  0  0  0  0  0  0  0  0  0  0  0
   -1.6494  -12.0372   17.4063 H   0  0  0  0  0  0  0  0  0  0  0  0
   -2.1101   -9.3391   18.0069 H   0  0  0  0  0  0  0  0  0  0  0  0
   -0.9474   -7.2789   16.7049 H   0  0  0  0  0  0  0  0  0  0  0  0
   -0.4802   -8.0145   18.2506 H   0  0  0  0  0  0  0  0  0  0  0  0
    1.2864   -5.5000   17.8555 H   0  0  0  0  0  0  0  0  0  0  0  0
    3.9111   -5.7163   17.1192 H   0  0  0  0  0  0  0  0  0  0  0  0
    2.1331   -9.1844   16.0136 H   0  0  0  0  0  0  0  0  0  0  0  0
   -4.1275  -17.5543   20.4155 H   0  0  0  0  0  0  0  0  0  0  0  0
   -6.0503  -18.7740   21.5651 H   0  0  0  0  0  0  0  0  0  0  0  0
  1  2  1  0
  2  3  2  0
  3  4  1  0
  4  5  1  0
  5  6  1  0
  6  7  2  0
  6  8  1  0
  8  9  1  0
  9 10  1  0
  9 11  1  0
 11 12  1  0
 12 13  1  0
 13 14  2  0
 13 15  1  0
 15 16  1  0
 16 17  2  0
 17 18  1  0
 18 19  2  0
 19 20  1  0
  4 21  2  0
 21 22  1  0
 22  2  1  0
 20 16  1  0
  1 23  1  0
  1 24  1  0
  1 25  1  0
  5 26  1  0
  5 27  1  0
  8 28  1  0
  9 29  1  0
 10 30  1  0
 10 31  1  0
 10 32  1  0
 11 33  1  0
 11 34  1  0
 12 35  1  0
 15 36  1  0
 15 37  1  0
 17 38  1  0
 18 39  1  0
 20 40  1  0
 21 41  1  0
 22 42  1  0
M  END
>  <Energy>  (1003) 
59.108719067532121

>  <compound_id>  (1003) 
8132

>  <target_id>  (1003) 
1

>  <reference_id>  (1003) 
122

>  <inspiration_ids>  (1003) 
[101, 122]

>  <energy_score>  (1003) 
-4.158965984795373

>  <distance_score>  (1003) 
12.940167420565771

>  <path>  (1003) 
/opt/xchem-fragalysis-2/maxwin/BulkDock/SCRATCH/511013/C8132-P122/C8132-P122.minimised.mol

>  <scratch_subdir>  (1003) 
/opt/xchem-fragalysis-2/maxwin/BulkDock/SCRATCH/511013/C8132-P122

>  <fragmenstein_runtime>  (1003) 
39.24309468269348

>  <fragmenstein_outcome>  (1003) 
too moved

>  <fragmenstein_mode>  (1003) 
expansion

>  <fragmenstein_error>  (1003) 


$$$$
C8133-P101
     RDKit          3D

 42 43  0  0  0  0  0  0  0  0999 V2000
   -3.5333  -20.7934   25.1896 C   0  0  0  0  0  0  0  0  0  0  0  0
   -2.8027  -19.9899   26.2472 C   0  0  0  0  0  0  0  0  0  0  0  0
   -2.7927  -20.5591   27.4875 N   0  0  0  0  0  0  0  0  0  0  0  0
   -1.9956  -19.8065   28.2464 C   0  0  0  0  0  0  0  0  0  0  0  0
   -1.6160  -18.6886   27.6456 N   0  0  0  0  0  0  0  0  0  0  0  0
   -2.1825  -18.6199   26.4128 C   0  0  0  0  0  0  0  0  0  0  0  0
   -2.6344  -16.8965   25.6982 C   0  0  0  0  0  0  0  0  0  0  0  0
   -2.2151  -15.3632   24.3802 C   0  0  0  0  0  0  0  0  0  0  0  0
   -3.2132  -15.1435   23.6972 O   0  0  0  0  0  0  0  0  0  0  0  0
   -0.5996  -14.3294   24.0546 N   0  0  0  0  0  0  0  0  0  0  0  0
   -0.1827  -12.7778   22.8283 C   0  0  0  0  0  0  0  0  0  0  0  0
    1.6602  -12.3293   23.7502 C   0  0  0  0  0  0  0  0  0  0  0  0
   -1.2420  -11.4429   21.6166 C   0  0  0  0  0  0  0  0  0  0  0  0
   -1.2556   -9.9463   21.5902 N   0  0  0  0  0  0  0  0  0  0  0  0
   -0.2098   -9.0050   21.3593 C   0  0  0  0  0  0  0  0  0  0  0  0
    0.9556   -9.1668   21.2097 O   0  0  0  0  0  0  0  0  0  0  0  0
   -0.6964   -7.5300   21.1688 C   0  0  0  0  0  0  0  0  0  0  0  0
    0.1825   -6.7479   20.1569 C   0  0  0  0  0  0  0  0  0  0  0  0
    0.5668   -7.0191   18.8515 C   0  0  0  0  0  0  0  0  0  0  0  0
    1.4225   -5.9665   18.4681 C   0  0  0  0  0  0  0  0  0  0  0  0
    1.5545   -5.0574   19.4323 N   0  0  0  0  0  0  0  0  0  0  0  0
    0.8254   -5.5655   20.4485 N   0  0  0  0  0  0  0  0  0  0  0  0
   -4.3488  -20.2656   24.7069 H   0  0  0  0  0  0  0  0  0  0  0  0
   -2.8609  -21.1400   24.4000 H   0  0  0  0  0  0  0  0  0  0  0  0
   -3.9734  -21.6979   25.6276 H   0  0  0  0  0  0  0  0  0  0  0  0
   -3.2302  -21.4304   27.7472 H   0  0  0  0  0  0  0  0  0  0  0  0
   -1.7191  -20.0932   29.2525 H   0  0  0  0  0  0  0  0  0  0  0  0
   -2.1319  -17.5641   25.0731 H   0  0  0  0  0  0  0  0  0  0  0  0
   -2.4777  -16.5767   26.7682 H   0  0  0  0  0  0  0  0  0  0  0  0
    0.1122  -14.6735   24.6105 H   0  0  0  0  0  0  0  0  0  0  0  0
    0.2289  -11.7041   22.8915 H   0  0  0  0  0  0  0  0  0  0  0  0
    1.6592  -11.9470   24.7462 H   0  0  0  0  0  0  0  0  0  0  0  0
    2.1606  -13.2824   24.0137 H   0  0  0  0  0  0  0  0  0  0  0  0
    2.4244  -11.9365   23.0872 H   0  0  0  0  0  0  0  0  0  0  0  0
   -2.3131  -11.6081   21.4782 H   0  0  0  0  0  0  0  0  0  0  0  0
   -1.1262  -11.6771   20.5376 H   0  0  0  0  0  0  0  0  0  0  0  0
   -2.1435   -9.4600   21.5857 H   0  0  0  0  0  0  0  0  0  0  0  0
   -0.6669   -7.0391   22.1474 H   0  0  0  0  0  0  0  0  0  0  0  0
   -1.7261   -7.5210   20.7964 H   0  0  0  0  0  0  0  0  0  0  0  0
    0.2937   -7.8932   18.2765 H   0  0  0  0  0  0  0  0  0  0  0  0
    1.9424   -5.8261   17.5301 H   0  0  0  0  0  0  0  0  0  0  0  0
    0.8281   -5.0580   21.3257 H   0  0  0  0  0  0  0  0  0  0  0  0
  1  2  1  0
  2  3  1  0
  3  4  1  0
  4  5  2  0
  5  6  1  0
  6  7  1  0
  7  8  1  0
  8  9  2  0
  8 10  1  0
 10 11  1  0
 11 12  1  0
 11 13  1  0
 13 14  1  0
 14 15  1  0
 15 16  2  0
 15 17  1  0
 17 18  1  0
 18 19  2  0
 19 20  1  0
 20 21  2  0
 21 22  1  0
  6  2  2  0
 22 18  1  0
  1 23  1  0
  1 24  1  0
  1 25  1  0
  3 26  1  0
  4 27  1  0
  7 28  1  0
  7 29  1  0
 10 30  1  0
 11 31  1  0
 12 32  1  0
 12 33  1  0
 12 34  1  0
 13 35  1  0
 13 36  1  0
 14 37  1  0
 17 38  1  0
 17 39  1  0
 19 40  1  0
 20 41  1  0
 22 42  1  0
M  END
>  <Energy>  (1004) 
739.94997686374836

>  <compound_id>  (1004) 
8133

>  <target_id>  (1004) 
1

>  <reference_id>  (1004) 
101

>  <inspiration_ids>  (1004) 
[101, 122]

>  <energy_score>  (1004) 
663.5982583004894

>  <distance_score>  (1004) 
12.512239215792414

>  <path>  (1004) 
/opt/xchem-fragalysis-2/maxwin/BulkDock/SCRATCH/511013/C8133-P101/C8133-P101.minimised.mol

>  <scratch_subdir>  (1004) 
/opt/xchem-fragalysis-2/maxwin/BulkDock/SCRATCH/511013/C8133-P101

>  <fragmenstein_runtime>  (1004) 
30.814826011657715

>  <fragmenstein_outcome>  (1004) 
too moved

>  <fragmenstein_mode>  (1004) 
expansion

>  <fragmenstein_error>  (1004) 


$$$$
C8133-P122
     RDKit          3D

 42 43  0  0  0  0  0  0  0  0999 V2000
  -10.7957  -12.5228   21.7720 C   0  0  0  0  0  0  0  0  0  0  0  0
   -9.7680  -13.4765   22.2527 C   0  0  0  0  0  0  0  0  0  0  0  0
  -10.0065  -14.8273   22.3397 N   0  0  0  0  0  0  0  0  0  0  0  0
   -8.8749  -15.4195   22.8082 C   0  0  0  0  0  0  0  0  0  0  0  0
   -7.9470  -14.5275   23.0696 N   0  0  0  0  0  0  0  0  0  0  0  0
   -8.4477  -13.2959   22.6358 C   0  0  0  0  0  0  0  0  0  0  0  0
   -7.5979  -12.0167   22.7181 C   0  0  0  0  0  0  0  0  0  0  0  0
   -7.3807  -11.1723   21.3926 C   0  0  0  0  0  0  0  0  0  0  0  0
   -8.3078  -11.0507   20.6377 O   0  0  0  0  0  0  0  0  0  0  0  0
   -6.0380  -10.5770   21.3604 N   0  0  0  0  0  0  0  0  0  0  0  0
   -5.3711   -9.7164   20.3343 C   0  0  0  0  0  0  0  0  0  0  0  0
   -5.3612  -10.4339   18.9872 C   0  0  0  0  0  0  0  0  0  0  0  0
   -3.9043   -9.2638   20.7462 C   0  0  0  0  0  0  0  0  0  0  0  0
   -3.0159   -8.6601   19.7249 N   0  0  0  0  0  0  0  0  0  0  0  0
   -1.8425   -7.7777   19.8662 C   0  0  0  0  0  0  0  0  0  0  0  0
   -1.3631   -7.2639   20.8410 O   0  0  0  0  0  0  0  0  0  0  0  0
   -1.2173   -7.5083   18.4538 C   0  0  0  0  0  0  0  0  0  0  0  0
    0.1588   -6.8400   18.3633 C   0  0  0  0  0  0  0  0  0  0  0  0
    1.1032   -6.8454   17.3441 C   0  0  0  0  0  0  0  0  0  0  0  0
    2.1222   -5.9657   17.7543 C   0  0  0  0  0  0  0  0  0  0  0  0
    1.8649   -5.4375   18.9489 N   0  0  0  0  0  0  0  0  0  0  0  0
    0.7010   -6.0178   19.3210 N   0  0  0  0  0  0  0  0  0  0  0  0
  -10.7708  -12.4533   20.6802 H   0  0  0  0  0  0  0  0  0  0  0  0
  -11.7988  -12.8435   22.0717 H   0  0  0  0  0  0  0  0  0  0  0  0
  -10.6293  -11.5243   22.1880 H   0  0  0  0  0  0  0  0  0  0  0  0
  -10.8515  -15.2949   22.0454 H   0  0  0  0  0  0  0  0  0  0  0  0
   -8.7812  -16.4888   22.9144 H   0  0  0  0  0  0  0  0  0  0  0  0
   -8.0858  -11.3384   23.4300 H   0  0  0  0  0  0  0  0  0  0  0  0
   -6.6388  -12.2888   23.1627 H   0  0  0  0  0  0  0  0  0  0  0  0
   -5.4789  -10.9707   22.1218 H   0  0  0  0  0  0  0  0  0  0  0  0
   -5.9994   -8.8236   20.2348 H   0  0  0  0  0  0  0  0  0  0  0  0
   -6.3533  -10.8146   18.7247 H   0  0  0  0  0  0  0  0  0  0  0  0
   -5.0489   -9.7620   18.1818 H   0  0  0  0  0  0  0  0  0  0  0  0
   -4.6732  -11.2807   19.0105 H   0  0  0  0  0  0  0  0  0  0  0  0
   -3.9558   -8.5716   21.5941 H   0  0  0  0  0  0  0  0  0  0  0  0
   -3.3525  -10.1410   21.0989 H   0  0  0  0  0  0  0  0  0  0  0  0
   -3.0810   -8.9743   18.7639 H   0  0  0  0  0  0  0  0  0  0  0  0
   -1.9281   -6.8708   17.9128 H   0  0  0  0  0  0  0  0  0  0  0  0
   -1.1607   -8.4635   17.9239 H   0  0  0  0  0  0  0  0  0  0  0  0
    1.0407   -7.3897   16.4129 H   0  0  0  0  0  0  0  0  0  0  0  0
    3.0256   -5.6803   17.2323 H   0  0  0  0  0  0  0  0  0  0  0  0
    0.3173   -5.8090   20.2401 H   0  0  0  0  0  0  0  0  0  0  0  0
  1  2  1  0
  2  3  1  0
  3  4  1  0
  4  5  2  0
  5  6  1  0
  6  7  1  0
  7  8  1  0
  8  9  2  0
  8 10  1  0
 10 11  1  0
 11 12  1  0
 11 13  1  0
 13 14  1  0
 14 15  1  0
 15 16  2  0
 15 17  1  0
 17 18  1  0
 18 19  2  0
 19 20  1  0
 20 21  2  0
 21 22  1  0
  6  2  2  0
 22 18  1  0
  1 23  1  0
  1 24  1  0
  1 25  1  0
  3 26  1  0
  4 27  1  0
  7 28  1  0
  7 29  1  0
 10 30  1  0
 11 31  1  0
 12 32  1  0
 12 33  1  0
 12 34  1  0
 13 35  1  0
 13 36  1  0
 14 37  1  0
 17 38  1  0
 17 39  1  0
 19 40  1  0
 20 41  1  0
 22 42  1  0
M  END
>  <Energy>  (1005) 
55.403724237878244

>  <compound_id>  (1005) 
8133

>  <target_id>  (1005) 
1

>  <reference_id>  (1005) 
122

>  <inspiration_ids>  (1005) 
[101, 122]

>  <energy_score>  (1005) 
-20.947994325376385

>  <distance_score>  (1005) 
13.322576718892925

>  <path>  (1005) 
/opt/xchem-fragalysis-2/maxwin/BulkDock/SCRATCH/511013/C8133-P122/C8133-P122.minimised.mol

>  <scratch_subdir>  (1005) 
/opt/xchem-fragalysis-2/maxwin/BulkDock/SCRATCH/511013/C8133-P122

>  <fragmenstein_runtime>  (1005) 
34.934234380722046

>  <fragmenstein_outcome>  (1005) 
too moved

>  <fragmenstein_mode>  (1005) 
expansion

>  <fragmenstein_error>  (1005) 


$$$$
C8134-P101
     RDKit          3D

 21 23  0  0  0  0  0  0  0  0999 V2000
    6.2638  -11.5954   15.8650 C   0  0  0  0  0  0  0  0  0  0  0  0
    5.4960  -12.7594   15.6243 C   0  0  0  0  0  0  0  0  0  0  0  0
    5.8974  -13.6782   16.5758 C   0  0  0  0  0  0  0  0  0  0  0  0
    5.5338  -15.0542   16.8664 C   0  0  0  0  0  0  0  0  0  0  0  0
    4.4902  -15.7582   16.4165 N   0  0  0  0  0  0  0  0  0  0  0  0
    4.6353  -17.0099   17.0444 C   0  0  0  0  0  0  0  0  0  0  0  0
    3.5997  -18.3020   16.9936 C   0  0  0  0  0  0  0  0  0  0  0  0
    3.7647  -19.4332   17.6774 N   0  0  0  0  0  0  0  0  0  0  0  0
    2.6325  -20.1887   17.4934 C   0  0  0  0  0  0  0  0  0  0  0  0
    1.7882  -19.5545   16.6217 C   0  0  0  0  0  0  0  0  0  0  0  0
    2.4118  -18.3680   16.3079 N   0  0  0  0  0  0  0  0  0  0  0  0
    5.7347  -17.0782   17.8111 N   0  0  0  0  0  0  0  0  0  0  0  0
    6.3080  -15.8196   17.7108 O   0  0  0  0  0  0  0  0  0  0  0  0
    6.8514  -13.0070   17.3108 N   0  0  0  0  0  0  0  0  0  0  0  0
    7.0765  -11.7386   16.9120 N   0  0  0  0  0  0  0  0  0  0  0  0
    6.2572  -10.6569   15.3243 H   0  0  0  0  0  0  0  0  0  0  0  0
    4.7604  -12.9165   14.8477 H   0  0  0  0  0  0  0  0  0  0  0  0
    2.5072  -21.1506   17.9738 H   0  0  0  0  0  0  0  0  0  0  0  0
    0.8374  -19.8462   16.1994 H   0  0  0  0  0  0  0  0  0  0  0  0
    2.0794  -17.6535   15.6764 H   0  0  0  0  0  0  0  0  0  0  0  0
    7.3760  -13.3593   18.1050 H   0  0  0  0  0  0  0  0  0  0  0  0
  1  2  1  0
  2  3  2  0
  3  4  1  0
  4  5  2  0
  5  6  1  0
  6  7  1  0
  7  8  2  0
  8  9  1  0
  9 10  2  0
 10 11  1  0
  6 12  2  0
 12 13  1  0
  3 14  1  0
 14 15  1  0
 15  1  2  0
 13  4  1  0
 11  7  1  0
  1 16  1  0
  2 17  1  0
  9 18  1  0
 10 19  1  0
 11 20  1  0
 14 21  1  0
M  END
>  <Energy>  (1006) 
31.418723288080528

>  <compound_id>  (1006) 
8134

>  <target_id>  (1006) 
1

>  <reference_id>  (1006) 
101

>  <inspiration_ids>  (1006) 
[101, 122]

>  <energy_score>  (1006) 
-8.329851963207204

>  <distance_score>  (1006) 
15.98981291470269

>  <path>  (1006) 
/opt/xchem-fragalysis-2/maxwin/BulkDock/SCRATCH/511013/C8134-P101/C8134-P101.minimised.mol

>  <scratch_subdir>  (1006) 
/opt/xchem-fragalysis-2/maxwin/BulkDock/SCRATCH/511013/C8134-P101

>  <fragmenstein_runtime>  (1006) 
7.203367710113525

>  <fragmenstein_outcome>  (1006) 
too moved

>  <fragmenstein_mode>  (1006) 
expansion

>  <fragmenstein_error>  (1006) 


$$$$
C8134-P122
     RDKit          3D

 21 23  0  0  0  0  0  0  0  0999 V2000
    6.9637  -12.2734   17.8334 C   0  0  0  0  0  0  0  0  0  0  0  0
    6.2179  -13.4030   18.2427 C   0  0  0  0  0  0  0  0  0  0  0  0
    5.0234  -13.3416   17.5506 C   0  0  0  0  0  0  0  0  0  0  0  0
    3.7940  -14.1123   17.5999 C   0  0  0  0  0  0  0  0  0  0  0  0
    3.4138  -15.1127   18.3915 N   0  0  0  0  0  0  0  0  0  0  0  0
    2.0156  -15.1030   18.5089 C   0  0  0  0  0  0  0  0  0  0  0  0
    0.4466  -16.0765   19.7041 C   0  0  0  0  0  0  0  0  0  0  0  0
   -1.0602  -15.6434   19.4659 N   0  0  0  0  0  0  0  0  0  0  0  0
   -1.9169  -16.6261   19.7710 C   0  0  0  0  0  0  0  0  0  0  0  0
   -1.1940  -17.3802   20.5827 C   0  0  0  0  0  0  0  0  0  0  0  0
    0.0974  -16.8796   20.7511 N   0  0  0  0  0  0  0  0  0  0  0  0
    1.6140  -14.1983   17.5437 N   0  0  0  0  0  0  0  0  0  0  0  0
    2.7162  -13.7329   16.8787 O   0  0  0  0  0  0  0  0  0  0  0  0
    5.1464  -12.2073   16.7734 N   0  0  0  0  0  0  0  0  0  0  0  0
    6.3020  -11.5322   16.9439 N   0  0  0  0  0  0  0  0  0  0  0  0
    7.9494  -11.9610   18.1554 H   0  0  0  0  0  0  0  0  0  0  0  0
    6.4910  -14.1488   18.9764 H   0  0  0  0  0  0  0  0  0  0  0  0
   -2.9270  -16.7250   19.4277 H   0  0  0  0  0  0  0  0  0  0  0  0
   -1.4448  -18.2514   21.1206 H   0  0  0  0  0  0  0  0  0  0  0  0
    0.7341  -17.4414   21.2453 H   0  0  0  0  0  0  0  0  0  0  0  0
    4.4624  -11.8239   16.1293 H   0  0  0  0  0  0  0  0  0  0  0  0
  1  2  1  0
  2  3  2  0
  3  4  1  0
  4  5  2  0
  5  6  1  0
  6  7  1  0
  7  8  2  0
  8  9  1  0
  9 10  2  0
 10 11  1  0
  6 12  2  0
 12 13  1  0
  3 14  1  0
 14 15  1  0
 15  1  2  0
 13  4  1  0
 11  7  1  0
  1 16  1  0
  2 17  1  0
  9 18  1  0
 10 19  1  0
 11 20  1  0
 14 21  1  0
M  END
>  <Energy>  (1007) 
191.09248041180348

>  <compound_id>  (1007) 
8134

>  <target_id>  (1007) 
1

>  <reference_id>  (1007) 
122

>  <inspiration_ids>  (1007) 
[101, 122]

>  <energy_score>  (1007) 
151.3439051605219

>  <distance_score>  (1007) 
14.455860032153577

>  <path>  (1007) 
/opt/xchem-fragalysis-2/maxwin/BulkDock/SCRATCH/511013/C8134-P122/C8134-P122.minimised.mol

>  <scratch_subdir>  (1007) 
/opt/xchem-fragalysis-2/maxwin/BulkDock/SCRATCH/511013/C8134-P122

>  <fragmenstein_runtime>  (1007) 
4.6685075759887695

>  <fragmenstein_outcome>  (1007) 
too moved

>  <fragmenstein_mode>  (1007) 
expansion

>  <fragmenstein_error>  (1007) 


$$$$
C8135-P101
     RDKit          3D

 24 26  0  0  0  0  0  0  0  0999 V2000
   -3.2083  -17.8269   29.0451 C   0  0  0  0  0  0  0  0  0  0  0  0
   -2.8108  -16.3979   29.2219 C   0  0  0  0  0  0  0  0  0  0  0  0
   -3.4461  -15.4257   29.9576 C   0  0  0  0  0  0  0  0  0  0  0  0
   -2.7115  -14.2825   29.7634 N   0  0  0  0  0  0  0  0  0  0  0  0
   -1.6386  -14.5517   28.9304 C   0  0  0  0  0  0  0  0  0  0  0  0
   -0.5333  -13.3248   28.4928 C   0  0  0  0  0  0  0  0  0  0  0  0
   -0.7085  -12.1030   29.0290 N   0  0  0  0  0  0  0  0  0  0  0  0
    0.3275  -11.3316   28.5006 O   0  0  0  0  0  0  0  0  0  0  0  0
    1.0617  -12.1091   27.6255 C   0  0  0  0  0  0  0  0  0  0  0  0
    2.1732  -11.5364   26.8610 C   0  0  0  0  0  0  0  0  0  0  0  0
    2.9485  -10.4039   27.0892 C   0  0  0  0  0  0  0  0  0  0  0  0
    3.8428  -10.3081   26.0021 C   0  0  0  0  0  0  0  0  0  0  0  0
    3.6392  -11.2805   25.1160 N   0  0  0  0  0  0  0  0  0  0  0  0
    2.6230  -12.0031   25.6504 N   0  0  0  0  0  0  0  0  0  0  0  0
    0.5830  -13.3564   27.6220 N   0  0  0  0  0  0  0  0  0  0  0  0
   -1.6878  -15.8419   28.6112 N   0  0  0  0  0  0  0  0  0  0  0  0
   -3.0768  -18.3732   29.9839 H   0  0  0  0  0  0  0  0  0  0  0  0
   -2.5899  -18.3042   28.2792 H   0  0  0  0  0  0  0  0  0  0  0  0
   -4.2574  -17.8979   28.7429 H   0  0  0  0  0  0  0  0  0  0  0  0
   -4.3351  -15.4413   30.5723 H   0  0  0  0  0  0  0  0  0  0  0  0
   -2.9004  -13.3719   30.1563 H   0  0  0  0  0  0  0  0  0  0  0  0
    2.8829   -9.7443   27.9436 H   0  0  0  0  0  0  0  0  0  0  0  0
    4.6185   -9.5751   25.8194 H   0  0  0  0  0  0  0  0  0  0  0  0
    2.2128  -12.7529   25.1033 H   0  0  0  0  0  0  0  0  0  0  0  0
  1  2  1  0
  2  3  2  0
  3  4  1  0
  4  5  1  0
  5  6  1  0
  6  7  2  0
  7  8  1  0
  8  9  1  0
  9 10  1  0
 10 11  2  0
 11 12  1  0
 12 13  2  0
 13 14  1  0
  9 15  2  0
  5 16  2  0
 16  2  1  0
 15  6  1  0
 14 10  1  0
  1 17  1  0
  1 18  1  0
  1 19  1  0
  3 20  1  0
  4 21  1  0
 11 22  1  0
 12 23  1  0
 14 24  1  0
M  END
>  <Energy>  (1008) 
36.498337847621187

>  <compound_id>  (1008) 
8135

>  <target_id>  (1008) 
1

>  <reference_id>  (1008) 
101

>  <inspiration_ids>  (1008) 
[101, 122]

>  <energy_score>  (1008) 
-11.092689708730688

>  <distance_score>  (1008) 
15.02323751681738

>  <path>  (1008) 
/opt/xchem-fragalysis-2/maxwin/BulkDock/SCRATCH/511013/C8135-P101/C8135-P101.minimised.mol

>  <scratch_subdir>  (1008) 
/opt/xchem-fragalysis-2/maxwin/BulkDock/SCRATCH/511013/C8135-P101

>  <fragmenstein_runtime>  (1008) 
7.6634840965271

>  <fragmenstein_outcome>  (1008) 
too moved

>  <fragmenstein_mode>  (1008) 
expansion

>  <fragmenstein_error>  (1008) 


$$$$
C8135-P122
     RDKit          3D

 24 26  0  0  0  0  0  0  0  0999 V2000
   -7.3207  -12.0927   26.2712 C   0  0  0  0  0  0  0  0  0  0  0  0
   -6.8800  -11.3965   25.0189 C   0  0  0  0  0  0  0  0  0  0  0  0
   -7.5544  -11.3677   23.8202 C   0  0  0  0  0  0  0  0  0  0  0  0
   -6.7871  -10.5922   22.9948 N   0  0  0  0  0  0  0  0  0  0  0  0
   -5.6460  -10.1732   23.6629 C   0  0  0  0  0  0  0  0  0  0  0  0
   -4.4307   -9.3197   22.7804 C   0  0  0  0  0  0  0  0  0  0  0  0
   -4.6621   -9.0623   21.4772 N   0  0  0  0  0  0  0  0  0  0  0  0
   -3.4533   -8.5544   20.9910 O   0  0  0  0  0  0  0  0  0  0  0  0
   -2.5586   -8.4702   22.0363 C   0  0  0  0  0  0  0  0  0  0  0  0
   -1.2072   -7.9284   21.8674 C   0  0  0  0  0  0  0  0  0  0  0  0
   -0.4446   -7.0973   22.6745 C   0  0  0  0  0  0  0  0  0  0  0  0
    0.7380   -6.8194   21.9545 C   0  0  0  0  0  0  0  0  0  0  0  0
    0.7552   -7.4308   20.7729 N   0  0  0  0  0  0  0  0  0  0  0  0
   -0.3934   -8.1555   20.7677 N   0  0  0  0  0  0  0  0  0  0  0  0
   -3.1296   -8.9240   23.1622 N   0  0  0  0  0  0  0  0  0  0  0  0
   -5.6907  -10.6499   24.9096 N   0  0  0  0  0  0  0  0  0  0  0  0
   -7.4390  -13.1663   26.1017 H   0  0  0  0  0  0  0  0  0  0  0  0
   -8.2872  -11.6917   26.5941 H   0  0  0  0  0  0  0  0  0  0  0  0
   -6.6064  -11.9275   27.0827 H   0  0  0  0  0  0  0  0  0  0  0  0
   -8.4893  -11.8016   23.4999 H   0  0  0  0  0  0  0  0  0  0  0  0
   -6.9529  -10.3818   22.0221 H   0  0  0  0  0  0  0  0  0  0  0  0
   -0.7293   -6.7126   23.6440 H   0  0  0  0  0  0  0  0  0  0  0  0
    1.5722   -6.1912   22.2388 H   0  0  0  0  0  0  0  0  0  0  0  0
   -0.5319   -8.8127   19.9990 H   0  0  0  0  0  0  0  0  0  0  0  0
  1  2  1  0
  2  3  2  0
  3  4  1  0
  4  5  1  0
  5  6  1  0
  6  7  2  0
  7  8  1  0
  8  9  1  0
  9 10  1  0
 10 11  2  0
 11 12  1  0
 12 13  2  0
 13 14  1  0
  9 15  2  0
  5 16  2  0
 16  2  1  0
 15  6  1  0
 14 10  1  0
  1 17  1  0
  1 18  1  0
  1 19  1  0
  3 20  1  0
  4 21  1  0
 11 22  1  0
 12 23  1  0
 14 24  1  0
M  END
>  <Energy>  (1009) 
42.289561770462299

>  <compound_id>  (1009) 
8135

>  <target_id>  (1009) 
1

>  <reference_id>  (1009) 
122

>  <inspiration_ids>  (1009) 
[101, 122]

>  <energy_score>  (1009) 
-5.301465785889491

>  <distance_score>  (1009) 
15.411268490186655

>  <path>  (1009) 
/opt/xchem-fragalysis-2/maxwin/BulkDock/SCRATCH/511013/C8135-P122/C8135-P122.minimised.mol

>  <scratch_subdir>  (1009) 
/opt/xchem-fragalysis-2/maxwin/BulkDock/SCRATCH/511013/C8135-P122

>  <fragmenstein_runtime>  (1009) 
11.140957832336426

>  <fragmenstein_outcome>  (1009) 
too moved

>  <fragmenstein_mode>  (1009) 
expansion

>  <fragmenstein_error>  (1009) 


$$$$
C8136-P101
     RDKit          3D

 24 26  0  0  0  0  0  0  0  0999 V2000
   -1.5548  -22.2724   23.3263 C   0  0  0  0  0  0  0  0  0  0  0  0
   -0.2961  -21.8771   24.0046 N   0  0  0  0  0  0  0  0  0  0  0  0
   -0.1894  -22.8291   25.7655 C   0  0  0  0  0  0  0  0  0  0  0  0
    0.1480  -21.3128   27.0968 C   0  0  0  0  0  0  0  0  0  0  0  0
    0.6017  -19.7225   25.7096 N   0  0  0  0  0  0  0  0  0  0  0  0
    0.3648  -20.0018   23.8172 C   0  0  0  0  0  0  0  0  0  0  0  0
   -0.1494  -18.4971   22.1321 C   0  0  0  0  0  0  0  0  0  0  0  0
   -1.2123  -18.1088   21.2215 N   0  0  0  0  0  0  0  0  0  0  0  0
   -0.7933  -16.6430   20.4227 O   0  0  0  0  0  0  0  0  0  0  0  0
    0.6938  -16.4103   20.4791 C   0  0  0  0  0  0  0  0  0  0  0  0
    2.1266  -15.1862   19.9396 C   0  0  0  0  0  0  0  0  0  0  0  0
    2.7530  -14.9147   18.5263 C   0  0  0  0  0  0  0  0  0  0  0  0
    3.8532  -13.9250   18.4084 C   0  0  0  0  0  0  0  0  0  0  0  0
    4.0946  -13.2431   19.5494 N   0  0  0  0  0  0  0  0  0  0  0  0
    2.9563  -13.9537   20.5513 N   0  0  0  0  0  0  0  0  0  0  0  0
    0.7656  -17.6398   21.0988 N   0  0  0  0  0  0  0  0  0  0  0  0
   -2.1476  -21.3765   23.1499 H   0  0  0  0  0  0  0  0  0  0  0  0
   -2.1127  -22.9280   23.9972 H   0  0  0  0  0  0  0  0  0  0  0  0
   -1.2789  -22.8389   22.4377 H   0  0  0  0  0  0  0  0  0  0  0  0
   -0.9924  -23.5787   25.7745 H   0  0  0  0  0  0  0  0  0  0  0  0
   -0.3783  -20.9921   28.0035 H   0  0  0  0  0  0  0  0  0  0  0  0
    2.6051  -15.5178   17.6645 H   0  0  0  0  0  0  0  0  0  0  0  0
    4.4562  -13.7186   17.5350 H   0  0  0  0  0  0  0  0  0  0  0  0
    3.0119  -13.7046   21.5267 H   0  0  0  0  0  0  0  0  0  0  0  0
  1  2  1  0
  2  3  1  0
  3  4  2  0
  4  5  1  0
  5  6  2  0
  6  7  1  0
  7  8  2  0
  8  9  1  0
  9 10  1  0
 10 11  1  0
 11 12  2  0
 12 13  1  0
 13 14  2  0
 14 15  1  0
 10 16  2  0
  6  2  1  0
 16  7  1  0
 15 11  1  0
  1 17  1  0
  1 18  1  0
  1 19  1  0
  3 20  1  0
  4 21  1  0
 12 22  1  0
 13 23  1  0
 15 24  1  0
M  END
>  <Energy>  (1010) 
1266.4230785507839

>  <compound_id>  (1010) 
8136

>  <target_id>  (1010) 
1

>  <reference_id>  (1010) 
101

>  <inspiration_ids>  (1010) 
[101, 122]

>  <energy_score>  (1010) 
1207.9995516656004

>  <distance_score>  (1010) 
14.488439304644931

>  <path>  (1010) 
/opt/xchem-fragalysis-2/maxwin/BulkDock/SCRATCH/511013/C8136-P101/C8136-P101.minimised.mol

>  <scratch_subdir>  (1010) 
/opt/xchem-fragalysis-2/maxwin/BulkDock/SCRATCH/511013/C8136-P101

>  <fragmenstein_runtime>  (1010) 
8.845907926559448

>  <fragmenstein_outcome>  (1010) 
too moved

>  <fragmenstein_mode>  (1010) 
expansion

>  <fragmenstein_error>  (1010) 


$$$$
C8136-P122
     RDKit          3D

 24 26  0  0  0  0  0  0  0  0999 V2000
    2.0891  -14.1606   29.1697 C   0  0  0  0  0  0  0  0  0  0  0  0
    0.9118  -13.6449   28.5162 N   0  0  0  0  0  0  0  0  0  0  0  0
   -0.3800  -13.9604   28.8760 C   0  0  0  0  0  0  0  0  0  0  0  0
   -1.1696  -13.1806   28.0723 C   0  0  0  0  0  0  0  0  0  0  0  0
   -0.3872  -12.3877   27.2630 N   0  0  0  0  0  0  0  0  0  0  0  0
    0.8849  -12.6879   27.5068 C   0  0  0  0  0  0  0  0  0  0  0  0
    2.2443  -12.0117   26.7452 C   0  0  0  0  0  0  0  0  0  0  0  0
    3.4840  -12.4264   27.0633 N   0  0  0  0  0  0  0  0  0  0  0  0
    4.3283  -11.6874   26.2322 O   0  0  0  0  0  0  0  0  0  0  0  0
    3.5558  -10.8498   25.4534 C   0  0  0  0  0  0  0  0  0  0  0  0
    4.1419   -9.9584   24.4610 C   0  0  0  0  0  0  0  0  0  0  0  0
    3.6010   -9.0768   23.5422 C   0  0  0  0  0  0  0  0  0  0  0  0
    4.6973   -8.5212   22.8424 C   0  0  0  0  0  0  0  0  0  0  0  0
    5.8641   -8.9978   23.2793 N   0  0  0  0  0  0  0  0  0  0  0  0
    5.5013   -9.8578   24.2552 N   0  0  0  0  0  0  0  0  0  0  0  0
    2.2711  -11.0044   25.7593 N   0  0  0  0  0  0  0  0  0  0  0  0
    1.7919  -14.8615   29.9547 H   0  0  0  0  0  0  0  0  0  0  0  0
    2.7059  -14.6830   28.4380 H   0  0  0  0  0  0  0  0  0  0  0  0
    2.6331  -13.3261   29.6190 H   0  0  0  0  0  0  0  0  0  0  0  0
   -0.6140  -14.6865   29.6417 H   0  0  0  0  0  0  0  0  0  0  0  0
   -2.2495  -13.1298   28.0340 H   0  0  0  0  0  0  0  0  0  0  0  0
    2.5500   -8.8752   23.3840 H   0  0  0  0  0  0  0  0  0  0  0  0
    4.6827   -7.7982   22.0364 H   0  0  0  0  0  0  0  0  0  0  0  0
    6.2356  -10.3565   24.7460 H   0  0  0  0  0  0  0  0  0  0  0  0
  1  2  1  0
  2  3  1  0
  3  4  2  0
  4  5  1  0
  5  6  2  0
  6  7  1  0
  7  8  2  0
  8  9  1  0
  9 10  1  0
 10 11  1  0
 11 12  2  0
 12 13  1  0
 13 14  2  0
 14 15  1  0
 10 16  2  0
  6  2  1  0
 16  7  1  0
 15 11  1  0
  1 17  1  0
  1 18  1  0
  1 19  1  0
  3 20  1  0
  4 21  1  0
 12 22  1  0
 13 23  1  0
 15 24  1  0
M  END
>  <Energy>  (1011) 
36.72292048852831

>  <compound_id>  (1011) 
8136

>  <target_id>  (1011) 
1

>  <reference_id>  (1011) 
122

>  <inspiration_ids>  (1011) 
[101, 122]

>  <energy_score>  (1011) 
-21.700606396675425

>  <distance_score>  (1011) 
15.170318796583787

>  <path>  (1011) 
/opt/xchem-fragalysis-2/maxwin/BulkDock/SCRATCH/511013/C8136-P122/C8136-P122.minimised.mol

>  <scratch_subdir>  (1011) 
/opt/xchem-fragalysis-2/maxwin/BulkDock/SCRATCH/511013/C8136-P122

>  <fragmenstein_runtime>  (1011) 
6.6094651222229

>  <fragmenstein_outcome>  (1011) 
too moved

>  <fragmenstein_mode>  (1011) 
expansion

>  <fragmenstein_error>  (1011) 


$$$$
C8137-P101
     RDKit          3D

 40 41  0  0  0  0  0  0  0  0999 V2000
   -2.8164  -16.5920   17.9339 C   0  0  0  0  0  0  0  0  0  0  0  0
   -2.2305  -16.1953   19.4332 C   0  0  0  0  0  0  0  0  0  0  0  0
   -2.4796  -17.4306   19.9984 N   0  0  0  0  0  0  0  0  0  0  0  0
   -0.9522  -16.6038   20.9038 C   0  0  0  0  0  0  0  0  0  0  0  0
   -1.0952  -14.9021   22.1704 C   0  0  0  0  0  0  0  0  0  0  0  0
    0.1868  -13.9324   22.8527 N   0  0  0  0  0  0  0  0  0  0  0  0
    0.5223  -12.0691   22.8053 C   0  0  0  0  0  0  0  0  0  0  0  0
   -0.1526  -11.1242   22.3633 O   0  0  0  0  0  0  0  0  0  0  0  0
    2.3011  -12.1199   23.5164 C   0  0  0  0  0  0  0  0  0  0  0  0
    3.8888  -12.1967   22.5485 C   0  0  0  0  0  0  0  0  0  0  0  0
    5.1152  -11.4129   22.4646 C   0  0  0  0  0  0  0  0  0  0  0  0
    6.0718  -12.0837   21.7163 C   0  0  0  0  0  0  0  0  0  0  0  0
    5.5736  -13.2383   21.3454 N   0  0  0  0  0  0  0  0  0  0  0  0
    4.2603  -13.1868   21.6989 N   0  0  0  0  0  0  0  0  0  0  0  0
   -2.5648  -18.9997   19.2644 C   0  0  0  0  0  0  0  0  0  0  0  0
   -2.3007  -19.2007   18.1097 O   0  0  0  0  0  0  0  0  0  0  0  0
   -3.1282  -20.3379   19.9136 C   0  0  0  0  0  0  0  0  0  0  0  0
   -4.2649  -20.7520   19.1624 N   0  0  0  0  0  0  0  0  0  0  0  0
   -4.7989  -21.9116   19.6135 C   0  0  0  0  0  0  0  0  0  0  0  0
   -4.1043  -22.3720   20.6081 N   0  0  0  0  0  0  0  0  0  0  0  0
   -3.1037  -21.4250   20.8449 C   0  0  0  0  0  0  0  0  0  0  0  0
   -2.4239  -21.7191   22.0839 C   0  0  0  0  0  0  0  0  0  0  0  0
   -2.0414  -22.0176   23.1409 N   0  0  0  0  0  0  0  0  0  0  0  0
   -3.8791  -16.8784   17.9816 H   0  0  0  0  0  0  0  0  0  0  0  0
   -2.6607  -15.8156   17.1634 H   0  0  0  0  0  0  0  0  0  0  0  0
   -2.3415  -17.4160   17.4347 H   0  0  0  0  0  0  0  0  0  0  0  0
   -2.8589  -15.5696   20.0243 H   0  0  0  0  0  0  0  0  0  0  0  0
   -1.3937  -15.6006   19.1735 H   0  0  0  0  0  0  0  0  0  0  0  0
   -0.0979  -16.5182   20.2298 H   0  0  0  0  0  0  0  0  0  0  0  0
   -0.5713  -17.4734   21.4419 H   0  0  0  0  0  0  0  0  0  0  0  0
   -1.8489  -14.4960   21.4468 H   0  0  0  0  0  0  0  0  0  0  0  0
   -1.4209  -15.0669   23.2205 H   0  0  0  0  0  0  0  0  0  0  0  0
    0.9219  -14.4285   23.3692 H   0  0  0  0  0  0  0  0  0  0  0  0
    2.1658  -11.8700   24.5160 H   0  0  0  0  0  0  0  0  0  0  0  0
    2.4894  -13.1725   23.8278 H   0  0  0  0  0  0  0  0  0  0  0  0
    5.3468  -10.4663   22.9374 H   0  0  0  0  0  0  0  0  0  0  0  0
    7.0892  -11.8164   21.4667 H   0  0  0  0  0  0  0  0  0  0  0  0
    3.6379  -13.8581   21.2673 H   0  0  0  0  0  0  0  0  0  0  0  0
   -4.5994  -20.2373   18.3600 H   0  0  0  0  0  0  0  0  0  0  0  0
   -5.6735  -22.3718   19.1728 H   0  0  0  0  0  0  0  0  0  0  0  0
  1  2  1  0
  2  3  1  0
  3  4  1  0
  4  5  1  0
  5  6  1  0
  6  7  1  0
  7  8  2  0
  7  9  1  0
  9 10  1  0
 10 11  2  0
 11 12  1  0
 12 13  2  0
 13 14  1  0
  3 15  1  0
 15 16  2  0
 15 17  1  0
 17 18  1  0
 18 19  1  0
 19 20  2  0
 20 21  1  0
 21 22  1  0
 22 23  3  0
 14 10  1  0
 21 17  2  0
  1 24  1  0
  1 25  1  0
  1 26  1  0
  2 27  1  0
  2 28  1  0
  4 29  1  0
  4 30  1  0
  5 31  1  0
  5 32  1  0
  6 33  1  0
  9 34  1  0
  9 35  1  0
 11 36  1  0
 12 37  1  0
 14 38  1  0
 18 39  1  0
 19 40  1  0
M  END
>  <Energy>  (1012) 
600.43630297978234

>  <compound_id>  (1012) 
8137

>  <target_id>  (1012) 
1

>  <reference_id>  (1012) 
101

>  <inspiration_ids>  (1012) 
[101, 122]

>  <energy_score>  (1012) 
548.5071598479524

>  <distance_score>  (1012) 
12.992420145169485

>  <path>  (1012) 
/opt/xchem-fragalysis-2/maxwin/BulkDock/SCRATCH/511013/C8137-P101/C8137-P101.minimised.mol

>  <scratch_subdir>  (1012) 
/opt/xchem-fragalysis-2/maxwin/BulkDock/SCRATCH/511013/C8137-P101

>  <fragmenstein_runtime>  (1012) 
24.214279174804688

>  <fragmenstein_outcome>  (1012) 
too moved

>  <fragmenstein_mode>  (1012) 
expansion

>  <fragmenstein_error>  (1012) 


$$$$
C8137-P122
     RDKit          3D

 40 41  0  0  0  0  0  0  0  0999 V2000
   -4.3007  -21.1800   15.1946 C   0  0  0  0  0  0  0  0  0  0  0  0
   -3.4586  -21.6691   16.3737 C   0  0  0  0  0  0  0  0  0  0  0  0
   -4.1828  -21.4102   17.6739 N   0  0  0  0  0  0  0  0  0  0  0  0
   -2.9453  -20.4771   17.9135 C   0  0  0  0  0  0  0  0  0  0  0  0
   -2.7882  -19.0676   17.1798 C   0  0  0  0  0  0  0  0  0  0  0  0
   -1.9076  -18.7455   16.0117 N   0  0  0  0  0  0  0  0  0  0  0  0
   -0.4385  -18.7219   15.8864 C   0  0  0  0  0  0  0  0  0  0  0  0
    0.4180  -19.0349   16.6688 O   0  0  0  0  0  0  0  0  0  0  0  0
    0.0368  -18.0693   14.5092 C   0  0  0  0  0  0  0  0  0  0  0  0
    1.0919  -16.9170   14.5999 C   0  0  0  0  0  0  0  0  0  0  0  0
    1.0724  -15.5890   14.1802 C   0  0  0  0  0  0  0  0  0  0  0  0
    2.3354  -15.0465   14.5097 C   0  0  0  0  0  0  0  0  0  0  0  0
    3.1223  -15.9510   15.0885 N   0  0  0  0  0  0  0  0  0  0  0  0
    2.3623  -17.0707   15.1242 N   0  0  0  0  0  0  0  0  0  0  0  0
   -4.3968  -22.2820   18.8399 C   0  0  0  0  0  0  0  0  0  0  0  0
   -3.9707  -23.3798   19.0784 O   0  0  0  0  0  0  0  0  0  0  0  0
   -5.3763  -21.7428   19.8154 C   0  0  0  0  0  0  0  0  0  0  0  0
   -6.1983  -20.6554   19.5841 N   0  0  0  0  0  0  0  0  0  0  0  0
   -7.1223  -20.5557   20.5843 C   0  0  0  0  0  0  0  0  0  0  0  0
   -6.9605  -21.4913   21.4814 N   0  0  0  0  0  0  0  0  0  0  0  0
   -5.8767  -22.2349   21.0396 C   0  0  0  0  0  0  0  0  0  0  0  0
   -5.5001  -23.3482   21.8790 C   0  0  0  0  0  0  0  0  0  0  0  0
   -5.2513  -24.2020   22.6315 N   0  0  0  0  0  0  0  0  0  0  0  0
   -3.8429  -21.4910   14.2502 H   0  0  0  0  0  0  0  0  0  0  0  0
   -4.4031  -20.0927   15.1813 H   0  0  0  0  0  0  0  0  0  0  0  0
   -5.3091  -21.6060   15.2362 H   0  0  0  0  0  0  0  0  0  0  0  0
   -2.3874  -21.4741   16.1983 H   0  0  0  0  0  0  0  0  0  0  0  0
   -3.4827  -22.7685   16.3088 H   0  0  0  0  0  0  0  0  0  0  0  0
   -3.1294  -20.1691   18.9556 H   0  0  0  0  0  0  0  0  0  0  0  0
   -2.0082  -21.0483   18.0120 H   0  0  0  0  0  0  0  0  0  0  0  0
   -3.7874  -18.7089   16.9078 H   0  0  0  0  0  0  0  0  0  0  0  0
   -2.4243  -18.3765   17.9505 H   0  0  0  0  0  0  0  0  0  0  0  0
   -2.3184  -18.3316   15.1826 H   0  0  0  0  0  0  0  0  0  0  0  0
    0.4654  -18.8787   13.9063 H   0  0  0  0  0  0  0  0  0  0  0  0
   -0.8305  -17.6786   13.9660 H   0  0  0  0  0  0  0  0  0  0  0  0
    0.2504  -15.0798   13.6973 H   0  0  0  0  0  0  0  0  0  0  0  0
    2.7080  -14.0433   14.3475 H   0  0  0  0  0  0  0  0  0  0  0  0
    2.7506  -17.9031   15.5588 H   0  0  0  0  0  0  0  0  0  0  0  0
   -6.1637  -20.0794   18.7563 H   0  0  0  0  0  0  0  0  0  0  0  0
   -7.8798  -19.7834   20.6025 H   0  0  0  0  0  0  0  0  0  0  0  0
  1  2  1  0
  2  3  1  0
  3  4  1  0
  4  5  1  0
  5  6  1  0
  6  7  1  0
  7  8  2  0
  7  9  1  0
  9 10  1  0
 10 11  2  0
 11 12  1  0
 12 13  2  0
 13 14  1  0
  3 15  1  0
 15 16  2  0
 15 17  1  0
 17 18  1  0
 18 19  1  0
 19 20  2  0
 20 21  1  0
 21 22  1  0
 22 23  3  0
 14 10  1  0
 21 17  2  0
  1 24  1  0
  1 25  1  0
  1 26  1  0
  2 27  1  0
  2 28  1  0
  4 29  1  0
  4 30  1  0
  5 31  1  0
  5 32  1  0
  6 33  1  0
  9 34  1  0
  9 35  1  0
 11 36  1  0
 12 37  1  0
 14 38  1  0
 18 39  1  0
 19 40  1  0
M  END
>  <Energy>  (1013) 
119.27115797330868

>  <compound_id>  (1013) 
8137

>  <target_id>  (1013) 
1

>  <reference_id>  (1013) 
122

>  <inspiration_ids>  (1013) 
[101, 122]

>  <energy_score>  (1013) 
67.34201484147354

>  <distance_score>  (1013) 
14.114478953140729

>  <path>  (1013) 
/opt/xchem-fragalysis-2/maxwin/BulkDock/SCRATCH/511013/C8137-P122/C8137-P122.minimised.mol

>  <scratch_subdir>  (1013) 
/opt/xchem-fragalysis-2/maxwin/BulkDock/SCRATCH/511013/C8137-P122

>  <fragmenstein_runtime>  (1013) 
26.160478353500366

>  <fragmenstein_outcome>  (1013) 
too moved

>  <fragmenstein_mode>  (1013) 
expansion

>  <fragmenstein_error>  (1013) 


$$$$
C8138-P101
     RDKit          3D

 45 46  0  0  0  0  0  0  0  0999 V2000
   -6.9700  -22.0190   21.8467 C   0  0  0  0  0  0  0  0  0  0  0  0
   -6.1793  -22.0057   20.5359 C   0  0  0  0  0  0  0  0  0  0  0  0
   -6.9154  -21.4508   19.3403 C   0  0  0  0  0  0  0  0  0  0  0  0
   -8.2485  -21.7996   19.2183 N   0  0  0  0  0  0  0  0  0  0  0  0
   -8.6229  -21.3749   18.0439 C   0  0  0  0  0  0  0  0  0  0  0  0
   -7.6085  -20.7301   17.4010 N   0  0  0  0  0  0  0  0  0  0  0  0
   -6.4736  -20.7556   18.1841 C   0  0  0  0  0  0  0  0  0  0  0  0
   -5.1174  -20.3564   17.7206 C   0  0  0  0  0  0  0  0  0  0  0  0
   -4.2141  -20.6094   18.4715 O   0  0  0  0  0  0  0  0  0  0  0  0
   -5.0952  -19.8018   16.3613 N   0  0  0  0  0  0  0  0  0  0  0  0
   -3.9544  -19.4920   15.4649 C   0  0  0  0  0  0  0  0  0  0  0  0
   -3.2719  -20.8305   15.1238 C   0  0  0  0  0  0  0  0  0  0  0  0
   -5.1881  -18.1957   16.4131 C   0  0  0  0  0  0  0  0  0  0  0  0
   -5.2059  -17.1307   15.1584 C   0  0  0  0  0  0  0  0  0  0  0  0
   -3.9108  -16.4772   14.8125 N   0  0  0  0  0  0  0  0  0  0  0  0
   -3.5877  -15.4173   13.8124 C   0  0  0  0  0  0  0  0  0  0  0  0
   -4.2785  -14.8878   12.9865 O   0  0  0  0  0  0  0  0  0  0  0  0
   -2.0531  -15.0925   13.9301 C   0  0  0  0  0  0  0  0  0  0  0  0
   -1.3033  -13.9998   13.1529 C   0  0  0  0  0  0  0  0  0  0  0  0
   -1.6285  -12.7910   12.5641 C   0  0  0  0  0  0  0  0  0  0  0  0
   -0.4006  -12.1969   12.1758 C   0  0  0  0  0  0  0  0  0  0  0  0
    0.6480  -12.9610   12.4874 N   0  0  0  0  0  0  0  0  0  0  0  0
    0.0769  -14.0574   13.0254 N   0  0  0  0  0  0  0  0  0  0  0  0
   -6.3570  -22.4528   22.6412 H   0  0  0  0  0  0  0  0  0  0  0  0
   -7.2544  -21.0034   22.1375 H   0  0  0  0  0  0  0  0  0  0  0  0
   -7.8821  -22.6150   21.7580 H   0  0  0  0  0  0  0  0  0  0  0  0
   -5.2452  -21.4596   20.6708 H   0  0  0  0  0  0  0  0  0  0  0  0
   -5.8964  -23.0384   20.2955 H   0  0  0  0  0  0  0  0  0  0  0  0
   -9.6028  -21.5065   17.6075 H   0  0  0  0  0  0  0  0  0  0  0  0
   -7.6377  -20.3778   16.4563 H   0  0  0  0  0  0  0  0  0  0  0  0
   -3.1549  -18.9298   15.9533 H   0  0  0  0  0  0  0  0  0  0  0  0
   -4.2697  -19.1278   14.4842 H   0  0  0  0  0  0  0  0  0  0  0  0
   -3.9792  -21.5202   14.6505 H   0  0  0  0  0  0  0  0  0  0  0  0
   -2.8797  -21.3161   16.0236 H   0  0  0  0  0  0  0  0  0  0  0  0
   -2.4375  -20.6649   14.4349 H   0  0  0  0  0  0  0  0  0  0  0  0
   -6.1830  -18.0660   16.8653 H   0  0  0  0  0  0  0  0  0  0  0  0
   -4.4986  -17.8362   17.1944 H   0  0  0  0  0  0  0  0  0  0  0  0
   -5.8596  -16.3005   15.4520 H   0  0  0  0  0  0  0  0  0  0  0  0
   -5.6413  -17.5689   14.2547 H   0  0  0  0  0  0  0  0  0  0  0  0
   -3.0557  -16.7495   15.3018 H   0  0  0  0  0  0  0  0  0  0  0  0
   -1.8838  -14.8463   14.9847 H   0  0  0  0  0  0  0  0  0  0  0  0
   -1.5570  -16.0373   13.6760 H   0  0  0  0  0  0  0  0  0  0  0  0
   -2.6223  -12.3736   12.4706 H   0  0  0  0  0  0  0  0  0  0  0  0
   -0.2404  -11.2401   11.6963 H   0  0  0  0  0  0  0  0  0  0  0  0
    0.6889  -14.8090   13.3207 H   0  0  0  0  0  0  0  0  0  0  0  0
  1  2  1  0
  2  3  1  0
  3  4  1  0
  4  5  2  0
  5  6  1  0
  6  7  1  0
  7  8  1  0
  8  9  2  0
  8 10  1  0
 10 11  1  0
 11 12  1  0
 10 13  1  0
 13 14  1  0
 14 15  1  0
 15 16  1  0
 16 17  2  0
 16 18  1  0
 18 19  1  0
 19 20  2  0
 20 21  1  0
 21 22  2  0
 22 23  1  0
  7  3  2  0
 23 19  1  0
  1 24  1  0
  1 25  1  0
  1 26  1  0
  2 27  1  0
  2 28  1  0
  5 29  1  0
  6 30  1  0
 11 31  1  0
 11 32  1  0
 12 33  1  0
 12 34  1  0
 12 35  1  0
 13 36  1  0
 13 37  1  0
 14 38  1  0
 14 39  1  0
 15 40  1  0
 18 41  1  0
 18 42  1  0
 20 43  1  0
 21 44  1  0
 23 45  1  0
M  END
>  <Energy>  (1014) 
105.06981760127432

>  <compound_id>  (1014) 
8138

>  <target_id>  (1014) 
1

>  <reference_id>  (1014) 
101

>  <inspiration_ids>  (1014) 
[101, 122]

>  <energy_score>  (1014) 
67.52675276136858

>  <distance_score>  (1014) 
14.377413592992747

>  <path>  (1014) 
/opt/xchem-fragalysis-2/maxwin/BulkDock/SCRATCH/511013/C8138-P101/C8138-P101.minimised.mol

>  <scratch_subdir>  (1014) 
/opt/xchem-fragalysis-2/maxwin/BulkDock/SCRATCH/511013/C8138-P101

>  <fragmenstein_runtime>  (1014) 
39.77458310127258

>  <fragmenstein_outcome>  (1014) 
too moved

>  <fragmenstein_mode>  (1014) 
expansion

>  <fragmenstein_error>  (1014) 


$$$$
C8138-P122
     RDKit          3D

 45 46  0  0  0  0  0  0  0  0999 V2000
   -6.6498  -21.9921   22.1615 C   0  0  0  0  0  0  0  0  0  0  0  0
   -7.7048  -20.9021   21.9700 C   0  0  0  0  0  0  0  0  0  0  0  0
   -7.2441  -19.3535   22.0240 C   0  0  0  0  0  0  0  0  0  0  0  0
   -6.3267  -19.3690   20.9885 N   0  0  0  0  0  0  0  0  0  0  0  0
   -6.3519  -18.2033   20.4904 C   0  0  0  0  0  0  0  0  0  0  0  0
   -7.2711  -17.4566   21.1181 N   0  0  0  0  0  0  0  0  0  0  0  0
   -7.8545  -17.8558   22.3465 C   0  0  0  0  0  0  0  0  0  0  0  0
   -7.0031  -16.7178   23.1825 C   0  0  0  0  0  0  0  0  0  0  0  0
   -6.0254  -17.2279   23.5869 O   0  0  0  0  0  0  0  0  0  0  0  0
   -6.9418  -14.6582   23.5208 N   0  0  0  0  0  0  0  0  0  0  0  0
   -6.0722  -13.9248   23.9504 C   0  0  0  0  0  0  0  0  0  0  0  0
   -7.1711  -14.4553   25.5449 C   0  0  0  0  0  0  0  0  0  0  0  0
   -6.2301  -12.9595   22.4085 C   0  0  0  0  0  0  0  0  0  0  0  0
   -5.1434  -11.8117   20.9578 C   0  0  0  0  0  0  0  0  0  0  0  0
   -3.8356  -10.8747   20.8223 N   0  0  0  0  0  0  0  0  0  0  0  0
   -2.9290  -10.6050   19.6395 C   0  0  0  0  0  0  0  0  0  0  0  0
   -2.9175  -11.0900   18.5358 O   0  0  0  0  0  0  0  0  0  0  0  0
   -1.9419   -9.4105   19.9652 C   0  0  0  0  0  0  0  0  0  0  0  0
   -1.2873   -8.6316   18.7444 C   0  0  0  0  0  0  0  0  0  0  0  0
   -0.0199   -8.0404   18.5969 C   0  0  0  0  0  0  0  0  0  0  0  0
    0.0038   -7.4309   17.3368 C   0  0  0  0  0  0  0  0  0  0  0  0
   -1.1421   -7.6277   16.6851 N   0  0  0  0  0  0  0  0  0  0  0  0
   -1.8837   -8.3811   17.5363 N   0  0  0  0  0  0  0  0  0  0  0  0
   -5.8500  -21.7382   22.8485 H   0  0  0  0  0  0  0  0  0  0  0  0
   -7.1228  -22.9255   22.4832 H   0  0  0  0  0  0  0  0  0  0  0  0
   -6.1570  -22.2069   21.2047 H   0  0  0  0  0  0  0  0  0  0  0  0
   -7.9369  -21.0515   20.8962 H   0  0  0  0  0  0  0  0  0  0  0  0
   -8.6615  -21.1959   22.3873 H   0  0  0  0  0  0  0  0  0  0  0  0
   -5.7657  -17.8671   19.6501 H   0  0  0  0  0  0  0  0  0  0  0  0
   -7.3423  -16.4929   20.8889 H   0  0  0  0  0  0  0  0  0  0  0  0
   -5.8407  -12.8667   24.3970 H   0  0  0  0  0  0  0  0  0  0  0  0
   -5.1094  -14.4739   23.6211 H   0  0  0  0  0  0  0  0  0  0  0  0
   -7.4207  -15.4982   25.6270 H   0  0  0  0  0  0  0  0  0  0  0  0
   -7.0061  -13.7755   26.4012 H   0  0  0  0  0  0  0  0  0  0  0  0
   -8.2463  -14.6271   25.4546 H   0  0  0  0  0  0  0  0  0  0  0  0
   -7.1717  -12.3403   22.3863 H   0  0  0  0  0  0  0  0  0  0  0  0
   -6.1257  -12.1064   23.1294 H   0  0  0  0  0  0  0  0  0  0  0  0
   -6.1717  -11.7341   20.5516 H   0  0  0  0  0  0  0  0  0  0  0  0
   -4.7159  -12.2851   20.0123 H   0  0  0  0  0  0  0  0  0  0  0  0
   -3.5087  -10.3469   21.6202 H   0  0  0  0  0  0  0  0  0  0  0  0
   -1.1941   -9.7510   20.6870 H   0  0  0  0  0  0  0  0  0  0  0  0
   -2.5316   -8.6603   20.5010 H   0  0  0  0  0  0  0  0  0  0  0  0
    0.7802   -8.0738   19.3250 H   0  0  0  0  0  0  0  0  0  0  0  0
    0.7984   -6.8693   16.8653 H   0  0  0  0  0  0  0  0  0  0  0  0
   -2.7907   -8.7070   17.2201 H   0  0  0  0  0  0  0  0  0  0  0  0
  1  2  1  0
  2  3  1  0
  3  4  1  0
  4  5  2  0
  5  6  1  0
  6  7  1  0
  7  8  1  0
  8  9  2  0
  8 10  1  0
 10 11  1  0
 11 12  1  0
 10 13  1  0
 13 14  1  0
 14 15  1  0
 15 16  1  0
 16 17  2  0
 16 18  1  0
 18 19  1  0
 19 20  2  0
 20 21  1  0
 21 22  2  0
 22 23  1  0
  7  3  2  0
 23 19  1  0
  1 24  1  0
  1 25  1  0
  1 26  1  0
  2 27  1  0
  2 28  1  0
  5 29  1  0
  6 30  1  0
 11 31  1  0
 11 32  1  0
 12 33  1  0
 12 34  1  0
 12 35  1  0
 13 36  1  0
 13 37  1  0
 14 38  1  0
 14 39  1  0
 15 40  1  0
 18 41  1  0
 18 42  1  0
 20 43  1  0
 21 44  1  0
 23 45  1  0
M  END
>  <Energy>  (1015) 
1090.2242036343976

>  <compound_id>  (1015) 
8138

>  <target_id>  (1015) 
1

>  <reference_id>  (1015) 
122

>  <inspiration_ids>  (1015) 
[101, 122]

>  <energy_score>  (1015) 
1052.6811387944751

>  <distance_score>  (1015) 
12.710091275795326

>  <path>  (1015) 
/opt/xchem-fragalysis-2/maxwin/BulkDock/SCRATCH/511013/C8138-P122/C8138-P122.minimised.mol

>  <scratch_subdir>  (1015) 
/opt/xchem-fragalysis-2/maxwin/BulkDock/SCRATCH/511013/C8138-P122

>  <fragmenstein_runtime>  (1015) 
20.427562713623047

>  <fragmenstein_outcome>  (1015) 
too moved

>  <fragmenstein_mode>  (1015) 
expansion

>  <fragmenstein_error>  (1015) 


$$$$
C8139-P101
     RDKit          3D

 45 46  0  0  0  0  0  0  0  0999 V2000
   -2.9081  -14.7509   28.9938 C   0  0  0  0  0  0  0  0  0  0  0  0
   -1.8089  -15.3718   28.0462 C   0  0  0  0  0  0  0  0  0  0  0  0
   -1.0530  -16.2244   29.2098 C   0  0  0  0  0  0  0  0  0  0  0  0
   -2.4637  -16.4180   27.2697 N   0  0  0  0  0  0  0  0  0  0  0  0
   -2.1363  -15.0947   25.7459 C   0  0  0  0  0  0  0  0  0  0  0  0
   -0.7449  -14.6744   24.2653 C   0  0  0  0  0  0  0  0  0  0  0  0
    0.8461  -13.6650   23.6974 N   0  0  0  0  0  0  0  0  0  0  0  0
    1.2661  -14.8107   23.3637 C   0  0  0  0  0  0  0  0  0  0  0  0
    1.8235  -13.0182   24.4082 C   0  0  0  0  0  0  0  0  0  0  0  0
    1.8993  -13.0631   25.5470 O   0  0  0  0  0  0  0  0  0  0  0  0
    3.0179  -12.2143   23.0951 C   0  0  0  0  0  0  0  0  0  0  0  0
    4.6009  -11.2887   22.4235 C   0  0  0  0  0  0  0  0  0  0  0  0
    6.0329  -11.0641   23.1146 C   0  0  0  0  0  0  0  0  0  0  0  0
    7.1163  -11.3953   22.1334 C   0  0  0  0  0  0  0  0  0  0  0  0
    6.6604  -11.7299   20.9221 N   0  0  0  0  0  0  0  0  0  0  0  0
    5.2710  -11.7942   21.0058 N   0  0  0  0  0  0  0  0  0  0  0  0
   -1.9982  -17.7729   26.8952 C   0  0  0  0  0  0  0  0  0  0  0  0
   -0.9274  -18.3065   27.0538 O   0  0  0  0  0  0  0  0  0  0  0  0
   -3.0698  -18.5592   26.3584 C   0  0  0  0  0  0  0  0  0  0  0  0
   -4.4096  -18.3858   26.6738 C   0  0  0  0  0  0  0  0  0  0  0  0
   -5.1428  -19.4295   26.2631 N   0  0  0  0  0  0  0  0  0  0  0  0
   -4.2983  -20.3552   25.8946 C   0  0  0  0  0  0  0  0  0  0  0  0
   -3.0505  -19.8864   25.9744 N   0  0  0  0  0  0  0  0  0  0  0  0
   -2.5693  -14.5606   30.0196 H   0  0  0  0  0  0  0  0  0  0  0  0
   -3.7489  -15.4428   29.1358 H   0  0  0  0  0  0  0  0  0  0  0  0
   -3.2705  -13.7904   28.6213 H   0  0  0  0  0  0  0  0  0  0  0  0
   -1.0819  -14.7198   27.6578 H   0  0  0  0  0  0  0  0  0  0  0  0
   -0.6645  -15.5941   30.0142 H   0  0  0  0  0  0  0  0  0  0  0  0
   -0.2038  -16.8163   28.8596 H   0  0  0  0  0  0  0  0  0  0  0  0
   -1.7495  -16.9365   29.6750 H   0  0  0  0  0  0  0  0  0  0  0  0
   -2.7859  -15.6108   25.0101 H   0  0  0  0  0  0  0  0  0  0  0  0
   -2.5206  -14.1252   26.0330 H   0  0  0  0  0  0  0  0  0  0  0  0
   -1.2227  -14.8643   23.3146 H   0  0  0  0  0  0  0  0  0  0  0  0
   -1.0904  -13.7864   24.7373 H   0  0  0  0  0  0  0  0  0  0  0  0
    2.0309  -15.5166   23.6059 H   0  0  0  0  0  0  0  0  0  0  0  0
    2.3739  -14.5110   23.1615 H   0  0  0  0  0  0  0  0  0  0  0  0
    0.6627  -14.9049   22.3496 H   0  0  0  0  0  0  0  0  0  0  0  0
    3.6298  -12.8766   23.6969 H   0  0  0  0  0  0  0  0  0  0  0  0
    3.1910  -12.8431   22.2302 H   0  0  0  0  0  0  0  0  0  0  0  0
    6.2831  -10.9489   24.1558 H   0  0  0  0  0  0  0  0  0  0  0  0
    8.1825  -11.3883   22.3321 H   0  0  0  0  0  0  0  0  0  0  0  0
    4.7602  -12.3712   20.3380 H   0  0  0  0  0  0  0  0  0  0  0  0
   -4.8676  -17.5859   27.2335 H   0  0  0  0  0  0  0  0  0  0  0  0
   -4.5041  -21.3644   25.5635 H   0  0  0  0  0  0  0  0  0  0  0  0
   -2.2866  -20.4474   25.6375 H   0  0  0  0  0  0  0  0  0  0  0  0
  1  2  1  0
  2  3  1  0
  2  4  1  0
  4  5  1  0
  5  6  1  0
  6  7  1  0
  7  8  1  0
  7  9  1  0
  9 10  2  0
  9 11  1  0
 11 12  1  0
 12 13  2  0
 13 14  1  0
 14 15  2  0
 15 16  1  0
  4 17  1  0
 17 18  2  0
 17 19  1  0
 19 20  2  0
 20 21  1  0
 21 22  2  0
 22 23  1  0
 16 12  1  0
 23 19  1  0
  1 24  1  0
  1 25  1  0
  1 26  1  0
  2 27  1  0
  3 28  1  0
  3 29  1  0
  3 30  1  0
  5 31  1  0
  5 32  1  0
  6 33  1  0
  6 34  1  0
  8 35  1  0
  8 36  1  0
  8 37  1  0
 11 38  1  0
 11 39  1  0
 13 40  1  0
 14 41  1  0
 16 42  1  0
 20 43  1  0
 22 44  1  0
 23 45  1  0
M  END
>  <Energy>  (1016) 
731.07320453481782

>  <compound_id>  (1016) 
8139

>  <target_id>  (1016) 
1

>  <reference_id>  (1016) 
101

>  <inspiration_ids>  (1016) 
[101, 122]

>  <energy_score>  (1016) 
680.1530428644443

>  <distance_score>  (1016) 
11.935505870384196

>  <path>  (1016) 
/opt/xchem-fragalysis-2/maxwin/BulkDock/SCRATCH/511013/C8139-P101/C8139-P101.minimised.mol

>  <scratch_subdir>  (1016) 
/opt/xchem-fragalysis-2/maxwin/BulkDock/SCRATCH/511013/C8139-P101

>  <fragmenstein_runtime>  (1016) 
43.53881502151489

>  <fragmenstein_outcome>  (1016) 
too moved

>  <fragmenstein_mode>  (1016) 
expansion

>  <fragmenstein_error>  (1016) 


$$$$
C8139-P122
     RDKit          3D

 45 46  0  0  0  0  0  0  0  0999 V2000
   -1.1481  -18.2967   27.4329 C   0  0  0  0  0  0  0  0  0  0  0  0
   -2.1003  -17.0867   27.3488 C   0  0  0  0  0  0  0  0  0  0  0  0
   -1.8887  -15.9658   28.4300 C   0  0  0  0  0  0  0  0  0  0  0  0
   -3.4602  -17.1294   26.8993 N   0  0  0  0  0  0  0  0  0  0  0  0
   -2.6877  -16.1894   25.3023 C   0  0  0  0  0  0  0  0  0  0  0  0
   -1.4708  -15.0819   24.0168 C   0  0  0  0  0  0  0  0  0  0  0  0
   -0.4272  -13.5687   23.0860 N   0  0  0  0  0  0  0  0  0  0  0  0
   -0.0349  -14.6276   22.3100 C   0  0  0  0  0  0  0  0  0  0  0  0
   -1.0588  -12.0009   21.9076 C   0  0  0  0  0  0  0  0  0  0  0  0
   -2.2226  -11.7365   21.4560 O   0  0  0  0  0  0  0  0  0  0  0  0
    0.0742  -10.5976   21.5095 C   0  0  0  0  0  0  0  0  0  0  0  0
   -0.1667   -8.9070   21.3005 C   0  0  0  0  0  0  0  0  0  0  0  0
   -0.5393   -8.1389   20.1967 C   0  0  0  0  0  0  0  0  0  0  0  0
   -0.3060   -6.8004   20.5443 C   0  0  0  0  0  0  0  0  0  0  0  0
    0.1049   -6.6883   21.8020 N   0  0  0  0  0  0  0  0  0  0  0  0
    0.2073   -7.9632   22.2236 N   0  0  0  0  0  0  0  0  0  0  0  0
   -4.2934  -18.2788   26.4640 C   0  0  0  0  0  0  0  0  0  0  0  0
   -4.0017  -19.4293   26.2878 O   0  0  0  0  0  0  0  0  0  0  0  0
   -5.7194  -17.8218   26.3624 C   0  0  0  0  0  0  0  0  0  0  0  0
   -6.5801  -17.3207   25.3948 C   0  0  0  0  0  0  0  0  0  0  0  0
   -7.6953  -16.7013   25.9534 N   0  0  0  0  0  0  0  0  0  0  0  0
   -7.5962  -16.9054   27.2406 C   0  0  0  0  0  0  0  0  0  0  0  0
   -6.4404  -17.5621   27.5310 N   0  0  0  0  0  0  0  0  0  0  0  0
   -0.5422  -18.2689   28.3489 H   0  0  0  0  0  0  0  0  0  0  0  0
   -1.6924  -19.2473   27.4442 H   0  0  0  0  0  0  0  0  0  0  0  0
   -0.4398  -18.2958   26.6284 H   0  0  0  0  0  0  0  0  0  0  0  0
   -2.5398  -17.6305   28.2144 H   0  0  0  0  0  0  0  0  0  0  0  0
   -1.8871  -14.9981   27.9523 H   0  0  0  0  0  0  0  0  0  0  0  0
   -0.9665  -16.1058   29.0028 H   0  0  0  0  0  0  0  0  0  0  0  0
   -2.7145  -15.9269   29.1565 H   0  0  0  0  0  0  0  0  0  0  0  0
   -2.3531  -15.3088   25.8655 H   0  0  0  0  0  0  0  0  0  0  0  0
   -2.2120  -17.1402   25.1658 H   0  0  0  0  0  0  0  0  0  0  0  0
   -2.4466  -15.1090   23.4925 H   0  0  0  0  0  0  0  0  0  0  0  0
   -1.3357  -14.4116   24.8751 H   0  0  0  0  0  0  0  0  0  0  0  0
    0.7860  -14.9076   21.7301 H   0  0  0  0  0  0  0  0  0  0  0  0
   -0.2651  -15.7196   22.0508 H   0  0  0  0  0  0  0  0  0  0  0  0
   -1.0669  -14.7697   21.9830 H   0  0  0  0  0  0  0  0  0  0  0  0
   -0.7532  -10.5070   20.7809 H   0  0  0  0  0  0  0  0  0  0  0  0
   -0.0942  -10.3550   22.5373 H   0  0  0  0  0  0  0  0  0  0  0  0
   -0.8903   -8.5006   19.2415 H   0  0  0  0  0  0  0  0  0  0  0  0
   -0.4427   -5.9092   19.9468 H   0  0  0  0  0  0  0  0  0  0  0  0
    0.5892   -8.1209   23.1489 H   0  0  0  0  0  0  0  0  0  0  0  0
   -6.4871  -17.3186   24.3179 H   0  0  0  0  0  0  0  0  0  0  0  0
   -8.2895  -16.5698   28.0000 H   0  0  0  0  0  0  0  0  0  0  0  0
   -6.0463  -17.6124   28.4550 H   0  0  0  0  0  0  0  0  0  0  0  0
  1  2  1  0
  2  3  1  0
  2  4  1  0
  4  5  1  0
  5  6  1  0
  6  7  1  0
  7  8  1  0
  7  9  1  0
  9 10  2  0
  9 11  1  0
 11 12  1  0
 12 13  2  0
 13 14  1  0
 14 15  2  0
 15 16  1  0
  4 17  1  0
 17 18  2  0
 17 19  1  0
 19 20  2  0
 20 21  1  0
 21 22  2  0
 22 23  1  0
 16 12  1  0
 23 19  1  0
  1 24  1  0
  1 25  1  0
  1 26  1  0
  2 27  1  0
  3 28  1  0
  3 29  1  0
  3 30  1  0
  5 31  1  0
  5 32  1  0
  6 33  1  0
  6 34  1  0
  8 35  1  0
  8 36  1  0
  8 37  1  0
 11 38  1  0
 11 39  1  0
 13 40  1  0
 14 41  1  0
 16 42  1  0
 20 43  1  0
 22 44  1  0
 23 45  1  0
M  END
>  <Energy>  (1017) 
946.73571240764591

>  <compound_id>  (1017) 
8139

>  <target_id>  (1017) 
1

>  <reference_id>  (1017) 
122

>  <inspiration_ids>  (1017) 
[101, 122]

>  <energy_score>  (1017) 
895.8155507372747

>  <distance_score>  (1017) 
12.599344710930236

>  <path>  (1017) 
/opt/xchem-fragalysis-2/maxwin/BulkDock/SCRATCH/511013/C8139-P122/C8139-P122.minimised.mol

>  <scratch_subdir>  (1017) 
/opt/xchem-fragalysis-2/maxwin/BulkDock/SCRATCH/511013/C8139-P122

>  <fragmenstein_runtime>  (1017) 
35.08362007141113

>  <fragmenstein_outcome>  (1017) 
too moved

>  <fragmenstein_mode>  (1017) 
expansion

>  <fragmenstein_error>  (1017) 


$$$$
C8140-P101
     RDKit          3D

 32 33  0  0  0  0  0  0  0  0999 V2000
   -1.4993   -8.5791   14.1413 O   0  0  0  0  0  0  0  0  0  0  0  0
   -1.8426   -8.7138   15.2858 C   0  0  0  0  0  0  0  0  0  0  0  0
   -1.1587   -7.7989   16.3658 C   0  0  0  0  0  0  0  0  0  0  0  0
    0.3176   -7.4498   16.1283 C   0  0  0  0  0  0  0  0  0  0  0  0
    1.3657   -7.2706   17.0207 C   0  0  0  0  0  0  0  0  0  0  0  0
    2.4814   -6.9135   16.2397 C   0  0  0  0  0  0  0  0  0  0  0  0
    2.1804   -6.8528   14.9424 N   0  0  0  0  0  0  0  0  0  0  0  0
    0.8762   -7.2066   14.8945 N   0  0  0  0  0  0  0  0  0  0  0  0
   -2.8724   -9.5802   15.8813 N   0  0  0  0  0  0  0  0  0  0  0  0
   -3.8663  -10.4772   15.2511 C   0  0  0  0  0  0  0  0  0  0  0  0
   -4.1643  -11.8452   15.9474 C   0  0  0  0  0  0  0  0  0  0  0  0
   -5.2915  -12.6559   15.2379 C   0  0  0  0  0  0  0  0  0  0  0  0
   -5.5318  -14.1084   15.6702 C   0  0  0  0  0  0  0  0  0  0  0  0
   -4.6386  -15.0331   15.9759 N   0  0  0  0  0  0  0  0  0  0  0  0
   -5.3196  -16.2317   16.0657 C   0  0  0  0  0  0  0  0  0  0  0  0
   -6.6601  -16.0392   15.8408 C   0  0  0  0  0  0  0  0  0  0  0  0
   -6.7904  -14.6903   15.6325 N   0  0  0  0  0  0  0  0  0  0  0  0
   -1.7284   -6.8614   16.3831 H   0  0  0  0  0  0  0  0  0  0  0  0
   -1.2554   -8.2505   17.3589 H   0  0  0  0  0  0  0  0  0  0  0  0
    1.3243   -7.3940   18.0945 H   0  0  0  0  0  0  0  0  0  0  0  0
    3.4911   -6.6975   16.5617 H   0  0  0  0  0  0  0  0  0  0  0  0
    0.4183   -7.2797   13.9886 H   0  0  0  0  0  0  0  0  0  0  0  0
   -2.8341   -9.4956   16.8924 H   0  0  0  0  0  0  0  0  0  0  0  0
   -4.7939   -9.8959   15.2029 H   0  0  0  0  0  0  0  0  0  0  0  0
   -3.5375  -10.6490   14.2204 H   0  0  0  0  0  0  0  0  0  0  0  0
   -4.4520  -11.6525   16.9855 H   0  0  0  0  0  0  0  0  0  0  0  0
   -3.2552  -12.4495   15.9762 H   0  0  0  0  0  0  0  0  0  0  0  0
   -6.2318  -12.1010   15.3484 H   0  0  0  0  0  0  0  0  0  0  0  0
   -5.0692  -12.6871   14.1634 H   0  0  0  0  0  0  0  0  0  0  0  0
   -4.8014  -17.1584   16.2803 H   0  0  0  0  0  0  0  0  0  0  0  0
   -7.5029  -16.7147   15.8192 H   0  0  0  0  0  0  0  0  0  0  0  0
   -7.6475  -14.2080   15.4025 H   0  0  0  0  0  0  0  0  0  0  0  0
  1  2  2  0
  2  3  1  0
  3  4  1  0
  4  5  2  0
  5  6  1  0
  6  7  2  0
  7  8  1  0
  2  9  1  0
  9 10  1  0
 10 11  1  0
 11 12  1  0
 12 13  1  0
 13 14  2  0
 14 15  1  0
 15 16  2  0
 16 17  1  0
  8  4  1  0
 17 13  1  0
  3 18  1  0
  3 19  1  0
  5 20  1  0
  6 21  1  0
  8 22  1  0
  9 23  1  0
 10 24  1  0
 10 25  1  0
 11 26  1  0
 11 27  1  0
 12 28  1  0
 12 29  1  0
 15 30  1  0
 16 31  1  0
 17 32  1  0
M  END
>  <Energy>  (1018) 
19.51417244214494

>  <compound_id>  (1018) 
8140

>  <target_id>  (1018) 
1

>  <reference_id>  (1018) 
101

>  <inspiration_ids>  (1018) 
[101, 122]

>  <energy_score>  (1018) 
-4.512944127578635

>  <distance_score>  (1018) 
14.769710457618716

>  <path>  (1018) 
/opt/xchem-fragalysis-2/maxwin/BulkDock/SCRATCH/511013/C8140-P101/C8140-P101.minimised.mol

>  <scratch_subdir>  (1018) 
/opt/xchem-fragalysis-2/maxwin/BulkDock/SCRATCH/511013/C8140-P101

>  <fragmenstein_runtime>  (1018) 
14.937041997909546

>  <fragmenstein_outcome>  (1018) 
too moved

>  <fragmenstein_mode>  (1018) 
expansion

>  <fragmenstein_error>  (1018) 


$$$$
C8140-P122
     RDKit          3D

 32 33  0  0  0  0  0  0  0  0999 V2000
    0.4000  -14.6853   13.9695 O   0  0  0  0  0  0  0  0  0  0  0  0
   -0.4332  -14.0466   13.3814 C   0  0  0  0  0  0  0  0  0  0  0  0
    0.0852  -13.0322   12.2922 C   0  0  0  0  0  0  0  0  0  0  0  0
    1.2792  -12.1525   12.7443 C   0  0  0  0  0  0  0  0  0  0  0  0
    1.5938  -10.8167   12.5250 C   0  0  0  0  0  0  0  0  0  0  0  0
    2.8393  -10.6001   13.1543 C   0  0  0  0  0  0  0  0  0  0  0  0
    3.2972  -11.7072   13.7367 N   0  0  0  0  0  0  0  0  0  0  0  0
    2.3474  -12.6305   13.4739 N   0  0  0  0  0  0  0  0  0  0  0  0
   -1.8863  -13.9705   13.5672 N   0  0  0  0  0  0  0  0  0  0  0  0
   -2.7667  -14.5742   14.5946 C   0  0  0  0  0  0  0  0  0  0  0  0
   -3.6343  -15.8579   14.3394 C   0  0  0  0  0  0  0  0  0  0  0  0
   -4.7500  -16.0200   15.4457 C   0  0  0  0  0  0  0  0  0  0  0  0
   -5.0553  -17.3639   16.1427 C   0  0  0  0  0  0  0  0  0  0  0  0
   -5.9890  -18.2469   15.8208 N   0  0  0  0  0  0  0  0  0  0  0  0
   -6.1080  -19.1175   16.8876 C   0  0  0  0  0  0  0  0  0  0  0  0
   -5.2302  -18.7793   17.8839 C   0  0  0  0  0  0  0  0  0  0  0  0
   -4.5608  -17.6877   17.3981 N   0  0  0  0  0  0  0  0  0  0  0  0
   -0.7249  -12.3653   11.9790 H   0  0  0  0  0  0  0  0  0  0  0  0
    0.3939  -13.6198   11.4200 H   0  0  0  0  0  0  0  0  0  0  0  0
    1.0056  -10.0962   11.9746 H   0  0  0  0  0  0  0  0  0  0  0  0
    3.4237   -9.6907   13.2100 H   0  0  0  0  0  0  0  0  0  0  0  0
    2.4659  -13.5734   13.8377 H   0  0  0  0  0  0  0  0  0  0  0  0
   -2.2635  -13.2654   12.9456 H   0  0  0  0  0  0  0  0  0  0  0  0
   -3.4600  -13.7599   14.8412 H   0  0  0  0  0  0  0  0  0  0  0  0
   -2.1444  -14.7132   15.4802 H   0  0  0  0  0  0  0  0  0  0  0  0
   -4.1314  -15.7437   13.3680 H   0  0  0  0  0  0  0  0  0  0  0  0
   -3.0055  -16.7473   14.2493 H   0  0  0  0  0  0  0  0  0  0  0  0
   -4.5605  -15.2923   16.2421 H   0  0  0  0  0  0  0  0  0  0  0  0
   -5.6966  -15.6964   14.9905 H   0  0  0  0  0  0  0  0  0  0  0  0
   -6.8245  -19.9285   16.8729 H   0  0  0  0  0  0  0  0  0  0  0  0
   -5.0328  -19.1971   18.8615 H   0  0  0  0  0  0  0  0  0  0  0  0
   -3.8500  -17.1598   17.8851 H   0  0  0  0  0  0  0  0  0  0  0  0
  1  2  2  0
  2  3  1  0
  3  4  1  0
  4  5  2  0
  5  6  1  0
  6  7  2  0
  7  8  1  0
  2  9  1  0
  9 10  1  0
 10 11  1  0
 11 12  1  0
 12 13  1  0
 13 14  2  0
 14 15  1  0
 15 16  2  0
 16 17  1  0
  8  4  1  0
 17 13  1  0
  3 18  1  0
  3 19  1  0
  5 20  1  0
  6 21  1  0
  8 22  1  0
  9 23  1  0
 10 24  1  0
 10 25  1  0
 11 26  1  0
 11 27  1  0
 12 28  1  0
 12 29  1  0
 15 30  1  0
 16 31  1  0
 17 32  1  0
M  END
>  <Energy>  (1019) 
29.735291824466309

>  <compound_id>  (1019) 
8140

>  <target_id>  (1019) 
1

>  <reference_id>  (1019) 
122

>  <inspiration_ids>  (1019) 
[101, 122]

>  <energy_score>  (1019) 
5.70817525474456

>  <distance_score>  (1019) 
14.485335549342578

>  <path>  (1019) 
/opt/xchem-fragalysis-2/maxwin/BulkDock/SCRATCH/511013/C8140-P122/C8140-P122.minimised.mol

>  <scratch_subdir>  (1019) 
/opt/xchem-fragalysis-2/maxwin/BulkDock/SCRATCH/511013/C8140-P122

>  <fragmenstein_runtime>  (1019) 
26.312856197357178

>  <fragmenstein_outcome>  (1019) 
too moved

>  <fragmenstein_mode>  (1019) 
expansion

>  <fragmenstein_error>  (1019) 


$$$$
C8141-P101
     RDKit          3D

 27 28  0  0  0  0  0  0  0  0999 V2000
    4.1577  -10.9500   24.2178 C   0  0  0  0  0  0  0  0  0  0  0  0
    3.1375  -11.9316   24.1688 C   0  0  0  0  0  0  0  0  0  0  0  0
    2.0304  -11.3002   23.6352 C   0  0  0  0  0  0  0  0  0  0  0  0
    0.5889  -11.8000   22.9342 C   0  0  0  0  0  0  0  0  0  0  0  0
   -0.2107  -13.7388   23.2094 C   0  0  0  0  0  0  0  0  0  0  0  0
   -1.4838  -15.0544   23.7315 N   0  0  0  0  0  0  0  0  0  0  0  0
   -3.3659  -15.4500   23.3844 C   0  0  0  0  0  0  0  0  0  0  0  0
   -4.0323  -16.4137   21.6795 C   0  0  0  0  0  0  0  0  0  0  0  0
   -3.2399  -16.6522   20.4923 N   0  0  0  0  0  0  0  0  0  0  0  0
   -3.9332  -17.5667   19.4806 C   0  0  0  0  0  0  0  0  0  0  0  0
   -5.2534  -17.8604   19.8488 C   0  0  0  0  0  0  0  0  0  0  0  0
   -5.4615  -17.2288   21.1171 N   0  0  0  0  0  0  0  0  0  0  0  0
    2.4650   -9.9844   23.4346 N   0  0  0  0  0  0  0  0  0  0  0  0
    3.7507   -9.7676   23.7605 N   0  0  0  0  0  0  0  0  0  0  0  0
    5.1802  -11.0635   24.5543 H   0  0  0  0  0  0  0  0  0  0  0  0
    3.2361  -12.9760   24.4195 H   0  0  0  0  0  0  0  0  0  0  0  0
   -0.1451  -10.9828   22.7466 H   0  0  0  0  0  0  0  0  0  0  0  0
    0.9392  -11.3426   22.0312 H   0  0  0  0  0  0  0  0  0  0  0  0
   -0.0623  -14.2796   22.3184 H   0  0  0  0  0  0  0  0  0  0  0  0
    0.5379  -14.1418   23.9116 H   0  0  0  0  0  0  0  0  0  0  0  0
   -1.3330  -15.4085   22.7681 H   0  0  0  0  0  0  0  0  0  0  0  0
   -3.3375  -15.9400   24.3526 H   0  0  0  0  0  0  0  0  0  0  0  0
   -4.1789  -14.7873   23.5718 H   0  0  0  0  0  0  0  0  0  0  0  0
   -3.3791  -17.9150   18.6251 H   0  0  0  0  0  0  0  0  0  0  0  0
   -6.0338  -18.4716   19.4207 H   0  0  0  0  0  0  0  0  0  0  0  0
   -6.2225  -17.3460   21.7739 H   0  0  0  0  0  0  0  0  0  0  0  0
    1.9561   -9.2346   22.9767 H   0  0  0  0  0  0  0  0  0  0  0  0
  1  2  1  0
  2  3  2  0
  3  4  1  0
  4  5  1  0
  5  6  1  0
  6  7  1  0
  7  8  1  0
  8  9  2  0
  9 10  1  0
 10 11  2  0
 11 12  1  0
  3 13  1  0
 13 14  1  0
 14  1  2  0
 12  8  1  0
  1 15  1  0
  2 16  1  0
  4 17  1  0
  4 18  1  0
  5 19  1  0
  5 20  1  0
  6 21  1  0
  7 22  1  0
  7 23  1  0
 10 24  1  0
 11 25  1  0
 12 26  1  0
 13 27  1  0
M  END
>  <Energy>  (1020) 
507.48610654862972

>  <compound_id>  (1020) 
8141

>  <target_id>  (1020) 
1

>  <reference_id>  (1020) 
101

>  <inspiration_ids>  (1020) 
[101, 122]

>  <energy_score>  (1020) 
463.2875759974582

>  <distance_score>  (1020) 
14.367013352595954

>  <path>  (1020) 
/opt/xchem-fragalysis-2/maxwin/BulkDock/SCRATCH/511013/C8141-P101/C8141-P101.minimised.mol

>  <scratch_subdir>  (1020) 
/opt/xchem-fragalysis-2/maxwin/BulkDock/SCRATCH/511013/C8141-P101

>  <fragmenstein_runtime>  (1020) 
10.084158420562744

>  <fragmenstein_outcome>  (1020) 
too moved

>  <fragmenstein_mode>  (1020) 
expansion

>  <fragmenstein_error>  (1020) 


$$$$
C8141-P122
     RDKit          3D

 27 28  0  0  0  0  0  0  0  0999 V2000
   -1.2851   -8.9562   20.9215 C   0  0  0  0  0  0  0  0  0  0  0  0
   -1.0756  -10.3116   21.2725 C   0  0  0  0  0  0  0  0  0  0  0  0
   -1.8028  -11.1283   20.3939 C   0  0  0  0  0  0  0  0  0  0  0  0
   -2.1511  -12.6189   19.9144 C   0  0  0  0  0  0  0  0  0  0  0  0
   -2.0124  -14.6320   20.2123 C   0  0  0  0  0  0  0  0  0  0  0  0
   -2.0944  -16.2422   19.8852 N   0  0  0  0  0  0  0  0  0  0  0  0
   -3.0224  -17.2453   19.1736 C   0  0  0  0  0  0  0  0  0  0  0  0
   -4.3631  -18.1669   19.2311 C   0  0  0  0  0  0  0  0  0  0  0  0
   -5.5833  -17.7526   18.9404 N   0  0  0  0  0  0  0  0  0  0  0  0
   -6.5049  -18.5619   19.5409 C   0  0  0  0  0  0  0  0  0  0  0  0
   -5.8504  -19.6011   20.1108 C   0  0  0  0  0  0  0  0  0  0  0  0
   -4.5196  -19.4393   19.7346 N   0  0  0  0  0  0  0  0  0  0  0  0
   -2.3315  -10.1341   19.5521 N   0  0  0  0  0  0  0  0  0  0  0  0
   -2.1134   -8.8527   19.8929 N   0  0  0  0  0  0  0  0  0  0  0  0
   -0.8538   -8.0664   21.3590 H   0  0  0  0  0  0  0  0  0  0  0  0
   -0.3532  -10.5785   22.0205 H   0  0  0  0  0  0  0  0  0  0  0  0
   -2.0243  -12.5382   18.8092 H   0  0  0  0  0  0  0  0  0  0  0  0
   -3.2249  -12.3901   20.1066 H   0  0  0  0  0  0  0  0  0  0  0  0
   -1.7834  -14.6828   21.2307 H   0  0  0  0  0  0  0  0  0  0  0  0
   -1.5737  -14.7717   19.2162 H   0  0  0  0  0  0  0  0  0  0  0  0
   -1.6274  -16.7053   20.6670 H   0  0  0  0  0  0  0  0  0  0  0  0
   -3.2345  -16.7856   18.2255 H   0  0  0  0  0  0  0  0  0  0  0  0
   -3.5080  -16.9806   20.0952 H   0  0  0  0  0  0  0  0  0  0  0  0
   -7.5623  -18.3346   19.5387 H   0  0  0  0  0  0  0  0  0  0  0  0
   -6.1920  -20.4233   20.7253 H   0  0  0  0  0  0  0  0  0  0  0  0
   -3.7786  -20.0451   20.0492 H   0  0  0  0  0  0  0  0  0  0  0  0
   -2.8486  -10.3019   18.7010 H   0  0  0  0  0  0  0  0  0  0  0  0
  1  2  1  0
  2  3  2  0
  3  4  1  0
  4  5  1  0
  5  6  1  0
  6  7  1  0
  7  8  1  0
  8  9  2  0
  9 10  1  0
 10 11  2  0
 11 12  1  0
  3 13  1  0
 13 14  1  0
 14  1  2  0
 12  8  1  0
  1 15  1  0
  2 16  1  0
  4 17  1  0
  4 18  1  0
  5 19  1  0
  5 20  1  0
  6 21  1  0
  7 22  1  0
  7 23  1  0
 10 24  1  0
 11 25  1  0
 12 26  1  0
 13 27  1  0
M  END
>  <Energy>  (1021) 
331.51442542844762

>  <compound_id>  (1021) 
8141

>  <target_id>  (1021) 
1

>  <reference_id>  (1021) 
122

>  <inspiration_ids>  (1021) 
[101, 122]

>  <energy_score>  (1021) 
287.31589487729366

>  <distance_score>  (1021) 
14.818786748591108

>  <path>  (1021) 
/opt/xchem-fragalysis-2/maxwin/BulkDock/SCRATCH/511013/C8141-P122/C8141-P122.minimised.mol

>  <scratch_subdir>  (1021) 
/opt/xchem-fragalysis-2/maxwin/BulkDock/SCRATCH/511013/C8141-P122

>  <fragmenstein_runtime>  (1021) 
10.193278074264526

>  <fragmenstein_outcome>  (1021) 
too moved

>  <fragmenstein_mode>  (1021) 
expansion

>  <fragmenstein_error>  (1021) 


$$$$
C8142-P101
     RDKit          3D

 27 28  0  0  0  0  0  0  0  0999 V2000
   -4.5936  -18.3030   18.8720 Br  0  0  0  0  0  0  0  0  0  0  0  0
   -3.1397  -17.2458   19.4811 C   0  0  0  0  0  0  0  0  0  0  0  0
   -1.8519  -17.5435   19.4103 C   0  0  0  0  0  0  0  0  0  0  0  0
   -1.1956  -16.4159   19.8940 N   0  0  0  0  0  0  0  0  0  0  0  0
   -1.9766  -15.3673   19.3273 C   0  0  0  0  0  0  0  0  0  0  0  0
   -1.8728  -13.7634   18.2428 C   0  0  0  0  0  0  0  0  0  0  0  0
   -1.9417  -12.2511   19.0228 N   0  0  0  0  0  0  0  0  0  0  0  0
   -2.5318  -10.9588   18.5900 C   0  0  0  0  0  0  0  0  0  0  0  0
   -2.0595   -9.4389   19.0951 C   0  0  0  0  0  0  0  0  0  0  0  0
   -1.1023   -8.4526   18.3648 C   0  0  0  0  0  0  0  0  0  0  0  0
    0.0723   -7.8381   18.8080 C   0  0  0  0  0  0  0  0  0  0  0  0
    0.5659   -7.0908   17.7265 C   0  0  0  0  0  0  0  0  0  0  0  0
   -0.2626   -7.1414   16.6827 N   0  0  0  0  0  0  0  0  0  0  0  0
   -1.2967   -7.8924   17.1266 N   0  0  0  0  0  0  0  0  0  0  0  0
   -3.0632  -15.9488   19.8779 N   0  0  0  0  0  0  0  0  0  0  0  0
   -1.3930  -18.2476   18.7670 H   0  0  0  0  0  0  0  0  0  0  0  0
   -0.2015  -16.4256   20.0774 H   0  0  0  0  0  0  0  0  0  0  0  0
   -0.9039  -13.6255   17.7768 H   0  0  0  0  0  0  0  0  0  0  0  0
   -2.5256  -13.7991   17.3625 H   0  0  0  0  0  0  0  0  0  0  0  0
   -2.1587  -12.4086   20.0060 H   0  0  0  0  0  0  0  0  0  0  0  0
   -3.5183  -11.0570   19.0499 H   0  0  0  0  0  0  0  0  0  0  0  0
   -2.7572  -10.9099   17.5498 H   0  0  0  0  0  0  0  0  0  0  0  0
   -1.7453   -9.5328   20.1436 H   0  0  0  0  0  0  0  0  0  0  0  0
   -2.9963   -8.8687   19.1460 H   0  0  0  0  0  0  0  0  0  0  0  0
    0.5400   -7.9932   19.7707 H   0  0  0  0  0  0  0  0  0  0  0  0
    1.4815   -6.5193   17.6564 H   0  0  0  0  0  0  0  0  0  0  0  0
   -2.0959   -8.0012   16.5135 H   0  0  0  0  0  0  0  0  0  0  0  0
  1  2  1  0
  2  3  2  0
  3  4  1  0
  4  5  1  0
  5  6  1  0
  6  7  1  0
  7  8  1  0
  8  9  1  0
  9 10  1  0
 10 11  2  0
 11 12  1  0
 12 13  2  0
 13 14  1  0
  5 15  2  0
 15  2  1  0
 14 10  1  0
  3 16  1  0
  4 17  1  0
  6 18  1  0
  6 19  1  0
  7 20  1  0
  8 21  1  0
  8 22  1  0
  9 23  1  0
  9 24  1  0
 11 25  1  0
 12 26  1  0
 14 27  1  0
M  END
>  <Energy>  (1022) 
192.59905650698983

>  <compound_id>  (1022) 
8142

>  <target_id>  (1022) 
1

>  <reference_id>  (1022) 
101

>  <inspiration_ids>  (1022) 
[101, 122]

>  <energy_score>  (1022) 
148.2526354169795

>  <distance_score>  (1022) 
14.85915016482629

>  <path>  (1022) 
/opt/xchem-fragalysis-2/maxwin/BulkDock/SCRATCH/511013/C8142-P101/C8142-P101.minimised.mol

>  <scratch_subdir>  (1022) 
/opt/xchem-fragalysis-2/maxwin/BulkDock/SCRATCH/511013/C8142-P101

>  <fragmenstein_runtime>  (1022) 
8.55302619934082

>  <fragmenstein_outcome>  (1022) 
too moved

>  <fragmenstein_mode>  (1022) 
expansion

>  <fragmenstein_error>  (1022) 


$$$$
C8142-P122
     RDKit          3D

 27 28  0  0  0  0  0  0  0  0999 V2000
   -6.2359  -18.4545   18.6059 Br  0  0  0  0  0  0  0  0  0  0  0  0
   -4.3835  -18.1651   18.8359 C   0  0  0  0  0  0  0  0  0  0  0  0
   -3.7078  -19.1822   19.3814 C   0  0  0  0  0  0  0  0  0  0  0  0
   -2.4741  -18.6661   19.5976 N   0  0  0  0  0  0  0  0  0  0  0  0
   -2.3223  -17.3516   19.3121 C   0  0  0  0  0  0  0  0  0  0  0  0
   -1.0814  -16.3772   20.0875 C   0  0  0  0  0  0  0  0  0  0  0  0
    0.6945  -16.2364   20.2727 N   0  0  0  0  0  0  0  0  0  0  0  0
    2.2083  -14.9451   20.3607 C   0  0  0  0  0  0  0  0  0  0  0  0
    3.4840  -13.6883   21.3806 C   0  0  0  0  0  0  0  0  0  0  0  0
    4.8365  -12.9023   20.6340 C   0  0  0  0  0  0  0  0  0  0  0  0
    5.2750  -12.7260   19.3262 C   0  0  0  0  0  0  0  0  0  0  0  0
    6.3700  -11.8388   19.4045 C   0  0  0  0  0  0  0  0  0  0  0  0
    6.6206  -11.4594   20.6581 N   0  0  0  0  0  0  0  0  0  0  0  0
    5.7094  -12.1404   21.3858 N   0  0  0  0  0  0  0  0  0  0  0  0
   -3.5180  -17.0619   18.7558 N   0  0  0  0  0  0  0  0  0  0  0  0
   -4.0329  -20.1573   19.7227 H   0  0  0  0  0  0  0  0  0  0  0  0
   -1.7364  -19.1681   20.0414 H   0  0  0  0  0  0  0  0  0  0  0  0
   -1.0281  -17.1231   20.8732 H   0  0  0  0  0  0  0  0  0  0  0  0
   -1.6763  -15.4919   20.3117 H   0  0  0  0  0  0  0  0  0  0  0  0
    0.7796  -16.6904   21.1668 H   0  0  0  0  0  0  0  0  0  0  0  0
    2.3984  -14.7301   19.2826 H   0  0  0  0  0  0  0  0  0  0  0  0
    1.4560  -14.8412   21.0269 H   0  0  0  0  0  0  0  0  0  0  0  0
    3.2245  -12.8223   21.9897 H   0  0  0  0  0  0  0  0  0  0  0  0
    3.8830  -14.2502   22.2519 H   0  0  0  0  0  0  0  0  0  0  0  0
    4.8439  -13.1707   18.4410 H   0  0  0  0  0  0  0  0  0  0  0  0
    6.9831  -11.4528   18.6005 H   0  0  0  0  0  0  0  0  0  0  0  0
    5.6988  -12.0042   22.3905 H   0  0  0  0  0  0  0  0  0  0  0  0
  1  2  1  0
  2  3  2  0
  3  4  1  0
  4  5  1  0
  5  6  1  0
  6  7  1  0
  7  8  1  0
  8  9  1  0
  9 10  1  0
 10 11  2  0
 11 12  1  0
 12 13  2  0
 13 14  1  0
  5 15  2  0
 15  2  1  0
 14 10  1  0
  3 16  1  0
  4 17  1  0
  6 18  1  0
  6 19  1  0
  7 20  1  0
  8 21  1  0
  8 22  1  0
  9 23  1  0
  9 24  1  0
 11 25  1  0
 12 26  1  0
 14 27  1  0
M  END
>  <Energy>  (1023) 
398.6715140185442

>  <compound_id>  (1023) 
8142

>  <target_id>  (1023) 
1

>  <reference_id>  (1023) 
122

>  <inspiration_ids>  (1023) 
[101, 122]

>  <energy_score>  (1023) 
354.32509292854036

>  <distance_score>  (1023) 
13.755019462520528

>  <path>  (1023) 
/opt/xchem-fragalysis-2/maxwin/BulkDock/SCRATCH/511013/C8142-P122/C8142-P122.minimised.mol

>  <scratch_subdir>  (1023) 
/opt/xchem-fragalysis-2/maxwin/BulkDock/SCRATCH/511013/C8142-P122

>  <fragmenstein_runtime>  (1023) 
9.561076879501343

>  <fragmenstein_outcome>  (1023) 
too moved

>  <fragmenstein_mode>  (1023) 
expansion

>  <fragmenstein_error>  (1023) 


$$$$
C8143-P101
     RDKit          3D

 30 31  0  0  0  0  0  0  0  0999 V2000
    0.4446   -5.8349   17.2426 C   0  0  0  0  0  0  0  0  0  0  0  0
    1.0286   -7.1907   17.6622 C   0  0  0  0  0  0  0  0  0  0  0  0
    0.1631   -7.8250   18.7198 N   0  0  0  0  0  0  0  0  0  0  0  0
   -1.1911   -8.2621   18.2107 C   0  0  0  0  0  0  0  0  0  0  0  0
   -2.0816   -9.1951   19.0965 C   0  0  0  0  0  0  0  0  0  0  0  0
   -2.7364  -10.2859   18.6892 N   0  0  0  0  0  0  0  0  0  0  0  0
   -3.5331  -10.6762   19.7399 C   0  0  0  0  0  0  0  0  0  0  0  0
   -3.3614   -9.8371   20.8093 C   0  0  0  0  0  0  0  0  0  0  0  0
   -2.3980   -8.9495   20.4169 N   0  0  0  0  0  0  0  0  0  0  0  0
   -1.8593   -7.8824   21.2238 C   0  0  0  0  0  0  0  0  0  0  0  0
    2.4863   -6.9902   18.0576 C   0  0  0  0  0  0  0  0  0  0  0  0
    3.1225   -6.6304   19.2311 C   0  0  0  0  0  0  0  0  0  0  0  0
    4.4949   -6.5450   18.9151 C   0  0  0  0  0  0  0  0  0  0  0  0
    4.7365   -6.8275   17.6341 N   0  0  0  0  0  0  0  0  0  0  0  0
    3.5087   -7.0722   17.1333 N   0  0  0  0  0  0  0  0  0  0  0  0
   -0.5473   -5.9414   16.7928 H   0  0  0  0  0  0  0  0  0  0  0  0
    1.0822   -5.3458   16.4967 H   0  0  0  0  0  0  0  0  0  0  0  0
    0.3602   -5.1548   18.0984 H   0  0  0  0  0  0  0  0  0  0  0  0
    1.0251   -7.8589   16.7903 H   0  0  0  0  0  0  0  0  0  0  0  0
    0.6171   -8.7003   19.0221 H   0  0  0  0  0  0  0  0  0  0  0  0
   -1.0528   -8.7916   17.2596 H   0  0  0  0  0  0  0  0  0  0  0  0
   -1.7952   -7.3697   18.0120 H   0  0  0  0  0  0  0  0  0  0  0  0
   -4.2155  -11.5063   19.6557 H   0  0  0  0  0  0  0  0  0  0  0  0
   -3.8380   -9.7822   21.7761 H   0  0  0  0  0  0  0  0  0  0  0  0
   -0.8095   -8.1029   21.4315 H   0  0  0  0  0  0  0  0  0  0  0  0
   -2.4134   -7.8243   22.1646 H   0  0  0  0  0  0  0  0  0  0  0  0
   -1.9639   -6.9387   20.6832 H   0  0  0  0  0  0  0  0  0  0  0  0
    2.6487   -6.4509   20.1860 H   0  0  0  0  0  0  0  0  0  0  0  0
    5.3190   -6.2877   19.5677 H   0  0  0  0  0  0  0  0  0  0  0  0
    3.4341   -7.2865   16.1447 H   0  0  0  0  0  0  0  0  0  0  0  0
  1  2  1  0
  2  3  1  0
  3  4  1  0
  4  5  1  0
  5  6  2  0
  6  7  1  0
  7  8  2  0
  8  9  1  0
  9 10  1  0
  2 11  1  0
 11 12  2  0
 12 13  1  0
 13 14  2  0
 14 15  1  0
  9  5  1  0
 15 11  1  0
  1 16  1  0
  1 17  1  0
  1 18  1  0
  2 19  1  0
  3 20  1  0
  4 21  1  0
  4 22  1  0
  7 23  1  0
  8 24  1  0
 10 25  1  0
 10 26  1  0
 10 27  1  0
 12 28  1  0
 13 29  1  0
 15 30  1  0
M  END
>  <Energy>  (1024) 
3.478994718155362

>  <compound_id>  (1024) 
8143

>  <target_id>  (1024) 
1

>  <reference_id>  (1024) 
101

>  <inspiration_ids>  (1024) 
[101, 122]

>  <energy_score>  (1024) 
-17.94914774637334

>  <distance_score>  (1024) 
15.63198471449897

>  <path>  (1024) 
/opt/xchem-fragalysis-2/maxwin/BulkDock/SCRATCH/511013/C8143-P101/C8143-P101.minimised.mol

>  <scratch_subdir>  (1024) 
/opt/xchem-fragalysis-2/maxwin/BulkDock/SCRATCH/511013/C8143-P101

>  <fragmenstein_runtime>  (1024) 
13.616047382354736

>  <fragmenstein_outcome>  (1024) 
too moved

>  <fragmenstein_mode>  (1024) 
expansion

>  <fragmenstein_error>  (1024) 


$$$$
C8143-P122
     RDKit          3D

 30 31  0  0  0  0  0  0  0  0999 V2000
   -2.4235  -11.8671   18.3335 C   0  0  0  0  0  0  0  0  0  0  0  0
   -2.3253  -11.9885   19.8555 C   0  0  0  0  0  0  0  0  0  0  0  0
   -1.9598  -13.4856   20.5125 N   0  0  0  0  0  0  0  0  0  0  0  0
   -1.8682  -15.1601   19.7044 C   0  0  0  0  0  0  0  0  0  0  0  0
   -2.8193  -16.3398   19.5984 C   0  0  0  0  0  0  0  0  0  0  0  0
   -3.5809  -17.0304   20.3779 N   0  0  0  0  0  0  0  0  0  0  0  0
   -4.5219  -17.8239   19.5323 C   0  0  0  0  0  0  0  0  0  0  0  0
   -4.0742  -17.6780   18.2709 C   0  0  0  0  0  0  0  0  0  0  0  0
   -2.8148  -17.1986   18.5416 N   0  0  0  0  0  0  0  0  0  0  0  0
   -1.8565  -18.1713   18.8668 C   0  0  0  0  0  0  0  0  0  0  0  0
   -1.8827  -10.5738   20.4705 C   0  0  0  0  0  0  0  0  0  0  0  0
   -0.9493  -10.0205   21.3543 C   0  0  0  0  0  0  0  0  0  0  0  0
   -0.9460   -8.6212   21.1642 C   0  0  0  0  0  0  0  0  0  0  0  0
   -1.8682   -8.2508   20.2858 N   0  0  0  0  0  0  0  0  0  0  0  0
   -2.4262   -9.4172   19.9106 N   0  0  0  0  0  0  0  0  0  0  0  0
   -1.8938  -10.9893   17.9647 H   0  0  0  0  0  0  0  0  0  0  0  0
   -3.4592  -11.6822   18.0245 H   0  0  0  0  0  0  0  0  0  0  0  0
   -2.0819  -12.7679   17.8235 H   0  0  0  0  0  0  0  0  0  0  0  0
   -3.3858  -11.9324   20.1462 H   0  0  0  0  0  0  0  0  0  0  0  0
   -2.7956  -13.7357   20.9829 H   0  0  0  0  0  0  0  0  0  0  0  0
   -1.6246  -14.8743   18.6871 H   0  0  0  0  0  0  0  0  0  0  0  0
   -1.1062  -15.8078   20.1379 H   0  0  0  0  0  0  0  0  0  0  0  0
   -5.3960  -18.3120   19.9505 H   0  0  0  0  0  0  0  0  0  0  0  0
   -4.3362  -18.0245   17.2988 H   0  0  0  0  0  0  0  0  0  0  0  0
   -1.1577  -18.3127   18.0662 H   0  0  0  0  0  0  0  0  0  0  0  0
   -1.3083  -17.8155   19.7499 H   0  0  0  0  0  0  0  0  0  0  0  0
   -2.4101  -19.0639   19.1457 H   0  0  0  0  0  0  0  0  0  0  0  0
   -0.2266  -10.5175   21.9731 H   0  0  0  0  0  0  0  0  0  0  0  0
   -0.3091   -7.8759   21.6209 H   0  0  0  0  0  0  0  0  0  0  0  0
   -3.1617   -9.3726   19.2163 H   0  0  0  0  0  0  0  0  0  0  0  0
  1  2  1  0
  2  3  1  0
  3  4  1  0
  4  5  1  0
  5  6  2  0
  6  7  1  0
  7  8  2  0
  8  9  1  0
  9 10  1  0
  2 11  1  0
 11 12  2  0
 12 13  1  0
 13 14  2  0
 14 15  1  0
  9  5  1  0
 15 11  1  0
  1 16  1  0
  1 17  1  0
  1 18  1  0
  2 19  1  0
  3 20  1  0
  4 21  1  0
  4 22  1  0
  7 23  1  0
  8 24  1  0
 10 25  1  0
 10 26  1  0
 10 27  1  0
 12 28  1  0
 13 29  1  0
 15 30  1  0
M  END
>  <Energy>  (1025) 
187.68350187480902

>  <compound_id>  (1025) 
8143

>  <target_id>  (1025) 
1

>  <reference_id>  (1025) 
122

>  <inspiration_ids>  (1025) 
[101, 122]

>  <energy_score>  (1025) 
166.25535941028272

>  <distance_score>  (1025) 
15.538164083196609

>  <path>  (1025) 
/opt/xchem-fragalysis-2/maxwin/BulkDock/SCRATCH/511013/C8143-P122/C8143-P122.minimised.mol

>  <scratch_subdir>  (1025) 
/opt/xchem-fragalysis-2/maxwin/BulkDock/SCRATCH/511013/C8143-P122

>  <fragmenstein_runtime>  (1025) 
9.930692195892334

>  <fragmenstein_outcome>  (1025) 
too moved

>  <fragmenstein_mode>  (1025) 
expansion

>  <fragmenstein_error>  (1025) 


$$$$
C8144-P101
     RDKit          3D

 30 31  0  0  0  0  0  0  0  0999 V2000
   -3.6573   -4.6307   19.8866 C   0  0  0  0  0  0  0  0  0  0  0  0
   -2.9987   -5.6428   20.8134 C   0  0  0  0  0  0  0  0  0  0  0  0
   -1.7966   -6.1798   20.1699 N   0  0  0  0  0  0  0  0  0  0  0  0
   -1.0538   -7.1122   21.0612 C   0  0  0  0  0  0  0  0  0  0  0  0
    0.4172   -7.0557   20.6153 C   0  0  0  0  0  0  0  0  0  0  0  0
    1.3218   -5.9950   20.7090 C   0  0  0  0  0  0  0  0  0  0  0  0
    2.4835   -6.4033   20.0348 C   0  0  0  0  0  0  0  0  0  0  0  0
    2.3616   -7.6395   19.5617 N   0  0  0  0  0  0  0  0  0  0  0  0
    1.1251   -8.0320   19.9651 N   0  0  0  0  0  0  0  0  0  0  0  0
   -1.8857   -8.4282   21.2717 C   0  0  0  0  0  0  0  0  0  0  0  0
   -2.4803   -8.7416   22.4296 N   0  0  0  0  0  0  0  0  0  0  0  0
   -3.6188   -9.4312   22.1041 C   0  0  0  0  0  0  0  0  0  0  0  0
   -3.5977   -9.7932   20.7845 C   0  0  0  0  0  0  0  0  0  0  0  0
   -2.5057   -9.1489   20.2586 N   0  0  0  0  0  0  0  0  0  0  0  0
   -2.2852   -9.0181   18.8393 C   0  0  0  0  0  0  0  0  0  0  0  0
   -3.9458   -5.0934   18.9367 H   0  0  0  0  0  0  0  0  0  0  0  0
   -2.9858   -3.7925   19.6712 H   0  0  0  0  0  0  0  0  0  0  0  0
   -4.5614   -4.2258   20.3528 H   0  0  0  0  0  0  0  0  0  0  0  0
   -3.7236   -6.4342   21.0267 H   0  0  0  0  0  0  0  0  0  0  0  0
   -2.7447   -5.1457   21.7566 H   0  0  0  0  0  0  0  0  0  0  0  0
   -1.1788   -5.4010   19.9493 H   0  0  0  0  0  0  0  0  0  0  0  0
   -1.0220   -6.6582   22.0651 H   0  0  0  0  0  0  0  0  0  0  0  0
    1.1346   -5.0376   21.1736 H   0  0  0  0  0  0  0  0  0  0  0  0
    3.4020   -5.8580   19.8638 H   0  0  0  0  0  0  0  0  0  0  0  0
    0.8176   -8.9768   19.7345 H   0  0  0  0  0  0  0  0  0  0  0  0
   -4.3715   -9.6609   22.8474 H   0  0  0  0  0  0  0  0  0  0  0  0
   -4.2862  -10.3666   20.1803 H   0  0  0  0  0  0  0  0  0  0  0  0
   -3.0973   -8.4183   18.4190 H   0  0  0  0  0  0  0  0  0  0  0  0
   -2.2957  -10.0181   18.3984 H   0  0  0  0  0  0  0  0  0  0  0  0
   -1.3297   -8.5358   18.6383 H   0  0  0  0  0  0  0  0  0  0  0  0
  1  2  1  0
  2  3  1  0
  3  4  1  0
  4  5  1  0
  5  6  2  0
  6  7  1  0
  7  8  2  0
  8  9  1  0
  4 10  1  0
 10 11  2  0
 11 12  1  0
 12 13  2  0
 13 14  1  0
 14 15  1  0
  9  5  1  0
 14 10  1  0
  1 16  1  0
  1 17  1  0
  1 18  1  0
  2 19  1  0
  2 20  1  0
  3 21  1  0
  4 22  1  0
  6 23  1  0
  7 24  1  0
  9 25  1  0
 12 26  1  0
 13 27  1  0
 15 28  1  0
 15 29  1  0
 15 30  1  0
M  END
>  <Energy>  (1026) 
19.205058218890169

>  <compound_id>  (1026) 
8144

>  <target_id>  (1026) 
1

>  <reference_id>  (1026) 
101

>  <inspiration_ids>  (1026) 
[101, 122]

>  <energy_score>  (1026) 
-17.59501873303398

>  <distance_score>  (1026) 
16.260491655511697

>  <path>  (1026) 
/opt/xchem-fragalysis-2/maxwin/BulkDock/SCRATCH/511013/C8144-P101/C8144-P101.minimised.mol

>  <scratch_subdir>  (1026) 
/opt/xchem-fragalysis-2/maxwin/BulkDock/SCRATCH/511013/C8144-P101

>  <fragmenstein_runtime>  (1026) 
19.1657612323761

>  <fragmenstein_outcome>  (1026) 
too moved

>  <fragmenstein_mode>  (1026) 
expansion

>  <fragmenstein_error>  (1026) 


$$$$
C8144-P122
     RDKit          3D

 30 31  0  0  0  0  0  0  0  0999 V2000
   -2.3888   -6.9820   18.7101 C   0  0  0  0  0  0  0  0  0  0  0  0
   -1.8550   -5.9374   19.6789 C   0  0  0  0  0  0  0  0  0  0  0  0
   -1.8859   -6.2748   21.1114 N   0  0  0  0  0  0  0  0  0  0  0  0
   -1.1107   -7.4796   21.5198 C   0  0  0  0  0  0  0  0  0  0  0  0
    0.3429   -7.3028   21.0411 C   0  0  0  0  0  0  0  0  0  0  0  0
    1.2846   -6.3175   21.3373 C   0  0  0  0  0  0  0  0  0  0  0  0
    2.3811   -6.5541   20.4888 C   0  0  0  0  0  0  0  0  0  0  0  0
    2.1851   -7.6201   19.7188 N   0  0  0  0  0  0  0  0  0  0  0  0
    0.9758   -8.0991   20.1190 N   0  0  0  0  0  0  0  0  0  0  0  0
   -1.9350   -8.7919   21.3021 C   0  0  0  0  0  0  0  0  0  0  0  0
   -1.4935  -10.0098   21.0355 N   0  0  0  0  0  0  0  0  0  0  0  0
   -2.5665  -10.7175   20.5517 C   0  0  0  0  0  0  0  0  0  0  0  0
   -3.7262  -10.0251   20.7727 C   0  0  0  0  0  0  0  0  0  0  0  0
   -3.3239   -8.8749   21.3956 N   0  0  0  0  0  0  0  0  0  0  0  0
   -4.2272   -7.9022   21.9595 C   0  0  0  0  0  0  0  0  0  0  0  0
   -1.7630   -7.8779   18.6841 H   0  0  0  0  0  0  0  0  0  0  0  0
   -3.4154   -7.2682   18.9551 H   0  0  0  0  0  0  0  0  0  0  0  0
   -2.4012   -6.5693   17.6954 H   0  0  0  0  0  0  0  0  0  0  0  0
   -0.8489   -5.6353   19.3679 H   0  0  0  0  0  0  0  0  0  0  0  0
   -2.4738   -5.0393   19.5606 H   0  0  0  0  0  0  0  0  0  0  0  0
   -1.4740   -5.4866   21.6086 H   0  0  0  0  0  0  0  0  0  0  0  0
   -1.0434   -7.4242   22.6174 H   0  0  0  0  0  0  0  0  0  0  0  0
    1.1629   -5.5059   22.0389 H   0  0  0  0  0  0  0  0  0  0  0  0
    3.3013   -5.9940   20.3913 H   0  0  0  0  0  0  0  0  0  0  0  0
    0.6209   -8.9661   19.7095 H   0  0  0  0  0  0  0  0  0  0  0  0
   -2.4390  -11.6912   20.1014 H   0  0  0  0  0  0  0  0  0  0  0  0
   -4.7639  -10.2674   20.5925 H   0  0  0  0  0  0  0  0  0  0  0  0
   -5.1217   -8.4202   22.3174 H   0  0  0  0  0  0  0  0  0  0  0  0
   -4.5047   -7.1842   21.1853 H   0  0  0  0  0  0  0  0  0  0  0  0
   -3.7466   -7.4098   22.8080 H   0  0  0  0  0  0  0  0  0  0  0  0
  1  2  1  0
  2  3  1  0
  3  4  1  0
  4  5  1  0
  5  6  2  0
  6  7  1  0
  7  8  2  0
  8  9  1  0
  4 10  1  0
 10 11  2  0
 11 12  1  0
 12 13  2  0
 13 14  1  0
 14 15  1  0
  9  5  1  0
 14 10  1  0
  1 16  1  0
  1 17  1  0
  1 18  1  0
  2 19  1  0
  2 20  1  0
  3 21  1  0
  4 22  1  0
  6 23  1  0
  7 24  1  0
  9 25  1  0
 12 26  1  0
 13 27  1  0
 15 28  1  0
 15 29  1  0
 15 30  1  0
M  END
>  <Energy>  (1027) 
14.545047316251411

>  <compound_id>  (1027) 
8144

>  <target_id>  (1027) 
1

>  <reference_id>  (1027) 
122

>  <inspiration_ids>  (1027) 
[101, 122]

>  <energy_score>  (1027) 
-22.255029635672543

>  <distance_score>  (1027) 
16.278035659425854

>  <path>  (1027) 
/opt/xchem-fragalysis-2/maxwin/BulkDock/SCRATCH/511013/C8144-P122/C8144-P122.minimised.mol

>  <scratch_subdir>  (1027) 
/opt/xchem-fragalysis-2/maxwin/BulkDock/SCRATCH/511013/C8144-P122

>  <fragmenstein_runtime>  (1027) 
18.011958360671997

>  <fragmenstein_outcome>  (1027) 
too moved

>  <fragmenstein_mode>  (1027) 
expansion

>  <fragmenstein_error>  (1027) 


$$$$
C8145-P101
     RDKit          3D

 30 31  0  0  0  0  0  0  0  0999 V2000
   -2.0870  -14.8073   13.7794 C   0  0  0  0  0  0  0  0  0  0  0  0
   -2.0265  -13.9360   14.9275 N   0  0  0  0  0  0  0  0  0  0  0  0
   -3.0400  -13.7699   15.8357 C   0  0  0  0  0  0  0  0  0  0  0  0
   -2.6286  -12.7287   16.6303 C   0  0  0  0  0  0  0  0  0  0  0  0
   -1.3745  -12.3222   16.2896 N   0  0  0  0  0  0  0  0  0  0  0  0
   -1.0379  -13.0121   15.2152 C   0  0  0  0  0  0  0  0  0  0  0  0
    0.2503  -12.7791   14.4246 C   0  0  0  0  0  0  0  0  0  0  0  0
    0.5587  -11.3336   14.2451 N   0  0  0  0  0  0  0  0  0  0  0  0
    2.0084  -11.0183   14.2660 C   0  0  0  0  0  0  0  0  0  0  0  0
    2.3364   -9.4929   14.1274 C   0  0  0  0  0  0  0  0  0  0  0  0
    3.7814   -9.1578   14.3474 C   0  0  0  0  0  0  0  0  0  0  0  0
    4.9198   -9.4222   13.6151 C   0  0  0  0  0  0  0  0  0  0  0  0
    5.9674   -8.8549   14.3541 C   0  0  0  0  0  0  0  0  0  0  0  0
    5.5301   -8.2304   15.4515 N   0  0  0  0  0  0  0  0  0  0  0  0
    4.2043   -8.4230   15.4246 N   0  0  0  0  0  0  0  0  0  0  0  0
   -1.0910  -15.1985   13.5648 H   0  0  0  0  0  0  0  0  0  0  0  0
   -2.7687  -15.6353   13.9894 H   0  0  0  0  0  0  0  0  0  0  0  0
   -2.4546  -14.2246   12.9309 H   0  0  0  0  0  0  0  0  0  0  0  0
   -3.9537  -14.3463   15.7970 H   0  0  0  0  0  0  0  0  0  0  0  0
   -3.1508  -12.2102   17.4204 H   0  0  0  0  0  0  0  0  0  0  0  0
    1.0529  -13.2802   14.9788 H   0  0  0  0  0  0  0  0  0  0  0  0
    0.1865  -13.2380   13.4337 H   0  0  0  0  0  0  0  0  0  0  0  0
    0.0575  -10.8111   14.9655 H   0  0  0  0  0  0  0  0  0  0  0  0
    2.4993  -11.5563   13.4457 H   0  0  0  0  0  0  0  0  0  0  0  0
    2.4499  -11.3840   15.1996 H   0  0  0  0  0  0  0  0  0  0  0  0
    1.7217   -8.9355   14.8462 H   0  0  0  0  0  0  0  0  0  0  0  0
    2.0369   -9.1531   13.1283 H   0  0  0  0  0  0  0  0  0  0  0  0
    4.9855   -9.9678   12.6843 H   0  0  0  0  0  0  0  0  0  0  0  0
    7.0269   -8.8664   14.1295 H   0  0  0  0  0  0  0  0  0  0  0  0
    3.6430   -8.0320   16.1756 H   0  0  0  0  0  0  0  0  0  0  0  0
  1  2  1  0
  2  3  1  0
  3  4  2  0
  4  5  1  0
  5  6  2  0
  6  7  1  0
  7  8  1  0
  8  9  1  0
  9 10  1  0
 10 11  1  0
 11 12  2  0
 12 13  1  0
 13 14  2  0
 14 15  1  0
  6  2  1  0
 15 11  1  0
  1 16  1  0
  1 17  1  0
  1 18  1  0
  3 19  1  0
  4 20  1  0
  7 21  1  0
  7 22  1  0
  8 23  1  0
  9 24  1  0
  9 25  1  0
 10 26  1  0
 10 27  1  0
 12 28  1  0
 13 29  1  0
 15 30  1  0
M  END
>  <Energy>  (1028) 
31.0014659614084

>  <compound_id>  (1028) 
8145

>  <target_id>  (1028) 
1

>  <reference_id>  (1028) 
101

>  <inspiration_ids>  (1028) 
[101, 122]

>  <energy_score>  (1028) 
-12.191937546213978

>  <distance_score>  (1028) 
15.644445070436126

>  <path>  (1028) 
/opt/xchem-fragalysis-2/maxwin/BulkDock/SCRATCH/511013/C8145-P101/C8145-P101.minimised.mol

>  <scratch_subdir>  (1028) 
/opt/xchem-fragalysis-2/maxwin/BulkDock/SCRATCH/511013/C8145-P101

>  <fragmenstein_runtime>  (1028) 
10.278851747512817

>  <fragmenstein_outcome>  (1028) 
too moved

>  <fragmenstein_mode>  (1028) 
expansion

>  <fragmenstein_error>  (1028) 


$$$$
C8145-P122
     RDKit          3D

 30 31  0  0  0  0  0  0  0  0999 V2000
   -4.4368  -10.5295   15.7792 C   0  0  0  0  0  0  0  0  0  0  0  0
   -3.4770  -11.5729   16.0453 N   0  0  0  0  0  0  0  0  0  0  0  0
   -3.7406  -12.9097   15.9207 C   0  0  0  0  0  0  0  0  0  0  0  0
   -2.5472  -13.5241   16.1940 C   0  0  0  0  0  0  0  0  0  0  0  0
   -1.5754  -12.6000   16.4830 N   0  0  0  0  0  0  0  0  0  0  0  0
   -2.1264  -11.4050   16.3152 C   0  0  0  0  0  0  0  0  0  0  0  0
   -1.4285  -10.0239   16.4128 C   0  0  0  0  0  0  0  0  0  0  0  0
   -0.0726   -9.9453   15.7728 N   0  0  0  0  0  0  0  0  0  0  0  0
    0.7179   -8.7453   16.2120 C   0  0  0  0  0  0  0  0  0  0  0  0
    2.1378   -8.6134   15.5396 C   0  0  0  0  0  0  0  0  0  0  0  0
    3.1808   -7.8206   16.2932 C   0  0  0  0  0  0  0  0  0  0  0  0
    3.1280   -6.8672   17.2899 C   0  0  0  0  0  0  0  0  0  0  0  0
    4.4681   -6.6111   17.6373 C   0  0  0  0  0  0  0  0  0  0  0  0
    5.3247   -7.2936   16.8791 N   0  0  0  0  0  0  0  0  0  0  0  0
    4.5250   -8.0105   16.0664 N   0  0  0  0  0  0  0  0  0  0  0  0
   -4.3451  -10.2422   14.7288 H   0  0  0  0  0  0  0  0  0  0  0  0
   -5.4428  -10.9072   15.9810 H   0  0  0  0  0  0  0  0  0  0  0  0
   -4.2366   -9.6737   16.4255 H   0  0  0  0  0  0  0  0  0  0  0  0
   -4.7128  -13.3001   15.6554 H   0  0  0  0  0  0  0  0  0  0  0  0
   -2.3399  -14.5816   16.1941 H   0  0  0  0  0  0  0  0  0  0  0  0
   -1.3625   -9.7783   17.4767 H   0  0  0  0  0  0  0  0  0  0  0  0
   -2.0534   -9.2581   15.9417 H   0  0  0  0  0  0  0  0  0  0  0  0
   -0.1968   -9.9359   14.7618 H   0  0  0  0  0  0  0  0  0  0  0  0
    0.1456   -7.8358   15.9927 H   0  0  0  0  0  0  0  0  0  0  0  0
    0.8469   -8.7927   17.2977 H   0  0  0  0  0  0  0  0  0  0  0  0
    2.5356   -9.6280   15.4009 H   0  0  0  0  0  0  0  0  0  0  0  0
    2.0141   -8.1849   14.5375 H   0  0  0  0  0  0  0  0  0  0  0  0
    2.2407   -6.4604   17.7547 H   0  0  0  0  0  0  0  0  0  0  0  0
    4.8450   -5.9642   18.4171 H   0  0  0  0  0  0  0  0  0  0  0  0
    4.9591   -8.6347   15.3937 H   0  0  0  0  0  0  0  0  0  0  0  0
  1  2  1  0
  2  3  1  0
  3  4  2  0
  4  5  1  0
  5  6  2  0
  6  7  1  0
  7  8  1  0
  8  9  1  0
  9 10  1  0
 10 11  1  0
 11 12  2  0
 12 13  1  0
 13 14  2  0
 14 15  1  0
  6  2  1  0
 15 11  1  0
  1 16  1  0
  1 17  1  0
  1 18  1  0
  3 19  1  0
  4 20  1  0
  7 21  1  0
  7 22  1  0
  8 23  1  0
  9 24  1  0
  9 25  1  0
 10 26  1  0
 10 27  1  0
 12 28  1  0
 13 29  1  0
 15 30  1  0
M  END
>  <Energy>  (1029) 
40.071756821425211

>  <compound_id>  (1029) 
8145

>  <target_id>  (1029) 
1

>  <reference_id>  (1029) 
122

>  <inspiration_ids>  (1029) 
[101, 122]

>  <energy_score>  (1029) 
-3.1216466861980052

>  <distance_score>  (1029) 
15.593842474162432

>  <path>  (1029) 
/opt/xchem-fragalysis-2/maxwin/BulkDock/SCRATCH/511013/C8145-P122/C8145-P122.minimised.mol

>  <scratch_subdir>  (1029) 
/opt/xchem-fragalysis-2/maxwin/BulkDock/SCRATCH/511013/C8145-P122

>  <fragmenstein_runtime>  (1029) 
13.251574754714966

>  <fragmenstein_outcome>  (1029) 
too moved

>  <fragmenstein_mode>  (1029) 
expansion

>  <fragmenstein_error>  (1029) 


$$$$
C8146-P101
     RDKit          3D

 30 31  0  0  0  0  0  0  0  0999 V2000
   -1.3219  -14.3870   28.9229 C   0  0  0  0  0  0  0  0  0  0  0  0
    0.0417  -13.9234   28.5126 C   0  0  0  0  0  0  0  0  0  0  0  0
    1.2989  -14.3064   28.9212 C   0  0  0  0  0  0  0  0  0  0  0  0
    2.2885  -13.6781   28.1805 N   0  0  0  0  0  0  0  0  0  0  0  0
    1.6845  -12.8664   27.3295 C   0  0  0  0  0  0  0  0  0  0  0  0
    2.2802  -11.9943   26.1751 C   0  0  0  0  0  0  0  0  0  0  0  0
    3.6513  -11.3725   26.2262 N   0  0  0  0  0  0  0  0  0  0  0  0
    3.9948  -10.6883   24.9056 C   0  0  0  0  0  0  0  0  0  0  0  0
    5.3716   -9.9032   24.8140 C   0  0  0  0  0  0  0  0  0  0  0  0
    5.7163   -9.1835   23.5120 C   0  0  0  0  0  0  0  0  0  0  0  0
    5.1312   -8.1289   22.8338 C   0  0  0  0  0  0  0  0  0  0  0  0
    6.0052   -7.8217   21.7690 C   0  0  0  0  0  0  0  0  0  0  0  0
    7.0717   -8.6205   21.7488 N   0  0  0  0  0  0  0  0  0  0  0  0
    6.8875   -9.4186   22.8206 N   0  0  0  0  0  0  0  0  0  0  0  0
    0.3026  -13.0056   27.5109 N   0  0  0  0  0  0  0  0  0  0  0  0
   -1.3148  -15.4546   29.1622 H   0  0  0  0  0  0  0  0  0  0  0  0
   -1.6501  -13.8358   29.8095 H   0  0  0  0  0  0  0  0  0  0  0  0
   -2.0462  -14.2141   28.1225 H   0  0  0  0  0  0  0  0  0  0  0  0
    1.5590  -15.0245   29.6886 H   0  0  0  0  0  0  0  0  0  0  0  0
    1.5975  -11.1541   26.0614 H   0  0  0  0  0  0  0  0  0  0  0  0
    2.2540  -12.6149   25.2765 H   0  0  0  0  0  0  0  0  0  0  0  0
    4.3146  -12.1265   26.4107 H   0  0  0  0  0  0  0  0  0  0  0  0
    3.1940   -9.9727   24.6820 H   0  0  0  0  0  0  0  0  0  0  0  0
    3.9850  -11.4473   24.1136 H   0  0  0  0  0  0  0  0  0  0  0  0
    5.3830   -9.1533   25.6157 H   0  0  0  0  0  0  0  0  0  0  0  0
    6.1739  -10.6159   25.0451 H   0  0  0  0  0  0  0  0  0  0  0  0
    4.2085   -7.6271   23.0902 H   0  0  0  0  0  0  0  0  0  0  0  0
    5.9025   -7.0514   21.0157 H   0  0  0  0  0  0  0  0  0  0  0  0
    7.6120  -10.0944   23.0409 H   0  0  0  0  0  0  0  0  0  0  0  0
   -0.3859  -12.5727   26.9149 H   0  0  0  0  0  0  0  0  0  0  0  0
  1  2  1  0
  2  3  2  0
  3  4  1  0
  4  5  2  0
  5  6  1  0
  6  7  1  0
  7  8  1  0
  8  9  1  0
  9 10  1  0
 10 11  2  0
 11 12  1  0
 12 13  2  0
 13 14  1  0
  5 15  1  0
 15  2  1  0
 14 10  1  0
  1 16  1  0
  1 17  1  0
  1 18  1  0
  3 19  1  0
  6 20  1  0
  6 21  1  0
  7 22  1  0
  8 23  1  0
  8 24  1  0
  9 25  1  0
  9 26  1  0
 11 27  1  0
 12 28  1  0
 14 29  1  0
 15 30  1  0
M  END
>  <Energy>  (1030) 
40.776317363998196

>  <compound_id>  (1030) 
8146

>  <target_id>  (1030) 
1

>  <reference_id>  (1030) 
101

>  <inspiration_ids>  (1030) 
[101, 122]

>  <energy_score>  (1030) 
-7.712426104764006

>  <distance_score>  (1030) 
14.615947201122763

>  <path>  (1030) 
/opt/xchem-fragalysis-2/maxwin/BulkDock/SCRATCH/511013/C8146-P101/C8146-P101.minimised.mol

>  <scratch_subdir>  (1030) 
/opt/xchem-fragalysis-2/maxwin/BulkDock/SCRATCH/511013/C8146-P101

>  <fragmenstein_runtime>  (1030) 
12.034735202789307

>  <fragmenstein_outcome>  (1030) 
too moved

>  <fragmenstein_mode>  (1030) 
expansion

>  <fragmenstein_error>  (1030) 


$$$$
C8146-P122
     RDKit          3D

 30 31  0  0  0  0  0  0  0  0999 V2000
   -7.1099  -11.7046   24.9191 C   0  0  0  0  0  0  0  0  0  0  0  0
   -5.9405  -10.7943   24.7338 C   0  0  0  0  0  0  0  0  0  0  0  0
   -4.9077  -10.4364   25.5709 C   0  0  0  0  0  0  0  0  0  0  0  0
   -3.9657   -9.6657   24.9159 N   0  0  0  0  0  0  0  0  0  0  0  0
   -4.3853   -9.5143   23.6695 C   0  0  0  0  0  0  0  0  0  0  0  0
   -3.6493   -8.8185   22.4577 C   0  0  0  0  0  0  0  0  0  0  0  0
   -2.1791   -8.5671   22.6311 N   0  0  0  0  0  0  0  0  0  0  0  0
   -1.4206   -7.9740   21.4628 C   0  0  0  0  0  0  0  0  0  0  0  0
    0.1198   -7.7035   21.7709 C   0  0  0  0  0  0  0  0  0  0  0  0
    1.0590   -7.1557   20.7033 C   0  0  0  0  0  0  0  0  0  0  0  0
    1.5267   -5.8788   20.4359 C   0  0  0  0  0  0  0  0  0  0  0  0
    2.5641   -6.0381   19.4926 C   0  0  0  0  0  0  0  0  0  0  0  0
    2.7484   -7.3160   19.1596 N   0  0  0  0  0  0  0  0  0  0  0  0
    1.8191   -7.9754   19.8935 N   0  0  0  0  0  0  0  0  0  0  0  0
   -5.6342  -10.1364   23.5532 N   0  0  0  0  0  0  0  0  0  0  0  0
   -8.0372  -11.1820   24.6636 H   0  0  0  0  0  0  0  0  0  0  0  0
   -7.0185  -12.5774   24.2691 H   0  0  0  0  0  0  0  0  0  0  0  0
   -7.1874  -12.0422   25.9567 H   0  0  0  0  0  0  0  0  0  0  0  0
   -4.7618  -10.7168   26.6062 H   0  0  0  0  0  0  0  0  0  0  0  0
   -4.1570   -7.8653   22.2722 H   0  0  0  0  0  0  0  0  0  0  0  0
   -3.7824   -9.4622   21.5822 H   0  0  0  0  0  0  0  0  0  0  0  0
   -2.0872   -7.9427   23.4352 H   0  0  0  0  0  0  0  0  0  0  0  0
   -1.4928   -8.6630   20.6146 H   0  0  0  0  0  0  0  0  0  0  0  0
   -1.8919   -7.0276   21.1749 H   0  0  0  0  0  0  0  0  0  0  0  0
    0.5476   -8.6497   22.1310 H   0  0  0  0  0  0  0  0  0  0  0  0
    0.1625   -7.0150   22.6260 H   0  0  0  0  0  0  0  0  0  0  0  0
    1.2009   -4.9609   20.9043 H   0  0  0  0  0  0  0  0  0  0  0  0
    3.1927   -5.2785   19.0468 H   0  0  0  0  0  0  0  0  0  0  0  0
    1.7731   -8.9927   19.8337 H   0  0  0  0  0  0  0  0  0  0  0  0
   -6.1115  -10.2642   22.6752 H   0  0  0  0  0  0  0  0  0  0  0  0
  1  2  1  0
  2  3  2  0
  3  4  1  0
  4  5  2  0
  5  6  1  0
  6  7  1  0
  7  8  1  0
  8  9  1  0
  9 10  1  0
 10 11  2  0
 11 12  1  0
 12 13  2  0
 13 14  1  0
  5 15  1  0
 15  2  1  0
 14 10  1  0
  1 16  1  0
  1 17  1  0
  1 18  1  0
  3 19  1  0
  6 20  1  0
  6 21  1  0
  7 22  1  0
  8 23  1  0
  8 24  1  0
  9 25  1  0
  9 26  1  0
 11 27  1  0
 12 28  1  0
 14 29  1  0
 15 30  1  0
M  END
>  <Energy>  (1031) 
39.582071101093867

>  <compound_id>  (1031) 
8146

>  <target_id>  (1031) 
1

>  <reference_id>  (1031) 
122

>  <inspiration_ids>  (1031) 
[101, 122]

>  <energy_score>  (1031) 
-8.906672367667738

>  <distance_score>  (1031) 
14.863793779944753

>  <path>  (1031) 
/opt/xchem-fragalysis-2/maxwin/BulkDock/SCRATCH/511013/C8146-P122/C8146-P122.minimised.mol

>  <scratch_subdir>  (1031) 
/opt/xchem-fragalysis-2/maxwin/BulkDock/SCRATCH/511013/C8146-P122

>  <fragmenstein_runtime>  (1031) 
15.048863410949707

>  <fragmenstein_outcome>  (1031) 
too moved

>  <fragmenstein_mode>  (1031) 
expansion

>  <fragmenstein_error>  (1031) 


$$$$
C8147-P101
     RDKit          3D

 46 47  0  0  0  0  0  0  0  0999 V2000
   -7.0456  -18.4779   21.6228 C   0  0  0  0  0  0  0  0  0  0  0  0
   -7.2067  -18.6727   20.2157 N   0  0  0  0  0  0  0  0  0  0  0  0
   -8.4467  -18.9462   19.6922 C   0  0  0  0  0  0  0  0  0  0  0  0
   -8.2667  -18.9145   18.3404 C   0  0  0  0  0  0  0  0  0  0  0  0
   -6.9596  -18.6397   18.0387 N   0  0  0  0  0  0  0  0  0  0  0  0
   -6.2932  -18.5547   19.1826 C   0  0  0  0  0  0  0  0  0  0  0  0
   -4.7612  -18.6118   19.2314 C   0  0  0  0  0  0  0  0  0  0  0  0
   -3.8315  -17.2719   19.1176 C   0  0  0  0  0  0  0  0  0  0  0  0
   -2.2868  -17.3807   19.1685 C   0  0  0  0  0  0  0  0  0  0  0  0
   -1.9637  -18.4639   18.8231 O   0  0  0  0  0  0  0  0  0  0  0  0
   -1.2069  -16.0833   19.5192 N   0  0  0  0  0  0  0  0  0  0  0  0
    0.8080  -15.9558   19.3151 C   0  0  0  0  0  0  0  0  0  0  0  0
    0.6683  -17.5260   19.1403 C   0  0  0  0  0  0  0  0  0  0  0  0
    0.2136  -17.6478   20.5628 O   0  0  0  0  0  0  0  0  0  0  0  0
    1.7038  -14.1571   18.3370 C   0  0  0  0  0  0  0  0  0  0  0  0
    3.0237  -12.6279   17.7914 N   0  0  0  0  0  0  0  0  0  0  0  0
    2.8451  -10.7046   17.6432 C   0  0  0  0  0  0  0  0  0  0  0  0
    1.9030   -9.9456   17.9505 O   0  0  0  0  0  0  0  0  0  0  0  0
    3.9645   -9.8709   16.9177 C   0  0  0  0  0  0  0  0  0  0  0  0
    4.7614   -8.6505   17.5336 C   0  0  0  0  0  0  0  0  0  0  0  0
    4.7740   -7.2950   17.2481 C   0  0  0  0  0  0  0  0  0  0  0  0
    5.7020   -6.7563   18.1483 C   0  0  0  0  0  0  0  0  0  0  0  0
    6.3054   -7.6790   18.8930 N   0  0  0  0  0  0  0  0  0  0  0  0
    5.7016   -8.8053   18.5098 N   0  0  0  0  0  0  0  0  0  0  0  0
   -7.8245  -17.7868   21.9404 H   0  0  0  0  0  0  0  0  0  0  0  0
   -6.0832  -18.0369   21.8064 H   0  0  0  0  0  0  0  0  0  0  0  0
   -7.1622  -19.4266   22.1468 H   0  0  0  0  0  0  0  0  0  0  0  0
   -9.3171  -19.1137   20.3101 H   0  0  0  0  0  0  0  0  0  0  0  0
   -9.0019  -19.0656   17.5618 H   0  0  0  0  0  0  0  0  0  0  0  0
   -4.5512  -19.1632   18.3090 H   0  0  0  0  0  0  0  0  0  0  0  0
   -4.4169  -19.3615   19.9320 H   0  0  0  0  0  0  0  0  0  0  0  0
   -3.7324  -17.5509   18.0367 H   0  0  0  0  0  0  0  0  0  0  0  0
   -4.3308  -16.5130   18.5479 H   0  0  0  0  0  0  0  0  0  0  0  0
   -1.7430  -15.2477   19.7099 H   0  0  0  0  0  0  0  0  0  0  0  0
    1.1020  -15.8354   20.3819 H   0  0  0  0  0  0  0  0  0  0  0  0
   -0.0682  -17.9902   18.4812 H   0  0  0  0  0  0  0  0  0  0  0  0
    1.4227  -18.0937   18.5523 H   0  0  0  0  0  0  0  0  0  0  0  0
   -0.6469  -17.2042   20.6140 H   0  0  0  0  0  0  0  0  0  0  0  0
    1.1321  -14.1040   17.4144 H   0  0  0  0  0  0  0  0  0  0  0  0
    2.5748  -14.8216   18.1688 H   0  0  0  0  0  0  0  0  0  0  0  0
    3.8467  -12.9345   17.3927 H   0  0  0  0  0  0  0  0  0  0  0  0
    3.3413   -9.0626   16.5163 H   0  0  0  0  0  0  0  0  0  0  0  0
    4.0895  -10.2048   15.8726 H   0  0  0  0  0  0  0  0  0  0  0  0
    4.1414   -6.7820   16.5391 H   0  0  0  0  0  0  0  0  0  0  0  0
    5.9700   -5.7455   18.3437 H   0  0  0  0  0  0  0  0  0  0  0  0
    5.9505   -9.6680   18.9780 H   0  0  0  0  0  0  0  0  0  0  0  0
  1  2  1  0
  2  3  1  0
  3  4  2  0
  4  5  1  0
  5  6  2  0
  6  7  1  0
  7  8  1  0
  8  9  1  0
  9 10  2  0
  9 11  1  0
 11 12  1  0
 12 13  1  0
 13 14  1  0
 12 15  1  0
 15 16  1  0
 16 17  1  0
 17 18  2  0
 17 19  1  0
 19 20  1  0
 20 21  2  0
 21 22  1  0
 22 23  2  0
 23 24  1  0
  6  2  1  0
 24 20  1  0
  1 25  1  0
  1 26  1  0
  1 27  1  0
  3 28  1  0
  4 29  1  0
  7 30  1  0
  7 31  1  0
  8 32  1  0
  8 33  1  0
 11 34  1  0
 12 35  1  0
 13 36  1  0
 13 37  1  0
 14 38  1  0
 15 39  1  0
 15 40  1  0
 16 41  1  0
 19 42  1  0
 19 43  1  0
 21 44  1  0
 22 45  1  0
 24 46  1  0
M  END
>  <Energy>  (1032) 
752.50101589977453

>  <compound_id>  (1032) 
8147

>  <target_id>  (1032) 
1

>  <reference_id>  (1032) 
101

>  <inspiration_ids>  (1032) 
[101, 122]

>  <energy_score>  (1032) 
701.9157248297428

>  <distance_score>  (1032) 
10.752214669647643

>  <path>  (1032) 
/opt/xchem-fragalysis-2/maxwin/BulkDock/SCRATCH/511013/C8147-P101/C8147-P101.minimised.mol

>  <scratch_subdir>  (1032) 
/opt/xchem-fragalysis-2/maxwin/BulkDock/SCRATCH/511013/C8147-P101

>  <fragmenstein_runtime>  (1032) 
37.73630380630493

>  <fragmenstein_outcome>  (1032) 
too moved

>  <fragmenstein_mode>  (1032) 
expansion

>  <fragmenstein_error>  (1032) 


$$$$
C8147-P122
     RDKit          3D

 46 47  0  0  0  0  0  0  0  0999 V2000
  -11.0270  -17.5536   22.1619 C   0  0  0  0  0  0  0  0  0  0  0  0
  -10.4894  -18.8193   21.7307 N   0  0  0  0  0  0  0  0  0  0  0  0
  -10.9695  -20.0324   22.1412 C   0  0  0  0  0  0  0  0  0  0  0  0
  -10.3337  -20.9385   21.3356 C   0  0  0  0  0  0  0  0  0  0  0  0
   -9.4751  -20.3128   20.4673 N   0  0  0  0  0  0  0  0  0  0  0  0
   -9.5295  -19.0274   20.7532 C   0  0  0  0  0  0  0  0  0  0  0  0
   -8.7837  -17.9010   20.0653 C   0  0  0  0  0  0  0  0  0  0  0  0
   -7.6106  -18.2698   19.1298 C   0  0  0  0  0  0  0  0  0  0  0  0
   -6.2303  -17.9552   19.7523 C   0  0  0  0  0  0  0  0  0  0  0  0
   -6.1046  -18.1199   20.9296 O   0  0  0  0  0  0  0  0  0  0  0  0
   -5.2396  -17.5789   18.7228 N   0  0  0  0  0  0  0  0  0  0  0  0
   -3.7239  -17.3816   18.8133 C   0  0  0  0  0  0  0  0  0  0  0  0
   -3.5419  -18.8236   19.0300 C   0  0  0  0  0  0  0  0  0  0  0  0
   -2.4513  -19.0522   19.7695 O   0  0  0  0  0  0  0  0  0  0  0  0
   -2.5295  -16.4131   19.7485 C   0  0  0  0  0  0  0  0  0  0  0  0
   -1.2868  -15.6278   19.1843 N   0  0  0  0  0  0  0  0  0  0  0  0
    0.5734  -15.8513   19.4449 C   0  0  0  0  0  0  0  0  0  0  0  0
    0.8030  -16.6591   20.2233 O   0  0  0  0  0  0  0  0  0  0  0  0
    1.9721  -14.4424   18.3467 C   0  0  0  0  0  0  0  0  0  0  0  0
    3.2255  -12.6830   17.9782 C   0  0  0  0  0  0  0  0  0  0  0  0
    3.6494  -11.7236   16.4872 C   0  0  0  0  0  0  0  0  0  0  0  0
    3.8206  -10.2976   16.0348 C   0  0  0  0  0  0  0  0  0  0  0  0
    3.6389   -9.7696   17.1780 N   0  0  0  0  0  0  0  0  0  0  0  0
    2.9147  -10.9282   17.6004 N   0  0  0  0  0  0  0  0  0  0  0  0
  -12.1064  -17.6610   22.3039 H   0  0  0  0  0  0  0  0  0  0  0  0
  -10.8484  -16.7886   21.4042 H   0  0  0  0  0  0  0  0  0  0  0  0
  -10.5610  -17.2762   23.1066 H   0  0  0  0  0  0  0  0  0  0  0  0
  -11.7227  -20.1517   22.9065 H   0  0  0  0  0  0  0  0  0  0  0  0
  -10.4644  -22.0063   21.3164 H   0  0  0  0  0  0  0  0  0  0  0  0
   -9.5289  -17.3744   19.4537 H   0  0  0  0  0  0  0  0  0  0  0  0
   -8.4454  -17.1882   20.8210 H   0  0  0  0  0  0  0  0  0  0  0  0
   -7.7228  -17.6973   18.2027 H   0  0  0  0  0  0  0  0  0  0  0  0
   -7.6181  -19.3310   18.8593 H   0  0  0  0  0  0  0  0  0  0  0  0
   -5.6793  -17.6118   17.8097 H   0  0  0  0  0  0  0  0  0  0  0  0
   -3.5217  -17.0941   17.7927 H   0  0  0  0  0  0  0  0  0  0  0  0
   -3.5234  -19.2258   18.0571 H   0  0  0  0  0  0  0  0  0  0  0  0
   -4.3357  -19.3951   19.5211 H   0  0  0  0  0  0  0  0  0  0  0  0
   -1.6283  -18.7657   19.3299 H   0  0  0  0  0  0  0  0  0  0  0  0
   -2.9902  -15.7472   20.4168 H   0  0  0  0  0  0  0  0  0  0  0  0
   -1.9941  -17.1317   20.3503 H   0  0  0  0  0  0  0  0  0  0  0  0
   -1.4215  -14.8490   18.5563 H   0  0  0  0  0  0  0  0  0  0  0  0
    2.7955  -15.1270   18.1076 H   0  0  0  0  0  0  0  0  0  0  0  0
    1.3794  -14.2401   17.4445 H   0  0  0  0  0  0  0  0  0  0  0  0
    3.8194  -12.1247   15.4901 H   0  0  0  0  0  0  0  0  0  0  0  0
    4.1204   -9.8353   15.1015 H   0  0  0  0  0  0  0  0  0  0  0  0
    2.4378  -10.5206   18.3529 H   0  0  0  0  0  0  0  0  0  0  0  0
  1  2  1  0
  2  3  1  0
  3  4  2  0
  4  5  1  0
  5  6  2  0
  6  7  1  0
  7  8  1  0
  8  9  1  0
  9 10  2  0
  9 11  1  0
 11 12  1  0
 12 13  1  0
 13 14  1  0
 12 15  1  0
 15 16  1  0
 16 17  1  0
 17 18  2  0
 17 19  1  0
 19 20  1  0
 20 21  2  0
 21 22  1  0
 22 23  2  0
 23 24  1  0
  6  2  1  0
 24 20  1  0
  1 25  1  0
  1 26  1  0
  1 27  1  0
  3 28  1  0
  4 29  1  0
  7 30  1  0
  7 31  1  0
  8 32  1  0
  8 33  1  0
 11 34  1  0
 12 35  1  0
 13 36  1  0
 13 37  1  0
 14 38  1  0
 15 39  1  0
 15 40  1  0
 16 41  1  0
 19 42  1  0
 19 43  1  0
 21 44  1  0
 22 45  1  0
 24 46  1  0
M  END
>  <Energy>  (1033) 
864.21090575102335

>  <compound_id>  (1033) 
8147

>  <target_id>  (1033) 
1

>  <reference_id>  (1033) 
122

>  <inspiration_ids>  (1033) 
[101, 122]

>  <energy_score>  (1033) 
813.6256146809536

>  <distance_score>  (1033) 
11.42173872302161

>  <path>  (1033) 
/opt/xchem-fragalysis-2/maxwin/BulkDock/SCRATCH/511013/C8147-P122/C8147-P122.minimised.mol

>  <scratch_subdir>  (1033) 
/opt/xchem-fragalysis-2/maxwin/BulkDock/SCRATCH/511013/C8147-P122

>  <fragmenstein_runtime>  (1033) 
45.02563285827637

>  <fragmenstein_outcome>  (1033) 
too moved

>  <fragmenstein_mode>  (1033) 
expansion

>  <fragmenstein_error>  (1033) 


$$$$
C8148-P101
     RDKit          3D

 45 46  0  0  0  0  0  0  0  0999 V2000
   -1.6730  -12.0910   20.2932 C   0  0  0  0  0  0  0  0  0  0  0  0
   -1.1275  -11.6180   21.8522 C   0  0  0  0  0  0  0  0  0  0  0  0
   -2.7581  -10.7281   21.4799 C   0  0  0  0  0  0  0  0  0  0  0  0
   -0.4514  -13.3642   23.0183 C   0  0  0  0  0  0  0  0  0  0  0  0
   -1.0735  -13.9140   24.7860 N   0  0  0  0  0  0  0  0  0  0  0  0
   -2.1399  -14.9864   25.2317 C   0  0  0  0  0  0  0  0  0  0  0  0
   -2.8879  -15.6568   24.5688 O   0  0  0  0  0  0  0  0  0  0  0  0
   -2.1142  -15.3805   27.1779 C   0  0  0  0  0  0  0  0  0  0  0  0
   -2.2022  -17.0643   27.6524 C   0  0  0  0  0  0  0  0  0  0  0  0
   -3.3436  -17.6339   28.4873 C   0  0  0  0  0  0  0  0  0  0  0  0
   -3.3230  -18.8051   29.2303 C   0  0  0  0  0  0  0  0  0  0  0  0
   -4.6149  -19.0250   29.6178 N   0  0  0  0  0  0  0  0  0  0  0  0
   -5.3715  -18.0190   29.1059 C   0  0  0  0  0  0  0  0  0  0  0  0
   -4.6318  -17.1616   28.4524 N   0  0  0  0  0  0  0  0  0  0  0  0
   -0.7716  -10.0917   21.7822 N   0  0  0  0  0  0  0  0  0  0  0  0
    0.3441   -9.4473   21.3325 C   0  0  0  0  0  0  0  0  0  0  0  0
    1.3552   -9.8572   20.9646 O   0  0  0  0  0  0  0  0  0  0  0  0
    0.3007   -8.0529   21.1544 C   0  0  0  0  0  0  0  0  0  0  0  0
    0.9771   -7.5080   19.5205 C   0  0  0  0  0  0  0  0  0  0  0  0
    1.5468   -6.2649   19.1491 C   0  0  0  0  0  0  0  0  0  0  0  0
    1.9728   -6.4068   17.8214 C   0  0  0  0  0  0  0  0  0  0  0  0
    1.7153   -7.6270   17.3582 N   0  0  0  0  0  0  0  0  0  0  0  0
    1.1399   -8.2648   18.4050 N   0  0  0  0  0  0  0  0  0  0  0  0
   -0.9613  -11.9559   19.5281 H   0  0  0  0  0  0  0  0  0  0  0  0
   -2.0512  -13.0875   20.4095 H   0  0  0  0  0  0  0  0  0  0  0  0
   -2.4403  -11.5952   19.6764 H   0  0  0  0  0  0  0  0  0  0  0  0
   -3.5639  -11.2613   20.9602 H   0  0  0  0  0  0  0  0  0  0  0  0
   -2.5646   -9.9633   20.6831 H   0  0  0  0  0  0  0  0  0  0  0  0
   -3.1906  -10.0579   22.2437 H   0  0  0  0  0  0  0  0  0  0  0  0
    0.4012  -13.8796   23.4885 H   0  0  0  0  0  0  0  0  0  0  0  0
   -0.6270  -14.3338   22.4710 H   0  0  0  0  0  0  0  0  0  0  0  0
   -0.6739  -13.4730   25.6025 H   0  0  0  0  0  0  0  0  0  0  0  0
   -1.2449  -14.9199   27.6310 H   0  0  0  0  0  0  0  0  0  0  0  0
   -2.6936  -15.1470   28.0122 H   0  0  0  0  0  0  0  0  0  0  0  0
   -1.3065  -17.2216   28.2711 H   0  0  0  0  0  0  0  0  0  0  0  0
   -2.0955  -17.7205   26.7837 H   0  0  0  0  0  0  0  0  0  0  0  0
   -2.5339  -19.5072   29.4532 H   0  0  0  0  0  0  0  0  0  0  0  0
   -4.9898  -19.8291   30.1087 H   0  0  0  0  0  0  0  0  0  0  0  0
   -6.4411  -17.9637   29.2295 H   0  0  0  0  0  0  0  0  0  0  0  0
   -1.4421   -9.4025   22.1022 H   0  0  0  0  0  0  0  0  0  0  0  0
    0.7139   -7.4822   21.9735 H   0  0  0  0  0  0  0  0  0  0  0  0
   -0.7828   -7.9923   21.0696 H   0  0  0  0  0  0  0  0  0  0  0  0
    1.6530   -5.3938   19.7818 H   0  0  0  0  0  0  0  0  0  0  0  0
    2.4583   -5.6842   17.1798 H   0  0  0  0  0  0  0  0  0  0  0  0
    0.9300   -9.2478   18.3390 H   0  0  0  0  0  0  0  0  0  0  0  0
  1  2  1  0
  2  3  1  0
  2  4  1  0
  4  5  1  0
  5  6  1  0
  6  7  2  0
  6  8  1  0
  8  9  1  0
  9 10  1  0
 10 11  2  0
 11 12  1  0
 12 13  1  0
 13 14  2  0
  2 15  1  0
 15 16  1  0
 16 17  2  0
 16 18  1  0
 18 19  1  0
 19 20  2  0
 20 21  1  0
 21 22  2  0
 22 23  1  0
 14 10  1  0
 23 19  1  0
  1 24  1  0
  1 25  1  0
  1 26  1  0
  3 27  1  0
  3 28  1  0
  3 29  1  0
  4 30  1  0
  4 31  1  0
  5 32  1  0
  8 33  1  0
  8 34  1  0
  9 35  1  0
  9 36  1  0
 11 37  1  0
 12 38  1  0
 13 39  1  0
 15 40  1  0
 18 41  1  0
 18 42  1  0
 20 43  1  0
 21 44  1  0
 23 45  1  0
M  END
>  <Energy>  (1034) 
577.2233391644038

>  <compound_id>  (1034) 
8148

>  <target_id>  (1034) 
1

>  <reference_id>  (1034) 
101

>  <inspiration_ids>  (1034) 
[101, 122]

>  <energy_score>  (1034) 
532.958407223229

>  <distance_score>  (1034) 
11.964911551456971

>  <path>  (1034) 
/opt/xchem-fragalysis-2/maxwin/BulkDock/SCRATCH/511013/C8148-P101/C8148-P101.minimised.mol

>  <scratch_subdir>  (1034) 
/opt/xchem-fragalysis-2/maxwin/BulkDock/SCRATCH/511013/C8148-P101

>  <fragmenstein_runtime>  (1034) 
29.336662769317627

>  <fragmenstein_outcome>  (1034) 
too moved

>  <fragmenstein_mode>  (1034) 
expansion

>  <fragmenstein_error>  (1034) 


$$$$
C8148-P122
     RDKit          3D

 45 46  0  0  0  0  0  0  0  0999 V2000
   -0.0689  -10.6966   22.1958 C   0  0  0  0  0  0  0  0  0  0  0  0
   -0.1994  -12.5507   22.6794 C   0  0  0  0  0  0  0  0  0  0  0  0
    1.6432  -12.0524   23.5257 C   0  0  0  0  0  0  0  0  0  0  0  0
   -0.7847  -14.2774   23.7991 C   0  0  0  0  0  0  0  0  0  0  0  0
   -2.0228  -14.9048   25.2741 N   0  0  0  0  0  0  0  0  0  0  0  0
   -2.4868  -16.6567   25.8729 C   0  0  0  0  0  0  0  0  0  0  0  0
   -2.1515  -17.6979   25.3424 O   0  0  0  0  0  0  0  0  0  0  0  0
   -3.3417  -17.0211   27.4760 C   0  0  0  0  0  0  0  0  0  0  0  0
   -2.6911  -18.2928   28.2275 C   0  0  0  0  0  0  0  0  0  0  0  0
   -3.0850  -19.7244   27.9389 C   0  0  0  0  0  0  0  0  0  0  0  0
   -4.3175  -20.2779   27.6709 C   0  0  0  0  0  0  0  0  0  0  0  0
   -4.0940  -21.5815   27.3397 N   0  0  0  0  0  0  0  0  0  0  0  0
   -2.7681  -21.8191   27.5328 C   0  0  0  0  0  0  0  0  0  0  0  0
   -2.1335  -20.7294   27.9087 N   0  0  0  0  0  0  0  0  0  0  0  0
   -1.4240  -12.0533   21.1727 N   0  0  0  0  0  0  0  0  0  0  0  0
   -2.2859  -10.8301   20.9544 C   0  0  0  0  0  0  0  0  0  0  0  0
   -2.5134   -9.8918   21.6786 O   0  0  0  0  0  0  0  0  0  0  0  0
   -2.7967  -10.8951   19.4997 C   0  0  0  0  0  0  0  0  0  0  0  0
   -2.3391   -9.6545   18.6795 C   0  0  0  0  0  0  0  0  0  0  0  0
   -1.3677   -8.6865   18.8751 C   0  0  0  0  0  0  0  0  0  0  0  0
   -1.2252   -7.9765   17.6688 C   0  0  0  0  0  0  0  0  0  0  0  0
   -2.0941   -8.4164   16.7591 N   0  0  0  0  0  0  0  0  0  0  0  0
   -2.8282   -9.3164   17.4458 N   0  0  0  0  0  0  0  0  0  0  0  0
    0.8495  -10.4935   21.7115 H   0  0  0  0  0  0  0  0  0  0  0  0
   -0.4032  -10.3734   21.2184 H   0  0  0  0  0  0  0  0  0  0  0  0
   -0.4769   -9.8588   22.7013 H   0  0  0  0  0  0  0  0  0  0  0  0
    1.6756  -11.7703   24.5609 H   0  0  0  0  0  0  0  0  0  0  0  0
    2.5195  -11.8852   22.9074 H   0  0  0  0  0  0  0  0  0  0  0  0
    2.1049  -13.0171   23.9393 H   0  0  0  0  0  0  0  0  0  0  0  0
   -1.0593  -14.8966   22.9704 H   0  0  0  0  0  0  0  0  0  0  0  0
    0.1566  -14.3741   24.3235 H   0  0  0  0  0  0  0  0  0  0  0  0
   -2.3534  -14.2250   25.9291 H   0  0  0  0  0  0  0  0  0  0  0  0
   -4.4225  -17.1088   27.5837 H   0  0  0  0  0  0  0  0  0  0  0  0
   -2.9372  -16.2398   28.1387 H   0  0  0  0  0  0  0  0  0  0  0  0
   -1.6050  -18.2188   28.0819 H   0  0  0  0  0  0  0  0  0  0  0  0
   -2.8674  -18.1421   29.3016 H   0  0  0  0  0  0  0  0  0  0  0  0
   -5.2771  -19.7976   27.5655 H   0  0  0  0  0  0  0  0  0  0  0  0
   -4.7718  -22.2492   27.0004 H   0  0  0  0  0  0  0  0  0  0  0  0
   -2.3164  -22.7873   27.3660 H   0  0  0  0  0  0  0  0  0  0  0  0
   -1.5278  -12.6702   20.3961 H   0  0  0  0  0  0  0  0  0  0  0  0
   -3.8429  -11.1402   19.5292 H   0  0  0  0  0  0  0  0  0  0  0  0
   -2.3366  -11.7324   18.9620 H   0  0  0  0  0  0  0  0  0  0  0  0
   -0.7610   -8.5831   19.7643 H   0  0  0  0  0  0  0  0  0  0  0  0
   -0.5242   -7.1916   17.4189 H   0  0  0  0  0  0  0  0  0  0  0  0
   -3.6262   -9.7217   16.9702 H   0  0  0  0  0  0  0  0  0  0  0  0
  1  2  1  0
  2  3  1  0
  2  4  1  0
  4  5  1  0
  5  6  1  0
  6  7  2  0
  6  8  1  0
  8  9  1  0
  9 10  1  0
 10 11  2  0
 11 12  1  0
 12 13  1  0
 13 14  2  0
  2 15  1  0
 15 16  1  0
 16 17  2  0
 16 18  1  0
 18 19  1  0
 19 20  2  0
 20 21  1  0
 21 22  2  0
 22 23  1  0
 14 10  1  0
 23 19  1  0
  1 24  1  0
  1 25  1  0
  1 26  1  0
  3 27  1  0
  3 28  1  0
  3 29  1  0
  4 30  1  0
  4 31  1  0
  5 32  1  0
  8 33  1  0
  8 34  1  0
  9 35  1  0
  9 36  1  0
 11 37  1  0
 12 38  1  0
 13 39  1  0
 15 40  1  0
 18 41  1  0
 18 42  1  0
 20 43  1  0
 21 44  1  0
 23 45  1  0
M  END
>  <Energy>  (1035) 
722.78738621806622

>  <compound_id>  (1035) 
8148

>  <target_id>  (1035) 
1

>  <reference_id>  (1035) 
122

>  <inspiration_ids>  (1035) 
[101, 122]

>  <energy_score>  (1035) 
678.5224542768804

>  <distance_score>  (1035) 
13.306048996885865

>  <path>  (1035) 
/opt/xchem-fragalysis-2/maxwin/BulkDock/SCRATCH/511013/C8148-P122/C8148-P122.minimised.mol

>  <scratch_subdir>  (1035) 
/opt/xchem-fragalysis-2/maxwin/BulkDock/SCRATCH/511013/C8148-P122

>  <fragmenstein_runtime>  (1035) 
29.594316720962524

>  <fragmenstein_outcome>  (1035) 
too moved

>  <fragmenstein_mode>  (1035) 
expansion

>  <fragmenstein_error>  (1035) 


$$$$
C8149-P101
     RDKit          3D

 42 43  0  0  0  0  0  0  0  0999 V2000
    2.6702   -9.0279   23.0153 C   0  0  0  0  0  0  0  0  0  0  0  0
    2.4560   -8.3961   24.7852 N   0  0  0  0  0  0  0  0  0  0  0  0
    2.2087  -10.6126   25.7080 C   0  0  0  0  0  0  0  0  0  0  0  0
    0.8801  -12.3447   26.0960 C   0  0  0  0  0  0  0  0  0  0  0  0
    1.8240  -13.0674   24.5521 C   0  0  0  0  0  0  0  0  0  0  0  0
   -1.0161  -13.2660   25.6120 C   0  0  0  0  0  0  0  0  0  0  0  0
    0.5762  -14.0963   26.7309 N   0  0  0  0  0  0  0  0  0  0  0  0
   -0.9639  -14.9291   27.6603 C   0  0  0  0  0  0  0  0  0  0  0  0
   -1.9497  -14.4446   28.0831 O   0  0  0  0  0  0  0  0  0  0  0  0
   -1.0938  -16.8515   27.8064 C   0  0  0  0  0  0  0  0  0  0  0  0
   -2.1158  -17.5590   27.1223 C   0  0  0  0  0  0  0  0  0  0  0  0
   -1.7229  -18.7507   26.5106 N   0  0  0  0  0  0  0  0  0  0  0  0
   -0.4801  -18.9488   26.8470 C   0  0  0  0  0  0  0  0  0  0  0  0
   -0.0109  -17.9152   27.6208 N   0  0  0  0  0  0  0  0  0  0  0  0
    4.1291   -7.3583   25.2117 C   0  0  0  0  0  0  0  0  0  0  0  0
    5.1152   -7.6958   25.7366 O   0  0  0  0  0  0  0  0  0  0  0  0
    4.1944   -5.9433   25.0084 C   0  0  0  0  0  0  0  0  0  0  0  0
    5.8422   -5.4827   24.9408 C   0  0  0  0  0  0  0  0  0  0  0  0
    6.5571   -4.3888   25.4010 C   0  0  0  0  0  0  0  0  0  0  0  0
    7.8565   -4.5478   24.8641 C   0  0  0  0  0  0  0  0  0  0  0  0
    7.9835   -5.6606   24.1388 N   0  0  0  0  0  0  0  0  0  0  0  0
    6.7788   -6.2608   24.2719 N   0  0  0  0  0  0  0  0  0  0  0  0
    3.2183  -10.1205   23.0165 H   0  0  0  0  0  0  0  0  0  0  0  0
    1.8491   -8.5838   22.3755 H   0  0  0  0  0  0  0  0  0  0  0  0
    3.4622   -8.2974   22.8357 H   0  0  0  0  0  0  0  0  0  0  0  0
    2.2996  -10.4538   26.9167 H   0  0  0  0  0  0  0  0  0  0  0  0
    2.3681  -11.3694   24.8186 H   0  0  0  0  0  0  0  0  0  0  0  0
    1.9129  -12.3330   23.7381 H   0  0  0  0  0  0  0  0  0  0  0  0
    1.1296  -13.8240   24.1315 H   0  0  0  0  0  0  0  0  0  0  0  0
    2.8562  -13.4472   24.6127 H   0  0  0  0  0  0  0  0  0  0  0  0
   -1.7423  -14.1182   25.8571 H   0  0  0  0  0  0  0  0  0  0  0  0
   -0.8884  -13.9260   24.6626 H   0  0  0  0  0  0  0  0  0  0  0  0
   -1.9092  -12.5502   25.5974 H   0  0  0  0  0  0  0  0  0  0  0  0
    1.2649  -14.7091   26.5708 H   0  0  0  0  0  0  0  0  0  0  0  0
   -3.0985  -17.1590   27.0707 H   0  0  0  0  0  0  0  0  0  0  0  0
    0.1397  -19.7888   26.5628 H   0  0  0  0  0  0  0  0  0  0  0  0
    0.9474  -17.7657   27.9005 H   0  0  0  0  0  0  0  0  0  0  0  0
    4.4073   -5.7887   26.1190 H   0  0  0  0  0  0  0  0  0  0  0  0
    3.4139   -5.2686   25.4381 H   0  0  0  0  0  0  0  0  0  0  0  0
    6.1807   -3.5680   25.9932 H   0  0  0  0  0  0  0  0  0  0  0  0
    8.7105   -3.8917   24.9704 H   0  0  0  0  0  0  0  0  0  0  0  0
    6.6219   -7.1763   23.8523 H   0  0  0  0  0  0  0  0  0  0  0  0
  1  2  1  0
  2  3  1  0
  3  4  1  0
  4  5  1  0
  4  6  1  0
  4  7  1  0
  7  8  1  0
  8  9  2  0
  8 10  1  0
 10 11  2  0
 11 12  1  0
 12 13  2  0
 13 14  1  0
  2 15  1  0
 15 16  2  0
 15 17  1  0
 17 18  1  0
 18 19  2  0
 19 20  1  0
 20 21  2  0
 21 22  1  0
 14 10  1  0
 22 18  1  0
  1 23  1  0
  1 24  1  0
  1 25  1  0
  3 26  1  0
  3 27  1  0
  5 28  1  0
  5 29  1  0
  5 30  1  0
  6 31  1  0
  6 32  1  0
  6 33  1  0
  7 34  1  0
 11 35  1  0
 13 36  1  0
 14 37  1  0
 17 38  1  0
 17 39  1  0
 19 40  1  0
 20 41  1  0
 22 42  1  0
M  END
>  <Energy>  (1036) 
1486.4337029747328

>  <compound_id>  (1036) 
8149

>  <target_id>  (1036) 
1

>  <reference_id>  (1036) 
101

>  <inspiration_ids>  (1036) 
[101, 122]

>  <energy_score>  (1036) 
1450.029675595736

>  <distance_score>  (1036) 
12.603314076883592

>  <path>  (1036) 
/opt/xchem-fragalysis-2/maxwin/BulkDock/SCRATCH/511013/C8149-P101/C8149-P101.minimised.mol

>  <scratch_subdir>  (1036) 
/opt/xchem-fragalysis-2/maxwin/BulkDock/SCRATCH/511013/C8149-P101

>  <fragmenstein_runtime>  (1036) 
19.218010663986206

>  <fragmenstein_outcome>  (1036) 
too moved

>  <fragmenstein_mode>  (1036) 
expansion

>  <fragmenstein_error>  (1036) 


$$$$
C8149-P122
     RDKit          3D

 42 43  0  0  0  0  0  0  0  0999 V2000
    1.6530  -13.0117   25.6524 C   0  0  0  0  0  0  0  0  0  0  0  0
    2.0448  -13.5143   27.0613 N   0  0  0  0  0  0  0  0  0  0  0  0
    0.1058  -13.7738   26.9326 C   0  0  0  0  0  0  0  0  0  0  0  0
   -1.7705  -14.7557   26.5914 C   0  0  0  0  0  0  0  0  0  0  0  0
   -2.6286  -13.3169   25.7936 C   0  0  0  0  0  0  0  0  0  0  0  0
   -2.1689  -15.3310   24.9159 C   0  0  0  0  0  0  0  0  0  0  0  0
   -2.3116  -16.5552   27.1637 N   0  0  0  0  0  0  0  0  0  0  0  0
   -1.7318  -18.1428   26.6705 C   0  0  0  0  0  0  0  0  0  0  0  0
   -0.8108  -18.3322   25.9346 O   0  0  0  0  0  0  0  0  0  0  0  0
   -2.4240  -19.5359   27.0168 C   0  0  0  0  0  0  0  0  0  0  0  0
   -1.8052  -20.7683   26.7228 C   0  0  0  0  0  0  0  0  0  0  0  0
   -2.6059  -21.8698   26.9199 N   0  0  0  0  0  0  0  0  0  0  0  0
   -3.7539  -21.3726   27.2853 C   0  0  0  0  0  0  0  0  0  0  0  0
   -3.6835  -20.0200   27.4239 N   0  0  0  0  0  0  0  0  0  0  0  0
    3.0417  -12.4073   28.3245 C   0  0  0  0  0  0  0  0  0  0  0  0
    2.6315  -11.6045   29.2077 O   0  0  0  0  0  0  0  0  0  0  0  0
    4.9162  -12.4633   28.3311 C   0  0  0  0  0  0  0  0  0  0  0  0
    5.7380  -11.1805   27.9232 C   0  0  0  0  0  0  0  0  0  0  0  0
    6.8244  -11.0295   27.0642 C   0  0  0  0  0  0  0  0  0  0  0  0
    7.0631   -9.6410   26.9926 C   0  0  0  0  0  0  0  0  0  0  0  0
    6.2270   -8.9620   27.7812 N   0  0  0  0  0  0  0  0  0  0  0  0
    5.5256   -9.9210   28.4195 N   0  0  0  0  0  0  0  0  0  0  0  0
    1.0047  -13.7274   25.1958 H   0  0  0  0  0  0  0  0  0  0  0  0
    1.2231  -12.0394   25.8789 H   0  0  0  0  0  0  0  0  0  0  0  0
    2.3499  -13.0062   24.7735 H   0  0  0  0  0  0  0  0  0  0  0  0
   -0.3294  -14.4869   27.7844 H   0  0  0  0  0  0  0  0  0  0  0  0
    0.9378  -14.5593   26.6364 H   0  0  0  0  0  0  0  0  0  0  0  0
   -1.6721  -13.1984   25.3305 H   0  0  0  0  0  0  0  0  0  0  0  0
   -2.5207  -12.2195   25.6848 H   0  0  0  0  0  0  0  0  0  0  0  0
   -3.2171  -12.9203   26.6307 H   0  0  0  0  0  0  0  0  0  0  0  0
   -2.4241  -16.3776   25.0065 H   0  0  0  0  0  0  0  0  0  0  0  0
   -1.3246  -15.1180   24.2820 H   0  0  0  0  0  0  0  0  0  0  0  0
   -3.0929  -15.1960   24.3707 H   0  0  0  0  0  0  0  0  0  0  0  0
   -3.1502  -16.6666   27.7209 H   0  0  0  0  0  0  0  0  0  0  0  0
   -0.7959  -20.8892   26.3453 H   0  0  0  0  0  0  0  0  0  0  0  0
   -4.6613  -21.9350   27.4386 H   0  0  0  0  0  0  0  0  0  0  0  0
   -4.4758  -19.4051   27.5237 H   0  0  0  0  0  0  0  0  0  0  0  0
    5.1782  -13.2381   27.6366 H   0  0  0  0  0  0  0  0  0  0  0  0
    5.1904  -12.6362   29.3735 H   0  0  0  0  0  0  0  0  0  0  0  0
    7.3293  -11.8121   26.5152 H   0  0  0  0  0  0  0  0  0  0  0  0
    7.7868   -9.1031   26.3928 H   0  0  0  0  0  0  0  0  0  0  0  0
    4.8855   -9.6416   29.1582 H   0  0  0  0  0  0  0  0  0  0  0  0
  1  2  1  0
  2  3  1  0
  3  4  1  0
  4  5  1  0
  4  6  1  0
  4  7  1  0
  7  8  1  0
  8  9  2  0
  8 10  1  0
 10 11  2  0
 11 12  1  0
 12 13  2  0
 13 14  1  0
  2 15  1  0
 15 16  2  0
 15 17  1  0
 17 18  1  0
 18 19  2  0
 19 20  1  0
 20 21  2  0
 21 22  1  0
 14 10  1  0
 22 18  1  0
  1 23  1  0
  1 24  1  0
  1 25  1  0
  3 26  1  0
  3 27  1  0
  5 28  1  0
  5 29  1  0
  5 30  1  0
  6 31  1  0
  6 32  1  0
  6 33  1  0
  7 34  1  0
 11 35  1  0
 13 36  1  0
 14 37  1  0
 17 38  1  0
 17 39  1  0
 19 40  1  0
 20 41  1  0
 22 42  1  0
M  END
>  <Energy>  (1037) 
841.87215291737357

>  <compound_id>  (1037) 
8149

>  <target_id>  (1037) 
1

>  <reference_id>  (1037) 
122

>  <inspiration_ids>  (1037) 
[101, 122]

>  <energy_score>  (1037) 
805.4681255383197

>  <distance_score>  (1037) 
13.468631295308592

>  <path>  (1037) 
/opt/xchem-fragalysis-2/maxwin/BulkDock/SCRATCH/511013/C8149-P122/C8149-P122.minimised.mol

>  <scratch_subdir>  (1037) 
/opt/xchem-fragalysis-2/maxwin/BulkDock/SCRATCH/511013/C8149-P122

>  <fragmenstein_runtime>  (1037) 
20.71111536026001

>  <fragmenstein_outcome>  (1037) 
too moved

>  <fragmenstein_mode>  (1037) 
expansion

>  <fragmenstein_error>  (1037) 


$$$$
C8150-P101
     RDKit          3D

 39 41  0  0  0  0  0  0  0  0999 V2000
   -6.1618  -18.6304   21.5155 O   0  0  0  0  0  0  0  0  0  0  0  0
   -5.7359  -17.9338   22.4192 C   0  0  0  0  0  0  0  0  0  0  0  0
   -4.2999  -16.6189   21.9852 N   0  0  0  0  0  0  0  0  0  0  0  0
   -3.3257  -16.3103   20.4309 C   0  0  0  0  0  0  0  0  0  0  0  0
   -2.2143  -14.7132   20.3319 C   0  0  0  0  0  0  0  0  0  0  0  0
   -2.1776  -12.8386   20.0190 N   0  0  0  0  0  0  0  0  0  0  0  0
   -2.0639  -11.6632   20.7015 C   0  0  0  0  0  0  0  0  0  0  0  0
   -2.1531  -10.5608   19.9025 C   0  0  0  0  0  0  0  0  0  0  0  0
   -1.4855   -9.2997   20.5879 C   0  0  0  0  0  0  0  0  0  0  0  0
   -1.5982   -8.9298   21.9054 C   0  0  0  0  0  0  0  0  0  0  0  0
   -0.3531   -8.3715   22.2398 C   0  0  0  0  0  0  0  0  0  0  0  0
    0.4230   -8.2230   21.1824 N   0  0  0  0  0  0  0  0  0  0  0  0
   -0.3262   -8.6946   20.1785 N   0  0  0  0  0  0  0  0  0  0  0  0
   -2.2421  -11.0180   18.6334 N   0  0  0  0  0  0  0  0  0  0  0  0
   -2.2246  -12.3650   18.6627 N   0  0  0  0  0  0  0  0  0  0  0  0
   -6.6096  -18.5537   24.2449 C   0  0  0  0  0  0  0  0  0  0  0  0
   -7.8348  -17.6440   23.9414 O   0  0  0  0  0  0  0  0  0  0  0  0
   -6.6525  -19.3138   26.3037 C   0  0  0  0  0  0  0  0  0  0  0  0
   -7.7329  -20.7106   27.4540 C   0  0  0  0  0  0  0  0  0  0  0  0
   -9.4496  -20.6524   27.7765 C   0  0  0  0  0  0  0  0  0  0  0  0
  -10.0147  -21.9243   28.3696 N   0  0  0  0  0  0  0  0  0  0  0  0
   -8.8178  -22.9869   28.0917 C   0  0  0  0  0  0  0  0  0  0  0  0
   -7.6121  -22.3622   27.6645 N   0  0  0  0  0  0  0  0  0  0  0  0
   -3.9759  -16.1632   22.8539 H   0  0  0  0  0  0  0  0  0  0  0  0
   -2.5080  -17.0446   20.5427 H   0  0  0  0  0  0  0  0  0  0  0  0
   -3.6384  -16.8147   19.4879 H   0  0  0  0  0  0  0  0  0  0  0  0
   -1.6847  -15.0105   19.4190 H   0  0  0  0  0  0  0  0  0  0  0  0
   -1.8463  -14.6402   21.3171 H   0  0  0  0  0  0  0  0  0  0  0  0
   -1.5454  -11.5429   21.6039 H   0  0  0  0  0  0  0  0  0  0  0  0
   -2.4342   -9.1284   22.5540 H   0  0  0  0  0  0  0  0  0  0  0  0
    0.0083   -8.0077   23.1928 H   0  0  0  0  0  0  0  0  0  0  0  0
    0.1263   -8.8732   19.2894 H   0  0  0  0  0  0  0  0  0  0  0  0
   -7.0136  -19.4262   23.6994 H   0  0  0  0  0  0  0  0  0  0  0  0
   -7.9576  -17.7215   22.9729 H   0  0  0  0  0  0  0  0  0  0  0  0
   -6.7903  -18.5761   27.1384 H   0  0  0  0  0  0  0  0  0  0  0  0
   -5.6307  -19.6878   26.5325 H   0  0  0  0  0  0  0  0  0  0  0  0
   -9.3882  -19.6784   28.4104 H   0  0  0  0  0  0  0  0  0  0  0  0
  -10.9888  -22.1878   28.3650 H   0  0  0  0  0  0  0  0  0  0  0  0
   -9.1575  -24.0036   28.2363 H   0  0  0  0  0  0  0  0  0  0  0  0
  1  2  2  0
  2  3  1  0
  3  4  1  0
  4  5  1  0
  5  6  1  0
  6  7  1  0
  7  8  2  0
  8  9  1  0
  9 10  2  0
 10 11  1  0
 11 12  2  0
 12 13  1  0
  8 14  1  0
 14 15  2  0
  2 16  1  0
 16 17  1  0
 16 18  1  0
 18 19  1  0
 19 20  2  0
 20 21  1  0
 21 22  1  0
 22 23  2  0
 15  6  1  0
 23 19  1  0
 13  9  1  0
  3 24  1  0
  4 25  1  0
  4 26  1  0
  5 27  1  0
  5 28  1  0
  7 29  1  0
 10 30  1  0
 11 31  1  0
 13 32  1  0
 16 33  1  0
 17 34  1  0
 18 35  1  0
 18 36  1  0
 20 37  1  0
 21 38  1  0
 22 39  1  0
M  END
>  <Energy>  (1038) 
918.30490323104345

>  <compound_id>  (1038) 
8150

>  <target_id>  (1038) 
1

>  <reference_id>  (1038) 
101

>  <inspiration_ids>  (1038) 
[101, 122]

>  <energy_score>  (1038) 
865.2221257175001

>  <distance_score>  (1038) 
11.825238118814736

>  <path>  (1038) 
/opt/xchem-fragalysis-2/maxwin/BulkDock/SCRATCH/511013/C8150-P101/C8150-P101.minimised.mol

>  <scratch_subdir>  (1038) 
/opt/xchem-fragalysis-2/maxwin/BulkDock/SCRATCH/511013/C8150-P101

>  <fragmenstein_runtime>  (1038) 
28.414657831192017

>  <fragmenstein_outcome>  (1038) 
too moved

>  <fragmenstein_mode>  (1038) 
expansion

>  <fragmenstein_error>  (1038) 


$$$$
C8150-P122
     RDKit          3D

 39 41  0  0  0  0  0  0  0  0999 V2000
    0.7779  -15.8746   29.5041 O   0  0  0  0  0  0  0  0  0  0  0  0
   -0.2158  -15.5149   28.8675 C   0  0  0  0  0  0  0  0  0  0  0  0
   -0.2985  -14.4408   27.4339 N   0  0  0  0  0  0  0  0  0  0  0  0
    1.2012  -13.5973   26.3141 C   0  0  0  0  0  0  0  0  0  0  0  0
    1.9950  -13.0853   24.4431 C   0  0  0  0  0  0  0  0  0  0  0  0
    3.2366  -12.7687   23.0793 N   0  0  0  0  0  0  0  0  0  0  0  0
    4.0557  -11.5009   22.3875 C   0  0  0  0  0  0  0  0  0  0  0  0
    4.9775  -11.7251   21.1948 C   0  0  0  0  0  0  0  0  0  0  0  0
    6.8534  -11.4834   21.2676 C   0  0  0  0  0  0  0  0  0  0  0  0
    7.7977  -11.1058   20.3310 C   0  0  0  0  0  0  0  0  0  0  0  0
    9.0455  -11.0041   20.9769 C   0  0  0  0  0  0  0  0  0  0  0  0
    8.9070  -11.1390   22.2910 N   0  0  0  0  0  0  0  0  0  0  0  0
    7.5812  -11.3456   22.4538 N   0  0  0  0  0  0  0  0  0  0  0  0
    4.4636  -12.8749   20.7386 N   0  0  0  0  0  0  0  0  0  0  0  0
    3.4082  -13.3006   21.5415 N   0  0  0  0  0  0  0  0  0  0  0  0
   -1.6555  -16.0782   29.1815 C   0  0  0  0  0  0  0  0  0  0  0  0
   -2.3046  -16.3956   27.9635 O   0  0  0  0  0  0  0  0  0  0  0  0
   -1.5805  -17.3325   30.1025 C   0  0  0  0  0  0  0  0  0  0  0  0
   -2.6878  -18.2977   29.8846 C   0  0  0  0  0  0  0  0  0  0  0  0
   -3.9015  -18.4113   30.5159 C   0  0  0  0  0  0  0  0  0  0  0  0
   -4.5522  -19.3760   29.8145 N   0  0  0  0  0  0  0  0  0  0  0  0
   -3.7349  -19.8244   28.8195 C   0  0  0  0  0  0  0  0  0  0  0  0
   -2.5872  -19.1944   28.8409 N   0  0  0  0  0  0  0  0  0  0  0  0
   -1.2389  -14.4111   27.0940 H   0  0  0  0  0  0  0  0  0  0  0  0
    2.1048  -13.9415   26.8186 H   0  0  0  0  0  0  0  0  0  0  0  0
    1.0888  -12.5561   26.5265 H   0  0  0  0  0  0  0  0  0  0  0  0
    1.8039  -12.0360   24.3371 H   0  0  0  0  0  0  0  0  0  0  0  0
    1.4203  -13.8421   23.9265 H   0  0  0  0  0  0  0  0  0  0  0  0
    3.5971  -10.6517   22.7805 H   0  0  0  0  0  0  0  0  0  0  0  0
    7.6346  -10.7986   19.3275 H   0  0  0  0  0  0  0  0  0  0  0  0
   10.0148  -10.7634   20.5580 H   0  0  0  0  0  0  0  0  0  0  0  0
    7.2155  -11.3794   23.3988 H   0  0  0  0  0  0  0  0  0  0  0  0
   -2.2365  -15.3075   29.6928 H   0  0  0  0  0  0  0  0  0  0  0  0
   -2.3026  -17.3687   27.8302 H   0  0  0  0  0  0  0  0  0  0  0  0
   -0.6422  -17.8722   29.9195 H   0  0  0  0  0  0  0  0  0  0  0  0
   -1.5382  -17.0115   31.1502 H   0  0  0  0  0  0  0  0  0  0  0  0
   -4.3532  -17.8895   31.3467 H   0  0  0  0  0  0  0  0  0  0  0  0
   -5.4792  -19.7345   30.0086 H   0  0  0  0  0  0  0  0  0  0  0  0
   -4.0245  -20.5891   28.1120 H   0  0  0  0  0  0  0  0  0  0  0  0
  1  2  2  0
  2  3  1  0
  3  4  1  0
  4  5  1  0
  5  6  1  0
  6  7  1  0
  7  8  2  0
  8  9  1  0
  9 10  2  0
 10 11  1  0
 11 12  2  0
 12 13  1  0
  8 14  1  0
 14 15  2  0
  2 16  1  0
 16 17  1  0
 16 18  1  0
 18 19  1  0
 19 20  2  0
 20 21  1  0
 21 22  1  0
 22 23  2  0
 15  6  1  0
 23 19  1  0
 13  9  1  0
  3 24  1  0
  4 25  1  0
  4 26  1  0
  5 27  1  0
  5 28  1  0
  7 29  1  0
 10 30  1  0
 11 31  1  0
 13 32  1  0
 16 33  1  0
 17 34  1  0
 18 35  1  0
 18 36  1  0
 20 37  1  0
 21 38  1  0
 22 39  1  0
M  END
>  <Energy>  (1039) 
570.03069615706704

>  <compound_id>  (1039) 
8150

>  <target_id>  (1039) 
1

>  <reference_id>  (1039) 
122

>  <inspiration_ids>  (1039) 
[101, 122]

>  <energy_score>  (1039) 
516.9479186435154

>  <distance_score>  (1039) 
11.43792140082449

>  <path>  (1039) 
/opt/xchem-fragalysis-2/maxwin/BulkDock/SCRATCH/511013/C8150-P122/C8150-P122.minimised.mol

>  <scratch_subdir>  (1039) 
/opt/xchem-fragalysis-2/maxwin/BulkDock/SCRATCH/511013/C8150-P122

>  <fragmenstein_runtime>  (1039) 
24.824427843093872

>  <fragmenstein_outcome>  (1039) 
too moved

>  <fragmenstein_mode>  (1039) 
expansion

>  <fragmenstein_error>  (1039) 


$$$$
C8151-P101
     RDKit          3D

 40 41  0  0  0  0  0  0  0  0999 V2000
   -5.7039  -22.6154   26.7764 C   0  0  0  0  0  0  0  0  0  0  0  0
   -4.9907  -21.3776   25.9219 N   0  0  0  0  0  0  0  0  0  0  0  0
   -4.8561  -21.1602   24.5736 C   0  0  0  0  0  0  0  0  0  0  0  0
   -3.8616  -20.4108   24.1393 N   0  0  0  0  0  0  0  0  0  0  0  0
   -3.5275  -19.6257   25.1999 C   0  0  0  0  0  0  0  0  0  0  0  0
   -2.3886  -18.0439   25.6180 C   0  0  0  0  0  0  0  0  0  0  0  0
   -1.4525  -18.3475   26.3447 O   0  0  0  0  0  0  0  0  0  0  0  0
   -2.6695  -16.3635   24.8783 N   0  0  0  0  0  0  0  0  0  0  0  0
   -1.6373  -14.8332   24.9098 C   0  0  0  0  0  0  0  0  0  0  0  0
    0.3347  -14.4225   24.3944 C   0  0  0  0  0  0  0  0  0  0  0  0
   -0.2586  -14.2346   22.9716 C   0  0  0  0  0  0  0  0  0  0  0  0
    0.5149  -15.1544   22.0008 O   0  0  0  0  0  0  0  0  0  0  0  0
    1.9759  -13.8475   23.5906 N   0  0  0  0  0  0  0  0  0  0  0  0
    2.7307  -12.3677   23.5009 C   0  0  0  0  0  0  0  0  0  0  0  0
    2.1979  -11.6455   24.0980 O   0  0  0  0  0  0  0  0  0  0  0  0
    4.2091  -11.4320   22.4890 C   0  0  0  0  0  0  0  0  0  0  0  0
    4.7968   -9.6837   22.5086 C   0  0  0  0  0  0  0  0  0  0  0  0
    4.2486   -8.4248   22.1932 C   0  0  0  0  0  0  0  0  0  0  0  0
    5.3364   -7.5413   22.0311 C   0  0  0  0  0  0  0  0  0  0  0  0
    6.5093   -8.1533   22.1811 N   0  0  0  0  0  0  0  0  0  0  0  0
    6.1746   -9.4324   22.4275 N   0  0  0  0  0  0  0  0  0  0  0  0
   -4.9073  -20.0749   26.0604 C   0  0  0  0  0  0  0  0  0  0  0  0
   -6.2546  -22.2515   27.6192 H   0  0  0  0  0  0  0  0  0  0  0  0
   -4.9815  -23.3337   27.1144 H   0  0  0  0  0  0  0  0  0  0  0  0
   -6.3177  -23.1798   26.0825 H   0  0  0  0  0  0  0  0  0  0  0  0
   -5.6429  -21.4613   23.8485 H   0  0  0  0  0  0  0  0  0  0  0  0
   -3.5351  -16.3528   24.3976 H   0  0  0  0  0  0  0  0  0  0  0  0
   -2.0894  -13.8522   25.1979 H   0  0  0  0  0  0  0  0  0  0  0  0
   -1.9015  -14.7949   26.0205 H   0  0  0  0  0  0  0  0  0  0  0  0
    0.6522  -13.8434   25.3187 H   0  0  0  0  0  0  0  0  0  0  0  0
   -1.1825  -14.7269   22.8260 H   0  0  0  0  0  0  0  0  0  0  0  0
   -0.2091  -13.2060   22.7247 H   0  0  0  0  0  0  0  0  0  0  0  0
   -0.0703  -15.9182   21.7394 H   0  0  0  0  0  0  0  0  0  0  0  0
    2.4571  -14.4584   22.9551 H   0  0  0  0  0  0  0  0  0  0  0  0
    5.1746  -11.2322   23.1117 H   0  0  0  0  0  0  0  0  0  0  0  0
    4.5625  -11.8827   21.5238 H   0  0  0  0  0  0  0  0  0  0  0  0
    3.1953   -8.2142   22.0408 H   0  0  0  0  0  0  0  0  0  0  0  0
    5.3124   -6.4876   21.7847 H   0  0  0  0  0  0  0  0  0  0  0  0
    6.9249  -10.1108   22.4984 H   0  0  0  0  0  0  0  0  0  0  0  0
   -5.4188  -19.5692   26.8833 H   0  0  0  0  0  0  0  0  0  0  0  0
  1  2  1  0
  2  3  1  0
  3  4  2  0
  4  5  1  0
  5  6  1  0
  6  7  2  0
  6  8  1  0
  8  9  1  0
  9 10  1  0
 10 11  1  0
 11 12  1  0
 10 13  1  0
 13 14  1  0
 14 15  2  0
 14 16  1  0
 16 17  1  0
 17 18  2  0
 18 19  1  0
 19 20  2  0
 20 21  1  0
  5 22  2  0
 22  2  1  0
 21 17  1  0
  1 23  1  0
  1 24  1  0
  1 25  1  0
  3 26  1  0
  8 27  1  0
  9 28  1  0
  9 29  1  0
 10 30  1  0
 11 31  1  0
 11 32  1  0
 12 33  1  0
 13 34  1  0
 16 35  1  0
 16 36  1  0
 18 37  1  0
 19 38  1  0
 21 39  1  0
 22 40  1  0
M  END
>  <Energy>  (1040) 
876.78048403944399

>  <compound_id>  (1040) 
8151

>  <target_id>  (1040) 
1

>  <reference_id>  (1040) 
101

>  <inspiration_ids>  (1040) 
[101, 122]

>  <energy_score>  (1040) 
775.3356554663042

>  <distance_score>  (1040) 
11.02683884611431

>  <path>  (1040) 
/opt/xchem-fragalysis-2/maxwin/BulkDock/SCRATCH/511013/C8151-P101/C8151-P101.minimised.mol

>  <scratch_subdir>  (1040) 
/opt/xchem-fragalysis-2/maxwin/BulkDock/SCRATCH/511013/C8151-P101

>  <fragmenstein_runtime>  (1040) 
37.42479181289673

>  <fragmenstein_outcome>  (1040) 
too moved

>  <fragmenstein_mode>  (1040) 
expansion

>  <fragmenstein_error>  (1040) 


$$$$
C8151-P122
     RDKit          3D

 40 41  0  0  0  0  0  0  0  0999 V2000
   -7.9653  -18.8483   16.8897 C   0  0  0  0  0  0  0  0  0  0  0  0
   -7.0342  -17.8237   16.4915 N   0  0  0  0  0  0  0  0  0  0  0  0
   -5.6846  -17.8498   16.6846 C   0  0  0  0  0  0  0  0  0  0  0  0
   -5.1116  -16.7460   16.2399 N   0  0  0  0  0  0  0  0  0  0  0  0
   -6.1334  -15.9619   15.6972 C   0  0  0  0  0  0  0  0  0  0  0  0
   -5.9732  -14.5667   15.1304 C   0  0  0  0  0  0  0  0  0  0  0  0
   -6.9400  -14.0589   14.6408 O   0  0  0  0  0  0  0  0  0  0  0  0
   -4.6547  -14.0413   15.3639 N   0  0  0  0  0  0  0  0  0  0  0  0
   -4.1007  -12.6807   15.1656 C   0  0  0  0  0  0  0  0  0  0  0  0
   -2.6321  -12.5408   14.6079 C   0  0  0  0  0  0  0  0  0  0  0  0
   -1.7958  -13.7660   14.9803 C   0  0  0  0  0  0  0  0  0  0  0  0
   -2.0043  -14.0489   16.3571 O   0  0  0  0  0  0  0  0  0  0  0  0
   -1.9158  -11.2844   15.0159 N   0  0  0  0  0  0  0  0  0  0  0  0
   -0.6289  -10.7289   14.5827 C   0  0  0  0  0  0  0  0  0  0  0  0
    0.1359  -11.0996   13.7357 O   0  0  0  0  0  0  0  0  0  0  0  0
   -0.2979   -9.3955   15.3620 C   0  0  0  0  0  0  0  0  0  0  0  0
    1.1859   -8.9850   15.3996 C   0  0  0  0  0  0  0  0  0  0  0  0
    2.1388   -8.7810   14.4144 C   0  0  0  0  0  0  0  0  0  0  0  0
    3.3128   -8.3826   15.0854 C   0  0  0  0  0  0  0  0  0  0  0  0
    3.1319   -8.2910   16.4021 N   0  0  0  0  0  0  0  0  0  0  0  0
    1.8432   -8.6636   16.5733 N   0  0  0  0  0  0  0  0  0  0  0  0
   -7.3356  -16.6492   15.8582 C   0  0  0  0  0  0  0  0  0  0  0  0
   -8.8880  -18.7426   16.3136 H   0  0  0  0  0  0  0  0  0  0  0  0
   -8.1691  -18.7277   17.9565 H   0  0  0  0  0  0  0  0  0  0  0  0
   -7.5193  -19.8269   16.6942 H   0  0  0  0  0  0  0  0  0  0  0  0
   -5.1708  -18.6716   17.1626 H   0  0  0  0  0  0  0  0  0  0  0  0
   -4.1090  -14.7319   15.8788 H   0  0  0  0  0  0  0  0  0  0  0  0
   -4.7909  -12.1255   14.5205 H   0  0  0  0  0  0  0  0  0  0  0  0
   -4.1525  -12.2043   16.1517 H   0  0  0  0  0  0  0  0  0  0  0  0
   -2.6710  -12.4977   13.5127 H   0  0  0  0  0  0  0  0  0  0  0  0
   -0.7257  -13.6162   14.8098 H   0  0  0  0  0  0  0  0  0  0  0  0
   -2.1153  -14.6333   14.3911 H   0  0  0  0  0  0  0  0  0  0  0  0
   -2.1109  -15.0246   16.4278 H   0  0  0  0  0  0  0  0  0  0  0  0
   -2.2510  -10.7601   15.8171 H   0  0  0  0  0  0  0  0  0  0  0  0
   -0.6691   -9.4791   16.3898 H   0  0  0  0  0  0  0  0  0  0  0  0
   -0.8600   -8.5929   14.8695 H   0  0  0  0  0  0  0  0  0  0  0  0
    2.0038   -8.9299   13.3515 H   0  0  0  0  0  0  0  0  0  0  0  0
    4.2851   -8.1626   14.6671 H   0  0  0  0  0  0  0  0  0  0  0  0
    1.4765   -8.7008   17.5230 H   0  0  0  0  0  0  0  0  0  0  0  0
   -8.3464  -16.3702   15.5927 H   0  0  0  0  0  0  0  0  0  0  0  0
  1  2  1  0
  2  3  1  0
  3  4  2  0
  4  5  1  0
  5  6  1  0
  6  7  2  0
  6  8  1  0
  8  9  1  0
  9 10  1  0
 10 11  1  0
 11 12  1  0
 10 13  1  0
 13 14  1  0
 14 15  2  0
 14 16  1  0
 16 17  1  0
 17 18  2  0
 18 19  1  0
 19 20  2  0
 20 21  1  0
  5 22  2  0
 22  2  1  0
 21 17  1  0
  1 23  1  0
  1 24  1  0
  1 25  1  0
  3 26  1  0
  8 27  1  0
  9 28  1  0
  9 29  1  0
 10 30  1  0
 11 31  1  0
 11 32  1  0
 12 33  1  0
 13 34  1  0
 16 35  1  0
 16 36  1  0
 18 37  1  0
 19 38  1  0
 21 39  1  0
 22 40  1  0
M  END
>  <Energy>  (1041) 
79.926351930581376

>  <compound_id>  (1041) 
8151

>  <target_id>  (1041) 
1

>  <reference_id>  (1041) 
122

>  <inspiration_ids>  (1041) 
[101, 122]

>  <energy_score>  (1041) 
-21.51847664255365

>  <distance_score>  (1041) 
14.809353457844658

>  <path>  (1041) 
/opt/xchem-fragalysis-2/maxwin/BulkDock/SCRATCH/511013/C8151-P122/C8151-P122.minimised.mol

>  <scratch_subdir>  (1041) 
/opt/xchem-fragalysis-2/maxwin/BulkDock/SCRATCH/511013/C8151-P122

>  <fragmenstein_runtime>  (1041) 
43.07498526573181

>  <fragmenstein_outcome>  (1041) 
too moved

>  <fragmenstein_mode>  (1041) 
expansion

>  <fragmenstein_error>  (1041) 


$$$$
C8154-P101
     RDKit          3D

 43 45  0  0  0  0  0  0  0  0999 V2000
    2.2036  -11.6052   22.7362 O   0  0  0  0  0  0  0  0  0  0  0  0
    3.0250  -12.3136   22.8713 C   0  0  0  0  0  0  0  0  0  0  0  0
    4.6470  -11.4225   22.4478 C   0  0  0  0  0  0  0  0  0  0  0  0
    6.4556  -11.2664   23.0765 C   0  0  0  0  0  0  0  0  0  0  0  0
    7.1997  -11.0635   24.2318 C   0  0  0  0  0  0  0  0  0  0  0  0
    8.5527  -10.9682   23.8046 C   0  0  0  0  0  0  0  0  0  0  0  0
    8.7039  -11.1991   22.5014 N   0  0  0  0  0  0  0  0  0  0  0  0
    7.4529  -11.4400   22.0851 N   0  0  0  0  0  0  0  0  0  0  0  0
    2.4006  -13.8112   23.5361 N   0  0  0  0  0  0  0  0  0  0  0  0
    0.6352  -14.3171   24.1606 C   0  0  0  0  0  0  0  0  0  0  0  0
   -1.3027  -15.0593   24.4723 C   0  0  0  0  0  0  0  0  0  0  0  0
   -2.3717  -16.6473   24.9799 N   0  0  0  0  0  0  0  0  0  0  0  0
   -1.9277  -18.1532   26.0088 C   0  0  0  0  0  0  0  0  0  0  0  0
   -0.8720  -18.2299   26.5707 O   0  0  0  0  0  0  0  0  0  0  0  0
   -2.8141  -19.7062   26.2019 C   0  0  0  0  0  0  0  0  0  0  0  0
   -3.3729  -20.4376   27.2854 C   0  0  0  0  0  0  0  0  0  0  0  0
   -3.9835  -21.6405   26.9502 N   0  0  0  0  0  0  0  0  0  0  0  0
   -3.8374  -21.7271   25.6640 C   0  0  0  0  0  0  0  0  0  0  0  0
   -3.1660  -20.6459   25.1788 N   0  0  0  0  0  0  0  0  0  0  0  0
    1.7597  -13.2879   25.1973 C   0  0  0  0  0  0  0  0  0  0  0  0
    3.5584  -14.1500   25.5785 C   0  0  0  0  0  0  0  0  0  0  0  0
    3.0876  -14.2168   27.0658 C   0  0  0  0  0  0  0  0  0  0  0  0
    1.5141  -13.5200   26.5572 C   0  0  0  0  0  0  0  0  0  0  0  0
    4.8354  -11.5685   21.3769 H   0  0  0  0  0  0  0  0  0  0  0  0
    4.5226  -10.4481   22.8414 H   0  0  0  0  0  0  0  0  0  0  0  0
    6.8858  -10.9280   25.2511 H   0  0  0  0  0  0  0  0  0  0  0  0
    9.4262  -10.7560   24.4084 H   0  0  0  0  0  0  0  0  0  0  0  0
    7.3003  -11.6658   21.1065 H   0  0  0  0  0  0  0  0  0  0  0  0
    3.1663  -14.4669   23.5633 H   0  0  0  0  0  0  0  0  0  0  0  0
    0.0919  -13.8197   23.3491 H   0  0  0  0  0  0  0  0  0  0  0  0
   -1.8146  -14.3460   25.1586 H   0  0  0  0  0  0  0  0  0  0  0  0
   -1.5123  -15.0606   23.4409 H   0  0  0  0  0  0  0  0  0  0  0  0
   -3.2950  -16.7311   24.6733 H   0  0  0  0  0  0  0  0  0  0  0  0
   -3.4518  -20.2020   28.3246 H   0  0  0  0  0  0  0  0  0  0  0  0
   -4.1555  -22.5470   25.0342 H   0  0  0  0  0  0  0  0  0  0  0  0
   -2.7335  -20.6592   24.2713 H   0  0  0  0  0  0  0  0  0  0  0  0
    1.7837  -12.2690   24.8110 H   0  0  0  0  0  0  0  0  0  0  0  0
    4.0226  -15.0035   25.0606 H   0  0  0  0  0  0  0  0  0  0  0  0
    4.5683  -13.6967   25.6234 H   0  0  0  0  0  0  0  0  0  0  0  0
    3.8358  -15.0314   27.2029 H   0  0  0  0  0  0  0  0  0  0  0  0
    2.6162  -14.9590   27.7656 H   0  0  0  0  0  0  0  0  0  0  0  0
    0.5689  -13.9473   26.6959 H   0  0  0  0  0  0  0  0  0  0  0  0
    1.2983  -12.4834   26.8186 H   0  0  0  0  0  0  0  0  0  0  0  0
  1  2  2  0
  2  3  1  0
  3  4  1  0
  4  5  2  0
  5  6  1  0
  6  7  2  0
  7  8  1  0
  2  9  1  0
  9 10  1  0
 10 11  1  0
 11 12  1  0
 12 13  1  0
 13 14  2  0
 13 15  1  0
 15 16  2  0
 16 17  1  0
 17 18  2  0
 18 19  1  0
 10 20  1  0
 20 21  1  0
 21 22  1  0
 22 23  1  0
  8  4  1  0
 19 15  1  0
 23 20  1  0
  3 24  1  0
  3 25  1  0
  5 26  1  0
  6 27  1  0
  8 28  1  0
  9 29  1  0
 10 30  1  0
 11 31  1  0
 11 32  1  0
 12 33  1  0
 16 34  1  0
 18 35  1  0
 19 36  1  0
 20 37  1  0
 21 38  1  0
 21 39  1  0
 22 40  1  0
 22 41  1  0
 23 42  1  0
 23 43  1  0
M  END
>  <Energy>  (1042) 
924.22632076643856

>  <compound_id>  (1042) 
8154

>  <target_id>  (1042) 
1

>  <reference_id>  (1042) 
101

>  <inspiration_ids>  (1042) 
[101, 122]

>  <energy_score>  (1042) 
879.9283908776257

>  <distance_score>  (1042) 
11.59021372057182

>  <path>  (1042) 
/opt/xchem-fragalysis-2/maxwin/BulkDock/SCRATCH/511013/C8154-P101/C8154-P101.minimised.mol

>  <scratch_subdir>  (1042) 
/opt/xchem-fragalysis-2/maxwin/BulkDock/SCRATCH/511013/C8154-P101

>  <fragmenstein_runtime>  (1042) 
27.73589539527893

>  <fragmenstein_outcome>  (1042) 
too moved

>  <fragmenstein_mode>  (1042) 
expansion

>  <fragmenstein_error>  (1042) 


$$$$
C8154-P122
     RDKit          3D

 43 45  0  0  0  0  0  0  0  0999 V2000
    3.5143  -13.1273   21.5495 O   0  0  0  0  0  0  0  0  0  0  0  0
    3.3403  -12.4146   22.5327 C   0  0  0  0  0  0  0  0  0  0  0  0
    4.7211  -11.0495   22.5962 C   0  0  0  0  0  0  0  0  0  0  0  0
    6.5225  -11.1735   23.1434 C   0  0  0  0  0  0  0  0  0  0  0  0
    7.2803  -10.9692   24.2880 C   0  0  0  0  0  0  0  0  0  0  0  0
    8.6302  -10.9402   23.8481 C   0  0  0  0  0  0  0  0  0  0  0  0
    8.7566  -11.1683   22.5416 N   0  0  0  0  0  0  0  0  0  0  0  0
    7.4938  -11.3715   22.1391 N   0  0  0  0  0  0  0  0  0  0  0  0
    2.1452  -12.6329   23.7880 N   0  0  0  0  0  0  0  0  0  0  0  0
    0.8519  -14.0842   24.1130 C   0  0  0  0  0  0  0  0  0  0  0  0
   -1.0829  -14.8079   24.5594 C   0  0  0  0  0  0  0  0  0  0  0  0
   -2.2034  -16.4288   24.9665 N   0  0  0  0  0  0  0  0  0  0  0  0
   -1.8168  -18.0055   25.9813 C   0  0  0  0  0  0  0  0  0  0  0  0
   -0.7850  -18.0840   26.5840 O   0  0  0  0  0  0  0  0  0  0  0  0
   -2.6936  -19.6015   26.0986 C   0  0  0  0  0  0  0  0  0  0  0  0
   -3.1154  -20.6195   25.1441 C   0  0  0  0  0  0  0  0  0  0  0  0
   -3.7822  -21.7114   25.6474 N   0  0  0  0  0  0  0  0  0  0  0  0
   -3.7935  -21.4817   26.9192 C   0  0  0  0  0  0  0  0  0  0  0  0
   -3.1211  -20.3329   27.2277 N   0  0  0  0  0  0  0  0  0  0  0  0
    1.8436  -13.4526   25.5942 C   0  0  0  0  0  0  0  0  0  0  0  0
    3.7232  -14.0766   25.2384 C   0  0  0  0  0  0  0  0  0  0  0  0
    3.7944  -14.5001   26.6733 C   0  0  0  0  0  0  0  0  0  0  0  0
    2.3721  -13.9964   26.8535 C   0  0  0  0  0  0  0  0  0  0  0  0
    5.0121  -11.1251   21.5494 H   0  0  0  0  0  0  0  0  0  0  0  0
    4.5313  -10.1275   23.0886 H   0  0  0  0  0  0  0  0  0  0  0  0
    6.9648  -10.7641   25.2967 H   0  0  0  0  0  0  0  0  0  0  0  0
    9.5184  -10.7544   24.4389 H   0  0  0  0  0  0  0  0  0  0  0  0
    7.3216  -11.5846   21.1601 H   0  0  0  0  0  0  0  0  0  0  0  0
    2.1800  -11.8622   24.4138 H   0  0  0  0  0  0  0  0  0  0  0  0
    1.4295  -14.7170   23.4585 H   0  0  0  0  0  0  0  0  0  0  0  0
   -1.5770  -14.0885   25.2383 H   0  0  0  0  0  0  0  0  0  0  0  0
   -1.3133  -14.9087   23.5129 H   0  0  0  0  0  0  0  0  0  0  0  0
   -3.1319  -16.4971   24.6029 H   0  0  0  0  0  0  0  0  0  0  0  0
   -2.8890  -20.6795   24.0884 H   0  0  0  0  0  0  0  0  0  0  0  0
   -4.2449  -22.1052   27.6731 H   0  0  0  0  0  0  0  0  0  0  0  0
   -3.1299  -20.0509   28.1719 H   0  0  0  0  0  0  0  0  0  0  0  0
    1.3092  -12.5659   25.9670 H   0  0  0  0  0  0  0  0  0  0  0  0
    3.9467  -14.8014   24.4471 H   0  0  0  0  0  0  0  0  0  0  0  0
    4.6634  -13.5557   25.3882 H   0  0  0  0  0  0  0  0  0  0  0  0
    4.4767  -13.8814   27.2665 H   0  0  0  0  0  0  0  0  0  0  0  0
    3.9763  -15.5259   26.9839 H   0  0  0  0  0  0  0  0  0  0  0  0
    1.4743  -14.5441   26.7695 H   0  0  0  0  0  0  0  0  0  0  0  0
    2.6218  -13.3323   27.5840 H   0  0  0  0  0  0  0  0  0  0  0  0
  1  2  2  0
  2  3  1  0
  3  4  1  0
  4  5  2  0
  5  6  1  0
  6  7  2  0
  7  8  1  0
  2  9  1  0
  9 10  1  0
 10 11  1  0
 11 12  1  0
 12 13  1  0
 13 14  2  0
 13 15  1  0
 15 16  2  0
 16 17  1  0
 17 18  2  0
 18 19  1  0
 10 20  1  0
 20 21  1  0
 21 22  1  0
 22 23  1  0
  8  4  1  0
 19 15  1  0
 23 20  1  0
  3 24  1  0
  3 25  1  0
  5 26  1  0
  6 27  1  0
  8 28  1  0
  9 29  1  0
 10 30  1  0
 11 31  1  0
 11 32  1  0
 12 33  1  0
 16 34  1  0
 18 35  1  0
 19 36  1  0
 20 37  1  0
 21 38  1  0
 21 39  1  0
 22 40  1  0
 22 41  1  0
 23 42  1  0
 23 43  1  0
M  END
>  <Energy>  (1043) 
803.50901857448162

>  <compound_id>  (1043) 
8154

>  <target_id>  (1043) 
1

>  <reference_id>  (1043) 
122

>  <inspiration_ids>  (1043) 
[101, 122]

>  <energy_score>  (1043) 
759.2110886856501

>  <distance_score>  (1043) 
11.648624925248214

>  <path>  (1043) 
/opt/xchem-fragalysis-2/maxwin/BulkDock/SCRATCH/511013/C8154-P122/C8154-P122.minimised.mol

>  <scratch_subdir>  (1043) 
/opt/xchem-fragalysis-2/maxwin/BulkDock/SCRATCH/511013/C8154-P122

>  <fragmenstein_runtime>  (1043) 
28.831741094589233

>  <fragmenstein_outcome>  (1043) 
too moved

>  <fragmenstein_mode>  (1043) 
expansion

>  <fragmenstein_error>  (1043) 


$$$$
C8155-P101
     RDKit          3D

 40 41  0  0  0  0  0  0  0  0999 V2000
    3.4017  -13.3056   21.6195 O   0  0  0  0  0  0  0  0  0  0  0  0
    3.2463  -12.6195   22.6206 C   0  0  0  0  0  0  0  0  0  0  0  0
    4.6462  -11.2322   22.6561 C   0  0  0  0  0  0  0  0  0  0  0  0
    6.3863  -11.2328   23.4681 C   0  0  0  0  0  0  0  0  0  0  0  0
    7.6543  -11.2566   22.5258 C   0  0  0  0  0  0  0  0  0  0  0  0
    7.8890  -11.6315   21.2043 C   0  0  0  0  0  0  0  0  0  0  0  0
    9.2016  -11.2041   20.9114 C   0  0  0  0  0  0  0  0  0  0  0  0
    9.7722  -10.5993   21.9534 N   0  0  0  0  0  0  0  0  0  0  0  0
    8.8578  -10.7139   22.9381 N   0  0  0  0  0  0  0  0  0  0  0  0
    1.7519  -12.8540   23.7710 N   0  0  0  0  0  0  0  0  0  0  0  0
    0.0697  -14.0590   23.6153 C   0  0  0  0  0  0  0  0  0  0  0  0
   -1.6988  -14.9763   24.3654 C   0  0  0  0  0  0  0  0  0  0  0  0
   -2.0775  -14.2905   25.5755 O   0  0  0  0  0  0  0  0  0  0  0  0
   -3.6477  -15.3166   23.7348 C   0  0  0  0  0  0  0  0  0  0  0  0
   -5.5508  -15.6637   23.7464 N   0  0  0  0  0  0  0  0  0  0  0  0
   -6.7219  -14.7556   23.4995 C   0  0  0  0  0  0  0  0  0  0  0  0
   -6.7616  -13.5760   23.2586 O   0  0  0  0  0  0  0  0  0  0  0  0
   -7.9069  -15.6301   23.5169 C   0  0  0  0  0  0  0  0  0  0  0  0
   -9.0465  -15.6271   24.3013 C   0  0  0  0  0  0  0  0  0  0  0  0
   -9.8579  -16.7126   24.0262 N   0  0  0  0  0  0  0  0  0  0  0  0
   -9.2575  -17.3532   23.0523 C   0  0  0  0  0  0  0  0  0  0  0  0
   -8.0779  -16.7525   22.7212 N   0  0  0  0  0  0  0  0  0  0  0  0
    4.9481  -11.2692   21.6086 H   0  0  0  0  0  0  0  0  0  0  0  0
    4.3295  -10.2967   23.0202 H   0  0  0  0  0  0  0  0  0  0  0  0
    6.5104  -12.0290   24.2101 H   0  0  0  0  0  0  0  0  0  0  0  0
    6.4918  -10.4078   24.1771 H   0  0  0  0  0  0  0  0  0  0  0  0
    7.1835  -12.1011   20.5287 H   0  0  0  0  0  0  0  0  0  0  0  0
    9.7477  -11.2893   19.9798 H   0  0  0  0  0  0  0  0  0  0  0  0
    9.0810  -10.3243   23.8485 H   0  0  0  0  0  0  0  0  0  0  0  0
    1.7694  -12.1421   24.4822 H   0  0  0  0  0  0  0  0  0  0  0  0
    0.5198  -14.4957   24.4303 H   0  0  0  0  0  0  0  0  0  0  0  0
   -0.0015  -14.3708   22.5852 H   0  0  0  0  0  0  0  0  0  0  0  0
   -1.6077  -15.9714   24.4837 H   0  0  0  0  0  0  0  0  0  0  0  0
   -1.9812  -13.3426   25.3917 H   0  0  0  0  0  0  0  0  0  0  0  0
   -3.9870  -14.3831   23.5404 H   0  0  0  0  0  0  0  0  0  0  0  0
   -3.6705  -15.8776   22.8647 H   0  0  0  0  0  0  0  0  0  0  0  0
   -5.8982  -16.5870   24.0034 H   0  0  0  0  0  0  0  0  0  0  0  0
   -9.3118  -14.9107   25.0699 H   0  0  0  0  0  0  0  0  0  0  0  0
   -9.6185  -18.2415   22.5494 H   0  0  0  0  0  0  0  0  0  0  0  0
   -7.4568  -17.0480   21.9806 H   0  0  0  0  0  0  0  0  0  0  0  0
  1  2  2  0
  2  3  1  0
  3  4  1  0
  4  5  1  0
  5  6  2  0
  6  7  1  0
  7  8  2  0
  8  9  1  0
  2 10  1  0
 10 11  1  0
 11 12  1  0
 12 13  1  0
 12 14  1  0
 14 15  1  0
 15 16  1  0
 16 17  2  0
 16 18  1  0
 18 19  2  0
 19 20  1  0
 20 21  2  0
 21 22  1  0
  9  5  1  0
 22 18  1  0
  3 23  1  0
  3 24  1  0
  4 25  1  0
  4 26  1  0
  6 27  1  0
  7 28  1  0
  9 29  1  0
 10 30  1  0
 11 31  1  0
 11 32  1  0
 12 33  1  0
 13 34  1  0
 14 35  1  0
 14 36  1  0
 15 37  1  0
 19 38  1  0
 21 39  1  0
 22 40  1  0
M  END
>  <Energy>  (1044) 
667.84581368201304

>  <compound_id>  (1044) 
8155

>  <target_id>  (1044) 
1

>  <reference_id>  (1044) 
101

>  <inspiration_ids>  (1044) 
[101, 122]

>  <energy_score>  (1044) 
665.6646833290466

>  <distance_score>  (1044) 
11.53134876566649

>  <path>  (1044) 
/opt/xchem-fragalysis-2/maxwin/BulkDock/SCRATCH/511013/C8155-P101/C8155-P101.minimised.mol

>  <scratch_subdir>  (1044) 
/opt/xchem-fragalysis-2/maxwin/BulkDock/SCRATCH/511013/C8155-P101

>  <fragmenstein_runtime>  (1044) 
29.93952751159668

>  <fragmenstein_outcome>  (1044) 
too moved

>  <fragmenstein_mode>  (1044) 
expansion

>  <fragmenstein_error>  (1044) 


$$$$
C8155-P122
     RDKit          3D

 40 41  0  0  0  0  0  0  0  0999 V2000
    0.7227  -10.8906   11.6118 O   0  0  0  0  0  0  0  0  0  0  0  0
    1.2258  -11.8579   12.1142 C   0  0  0  0  0  0  0  0  0  0  0  0
    2.7762  -11.7992   12.3705 C   0  0  0  0  0  0  0  0  0  0  0  0
    3.3472  -10.3446   12.2273 C   0  0  0  0  0  0  0  0  0  0  0  0
    4.8121  -10.1336   12.4977 C   0  0  0  0  0  0  0  0  0  0  0  0
    5.9072  -10.9610   12.6076 C   0  0  0  0  0  0  0  0  0  0  0  0
    6.9915  -10.1140   12.9079 C   0  0  0  0  0  0  0  0  0  0  0  0
    6.6357   -8.8314   12.9403 N   0  0  0  0  0  0  0  0  0  0  0  0
    5.3205   -8.8684   12.6651 N   0  0  0  0  0  0  0  0  0  0  0  0
    0.6504  -13.1452   12.4779 N   0  0  0  0  0  0  0  0  0  0  0  0
   -0.7470  -13.6293   12.4329 C   0  0  0  0  0  0  0  0  0  0  0  0
   -1.1625  -14.8877   13.2790 C   0  0  0  0  0  0  0  0  0  0  0  0
   -0.6554  -16.0705   12.6453 O   0  0  0  0  0  0  0  0  0  0  0  0
   -2.7276  -14.9987   13.4163 C   0  0  0  0  0  0  0  0  0  0  0  0
   -3.2969  -15.8148   14.5158 N   0  0  0  0  0  0  0  0  0  0  0  0
   -3.3964  -17.2427   14.6798 C   0  0  0  0  0  0  0  0  0  0  0  0
   -2.9733  -18.1349   14.0058 O   0  0  0  0  0  0  0  0  0  0  0  0
   -4.1674  -17.6460   15.8886 C   0  0  0  0  0  0  0  0  0  0  0  0
   -5.0885  -17.0260   16.7240 C   0  0  0  0  0  0  0  0  0  0  0  0
   -5.5568  -17.8624   17.7193 N   0  0  0  0  0  0  0  0  0  0  0  0
   -4.9566  -19.0082   17.5061 C   0  0  0  0  0  0  0  0  0  0  0  0
   -4.1280  -18.9346   16.4201 N   0  0  0  0  0  0  0  0  0  0  0  0
    3.0002  -12.1971   13.3638 H   0  0  0  0  0  0  0  0  0  0  0  0
    3.2554  -12.4533   11.6326 H   0  0  0  0  0  0  0  0  0  0  0  0
    2.7757   -9.6862   12.8944 H   0  0  0  0  0  0  0  0  0  0  0  0
    3.1445   -9.9955   11.2060 H   0  0  0  0  0  0  0  0  0  0  0  0
    5.9197  -12.0371   12.5183 H   0  0  0  0  0  0  0  0  0  0  0  0
    8.0163  -10.3935   13.1039 H   0  0  0  0  0  0  0  0  0  0  0  0
    4.8105   -7.9951   12.6138 H   0  0  0  0  0  0  0  0  0  0  0  0
    1.3514  -13.6973   12.9592 H   0  0  0  0  0  0  0  0  0  0  0  0
   -0.9510  -13.8232   11.3736 H   0  0  0  0  0  0  0  0  0  0  0  0
   -1.3579  -12.7690   12.7275 H   0  0  0  0  0  0  0  0  0  0  0  0
   -0.7023  -14.8387   14.2594 H   0  0  0  0  0  0  0  0  0  0  0  0
   -1.0675  -16.8346   13.0959 H   0  0  0  0  0  0  0  0  0  0  0  0
   -3.1532  -14.0006   13.5616 H   0  0  0  0  0  0  0  0  0  0  0  0
   -3.1327  -15.4227   12.4907 H   0  0  0  0  0  0  0  0  0  0  0  0
   -3.7032  -15.3612   15.3236 H   0  0  0  0  0  0  0  0  0  0  0  0
   -5.4597  -16.0119   16.6547 H   0  0  0  0  0  0  0  0  0  0  0  0
   -5.0758  -19.9139   18.0862 H   0  0  0  0  0  0  0  0  0  0  0  0
   -3.5630  -19.6845   16.0436 H   0  0  0  0  0  0  0  0  0  0  0  0
  1  2  2  0
  2  3  1  0
  3  4  1  0
  4  5  1  0
  5  6  2  0
  6  7  1  0
  7  8  2  0
  8  9  1  0
  2 10  1  0
 10 11  1  0
 11 12  1  0
 12 13  1  0
 12 14  1  0
 14 15  1  0
 15 16  1  0
 16 17  2  0
 16 18  1  0
 18 19  2  0
 19 20  1  0
 20 21  2  0
 21 22  1  0
  9  5  1  0
 22 18  1  0
  3 23  1  0
  3 24  1  0
  4 25  1  0
  4 26  1  0
  6 27  1  0
  7 28  1  0
  9 29  1  0
 10 30  1  0
 11 31  1  0
 11 32  1  0
 12 33  1  0
 13 34  1  0
 14 35  1  0
 14 36  1  0
 15 37  1  0
 19 38  1  0
 21 39  1  0
 22 40  1  0
M  END
>  <Energy>  (1045) 
-4.1064460189517025

>  <compound_id>  (1045) 
8155

>  <target_id>  (1045) 
1

>  <reference_id>  (1045) 
122

>  <inspiration_ids>  (1045) 
[101, 122]

>  <energy_score>  (1045) 
-6.287576371912451

>  <distance_score>  (1045) 
13.964809171167747

>  <path>  (1045) 
/opt/xchem-fragalysis-2/maxwin/BulkDock/SCRATCH/511013/C8155-P122/C8155-P122.minimised.mol

>  <scratch_subdir>  (1045) 
/opt/xchem-fragalysis-2/maxwin/BulkDock/SCRATCH/511013/C8155-P122

>  <fragmenstein_runtime>  (1045) 
60.87956237792969

>  <fragmenstein_outcome>  (1045) 
too moved

>  <fragmenstein_mode>  (1045) 
expansion

>  <fragmenstein_error>  (1045) 


$$$$
C8156-P101
     RDKit          3D

 42 43  0  0  0  0  0  0  0  0999 V2000
   -4.6198  -19.1923   17.5867 C   0  0  0  0  0  0  0  0  0  0  0  0
   -4.6493  -18.7139   19.0005 N   0  0  0  0  0  0  0  0  0  0  0  0
   -3.8724  -17.5060   18.3750 C   0  0  0  0  0  0  0  0  0  0  0  0
   -2.4725  -16.8615   19.1901 C   0  0  0  0  0  0  0  0  0  0  0  0
   -2.0901  -15.2574   19.2102 N   0  0  0  0  0  0  0  0  0  0  0  0
   -2.0606  -14.1030   17.9431 C   0  0  0  0  0  0  0  0  0  0  0  0
   -2.2316  -14.2595   16.7423 O   0  0  0  0  0  0  0  0  0  0  0  0
   -1.8848  -12.4072   18.4958 C   0  0  0  0  0  0  0  0  0  0  0  0
   -2.8550  -11.1800   18.1865 C   0  0  0  0  0  0  0  0  0  0  0  0
   -2.3404   -9.7002   18.0695 C   0  0  0  0  0  0  0  0  0  0  0  0
   -2.6017   -8.6995   17.1346 C   0  0  0  0  0  0  0  0  0  0  0  0
   -1.7947   -7.5942   17.4787 C   0  0  0  0  0  0  0  0  0  0  0  0
   -1.1221   -7.8123   18.6014 N   0  0  0  0  0  0  0  0  0  0  0  0
   -1.5236   -9.0489   18.9741 N   0  0  0  0  0  0  0  0  0  0  0  0
   -5.9994  -18.7991   19.5247 C   0  0  0  0  0  0  0  0  0  0  0  0
   -6.8864  -17.9861   19.5263 O   0  0  0  0  0  0  0  0  0  0  0  0
   -6.3703  -20.1515   20.0698 C   0  0  0  0  0  0  0  0  0  0  0  0
   -5.7671  -21.3119   19.8202 N   0  0  0  0  0  0  0  0  0  0  0  0
   -6.4825  -22.2762   20.5020 C   0  0  0  0  0  0  0  0  0  0  0  0
   -7.5280  -21.7230   21.1917 C   0  0  0  0  0  0  0  0  0  0  0  0
   -7.4641  -20.3900   20.8994 N   0  0  0  0  0  0  0  0  0  0  0  0
   -8.3857  -19.3938   21.3870 C   0  0  0  0  0  0  0  0  0  0  0  0
   -3.6345  -19.2773   17.1200 H   0  0  0  0  0  0  0  0  0  0  0  0
   -4.9860  -20.2276   17.6050 H   0  0  0  0  0  0  0  0  0  0  0  0
   -5.3598  -18.6708   16.9571 H   0  0  0  0  0  0  0  0  0  0  0  0
   -3.8513  -17.3705   17.2848 H   0  0  0  0  0  0  0  0  0  0  0  0
   -4.6357  -16.7630   18.4766 H   0  0  0  0  0  0  0  0  0  0  0  0
   -2.7341  -16.9916   20.2333 H   0  0  0  0  0  0  0  0  0  0  0  0
   -1.6112  -17.5078   19.0668 H   0  0  0  0  0  0  0  0  0  0  0  0
   -1.9937  -14.7924   20.0980 H   0  0  0  0  0  0  0  0  0  0  0  0
   -1.8663  -12.3616   19.5921 H   0  0  0  0  0  0  0  0  0  0  0  0
   -0.9476  -12.1746   18.0796 H   0  0  0  0  0  0  0  0  0  0  0  0
   -3.4748  -11.4153   17.3150 H   0  0  0  0  0  0  0  0  0  0  0  0
   -3.5818  -11.1510   19.0130 H   0  0  0  0  0  0  0  0  0  0  0  0
   -3.2705   -8.7664   16.2870 H   0  0  0  0  0  0  0  0  0  0  0  0
   -1.6908   -6.6442   16.9706 H   0  0  0  0  0  0  0  0  0  0  0  0
   -1.0397   -9.4733   19.7609 H   0  0  0  0  0  0  0  0  0  0  0  0
   -6.2054  -23.3206   20.4529 H   0  0  0  0  0  0  0  0  0  0  0  0
   -8.3006  -22.1556   21.8122 H   0  0  0  0  0  0  0  0  0  0  0  0
   -8.9738  -19.0281   20.5420 H   0  0  0  0  0  0  0  0  0  0  0  0
   -7.8076  -18.5951   21.8550 H   0  0  0  0  0  0  0  0  0  0  0  0
   -9.0570  -19.8445   22.1208 H   0  0  0  0  0  0  0  0  0  0  0  0
  1  2  1  0
  2  3  1  0
  3  4  1  0
  4  5  1  0
  5  6  1  0
  6  7  2  0
  6  8  1  0
  8  9  1  0
  9 10  1  0
 10 11  2  0
 11 12  1  0
 12 13  2  0
 13 14  1  0
  2 15  1  0
 15 16  2  0
 15 17  1  0
 17 18  2  0
 18 19  1  0
 19 20  2  0
 20 21  1  0
 21 22  1  0
 14 10  1  0
 21 17  1  0
  1 23  1  0
  1 24  1  0
  1 25  1  0
  3 26  1  0
  3 27  1  0
  4 28  1  0
  4 29  1  0
  5 30  1  0
  8 31  1  0
  8 32  1  0
  9 33  1  0
  9 34  1  0
 11 35  1  0
 12 36  1  0
 14 37  1  0
 19 38  1  0
 20 39  1  0
 22 40  1  0
 22 41  1  0
 22 42  1  0
M  END
>  <Energy>  (1046) 
199.68125921291599

>  <compound_id>  (1046) 
8156

>  <target_id>  (1046) 
1

>  <reference_id>  (1046) 
101

>  <inspiration_ids>  (1046) 
[101, 122]

>  <energy_score>  (1046) 
150.73945825150588

>  <distance_score>  (1046) 
13.462616980848184

>  <path>  (1046) 
/opt/xchem-fragalysis-2/maxwin/BulkDock/SCRATCH/511013/C8156-P101/C8156-P101.minimised.mol

>  <scratch_subdir>  (1046) 
/opt/xchem-fragalysis-2/maxwin/BulkDock/SCRATCH/511013/C8156-P101

>  <fragmenstein_runtime>  (1046) 
28.918951511383057

>  <fragmenstein_outcome>  (1046) 
too moved

>  <fragmenstein_mode>  (1046) 
expansion

>  <fragmenstein_error>  (1046) 


$$$$
C8156-P122
     RDKit          3D

 42 43  0  0  0  0  0  0  0  0999 V2000
   -1.5600  -21.2728   23.5749 C   0  0  0  0  0  0  0  0  0  0  0  0
   -2.3195  -20.2620   24.2493 N   0  0  0  0  0  0  0  0  0  0  0  0
   -1.4715  -19.0926   22.6726 C   0  0  0  0  0  0  0  0  0  0  0  0
   -0.5054  -17.5142   21.3644 C   0  0  0  0  0  0  0  0  0  0  0  0
    0.6995  -15.7816   21.4729 N   0  0  0  0  0  0  0  0  0  0  0  0
    2.0541  -14.9569   20.2570 C   0  0  0  0  0  0  0  0  0  0  0  0
    2.3987  -15.2699   19.0569 O   0  0  0  0  0  0  0  0  0  0  0  0
    3.2918  -13.5000   20.9164 C   0  0  0  0  0  0  0  0  0  0  0  0
    4.9709  -12.7871   20.4160 C   0  0  0  0  0  0  0  0  0  0  0  0
    5.7652  -12.5533   19.1092 C   0  0  0  0  0  0  0  0  0  0  0  0
    6.8751  -11.7208   18.9418 C   0  0  0  0  0  0  0  0  0  0  0  0
    7.2489  -11.8340   17.5977 C   0  0  0  0  0  0  0  0  0  0  0  0
    6.4917  -12.7223   16.9583 N   0  0  0  0  0  0  0  0  0  0  0  0
    5.6471  -13.1928   17.9096 N   0  0  0  0  0  0  0  0  0  0  0  0
   -4.1899  -20.9125   24.6463 C   0  0  0  0  0  0  0  0  0  0  0  0
   -5.0645  -20.7422   23.8770 O   0  0  0  0  0  0  0  0  0  0  0  0
   -4.9498  -21.7030   26.2816 C   0  0  0  0  0  0  0  0  0  0  0  0
   -4.3870  -22.8337   27.0567 N   0  0  0  0  0  0  0  0  0  0  0  0
   -4.7534  -23.5493   28.0384 C   0  0  0  0  0  0  0  0  0  0  0  0
   -5.9033  -23.0004   27.8889 C   0  0  0  0  0  0  0  0  0  0  0  0
   -6.1939  -22.7800   26.5855 N   0  0  0  0  0  0  0  0  0  0  0  0
   -7.5480  -22.5877   27.0645 C   0  0  0  0  0  0  0  0  0  0  0  0
   -0.5192  -21.0977   23.3342 H   0  0  0  0  0  0  0  0  0  0  0  0
   -1.2462  -22.0734   24.1457 H   0  0  0  0  0  0  0  0  0  0  0  0
   -2.1144  -21.4163   22.7276 H   0  0  0  0  0  0  0  0  0  0  0  0
   -0.5426  -19.2295   23.2695 H   0  0  0  0  0  0  0  0  0  0  0  0
   -1.6697  -19.9169   22.1999 H   0  0  0  0  0  0  0  0  0  0  0  0
   -1.1560  -17.3218   20.5002 H   0  0  0  0  0  0  0  0  0  0  0  0
    0.3434  -18.0801   21.0927 H   0  0  0  0  0  0  0  0  0  0  0  0
    0.6199  -15.2518   22.2794 H   0  0  0  0  0  0  0  0  0  0  0  0
    3.2922  -12.9472   21.8499 H   0  0  0  0  0  0  0  0  0  0  0  0
    3.6478  -13.4272   19.8703 H   0  0  0  0  0  0  0  0  0  0  0  0
    5.6857  -13.4230   20.8476 H   0  0  0  0  0  0  0  0  0  0  0  0
    5.0463  -11.8376   20.9328 H   0  0  0  0  0  0  0  0  0  0  0  0
    7.3441  -11.1183   19.7020 H   0  0  0  0  0  0  0  0  0  0  0  0
    8.0439  -11.3328   17.0601 H   0  0  0  0  0  0  0  0  0  0  0  0
    5.0287  -13.9617   17.6639 H   0  0  0  0  0  0  0  0  0  0  0  0
   -4.1491  -24.1022   28.7580 H   0  0  0  0  0  0  0  0  0  0  0  0
   -6.0542  -22.0183   28.2127 H   0  0  0  0  0  0  0  0  0  0  0  0
   -7.7265  -21.5369   27.2810 H   0  0  0  0  0  0  0  0  0  0  0  0
   -7.9051  -22.9553   28.0370 H   0  0  0  0  0  0  0  0  0  0  0  0
   -8.1102  -23.3207   26.5437 H   0  0  0  0  0  0  0  0  0  0  0  0
  1  2  1  0
  2  3  1  0
  3  4  1  0
  4  5  1  0
  5  6  1  0
  6  7  2  0
  6  8  1  0
  8  9  1  0
  9 10  1  0
 10 11  2  0
 11 12  1  0
 12 13  2  0
 13 14  1  0
  2 15  1  0
 15 16  2  0
 15 17  1  0
 17 18  2  0
 18 19  1  0
 19 20  2  0
 20 21  1  0
 21 22  1  0
 14 10  1  0
 21 17  1  0
  1 23  1  0
  1 24  1  0
  1 25  1  0
  3 26  1  0
  3 27  1  0
  4 28  1  0
  4 29  1  0
  5 30  1  0
  8 31  1  0
  8 32  1  0
  9 33  1  0
  9 34  1  0
 11 35  1  0
 12 36  1  0
 14 37  1  0
 19 38  1  0
 20 39  1  0
 22 40  1  0
 22 41  1  0
 22 42  1  0
M  END
>  <Energy>  (1047) 
1446.6732943268491

>  <compound_id>  (1047) 
8156

>  <target_id>  (1047) 
1

>  <reference_id>  (1047) 
122

>  <inspiration_ids>  (1047) 
[101, 122]

>  <energy_score>  (1047) 
1397.7314933654065

>  <distance_score>  (1047) 
10.049139785735818

>  <path>  (1047) 
/opt/xchem-fragalysis-2/maxwin/BulkDock/SCRATCH/511013/C8156-P122/C8156-P122.minimised.mol

>  <scratch_subdir>  (1047) 
/opt/xchem-fragalysis-2/maxwin/BulkDock/SCRATCH/511013/C8156-P122

>  <fragmenstein_runtime>  (1047) 
22.471487522125244

>  <fragmenstein_outcome>  (1047) 
too moved

>  <fragmenstein_mode>  (1047) 
expansion

>  <fragmenstein_error>  (1047) 


$$$$
C8157-P101
     RDKit          3D

 25 26  0  0  0  0  0  0  0  0999 V2000
   -4.6743  -18.5653   18.2342 O   0  0  0  0  0  0  0  0  0  0  0  0
   -3.6172  -18.7810   18.8129 C   0  0  0  0  0  0  0  0  0  0  0  0
   -3.2416  -20.0486   19.0717 O   0  0  0  0  0  0  0  0  0  0  0  0
   -2.7085  -17.7362   19.2755 C   0  0  0  0  0  0  0  0  0  0  0  0
   -2.9888  -16.4228   19.4110 C   0  0  0  0  0  0  0  0  0  0  0  0
   -1.8272  -15.6353   19.1569 N   0  0  0  0  0  0  0  0  0  0  0  0
   -1.7445  -14.3809   18.0082 C   0  0  0  0  0  0  0  0  0  0  0  0
   -0.7716  -13.1920   17.0631 C   0  0  0  0  0  0  0  0  0  0  0  0
    0.6419  -13.1950   16.3926 C   0  0  0  0  0  0  0  0  0  0  0  0
    1.9224  -13.6430   16.7093 C   0  0  0  0  0  0  0  0  0  0  0  0
    2.8185  -12.9514   15.8621 C   0  0  0  0  0  0  0  0  0  0  0  0
    2.1778  -12.1227   15.0445 N   0  0  0  0  0  0  0  0  0  0  0  0
    0.8774  -12.3390   15.3168 N   0  0  0  0  0  0  0  0  0  0  0  0
   -1.0782  -16.5195   19.9897 C   0  0  0  0  0  0  0  0  0  0  0  0
   -1.6195  -17.7397   20.0657 N   0  0  0  0  0  0  0  0  0  0  0  0
   -3.9968  -20.5849   18.7594 H   0  0  0  0  0  0  0  0  0  0  0  0
   -3.2843  -16.1243   20.4023 H   0  0  0  0  0  0  0  0  0  0  0  0
   -2.1753  -13.5428   18.5129 H   0  0  0  0  0  0  0  0  0  0  0  0
   -2.3248  -14.8015   17.1752 H   0  0  0  0  0  0  0  0  0  0  0  0
   -0.9343  -12.2368   17.5729 H   0  0  0  0  0  0  0  0  0  0  0  0
   -1.4346  -13.0843   16.1905 H   0  0  0  0  0  0  0  0  0  0  0  0
    2.2145  -14.2983   17.5162 H   0  0  0  0  0  0  0  0  0  0  0  0
    3.8998  -13.0020   15.8316 H   0  0  0  0  0  0  0  0  0  0  0  0
    0.1906  -11.8017   14.7963 H   0  0  0  0  0  0  0  0  0  0  0  0
   -0.0670  -16.3845   20.3613 H   0  0  0  0  0  0  0  0  0  0  0  0
  1  2  2  0
  2  3  1  0
  2  4  1  0
  4  5  2  0
  5  6  1  0
  6  7  1  0
  7  8  1  0
  8  9  1  0
  9 10  2  0
 10 11  1  0
 11 12  2  0
 12 13  1  0
  6 14  1  0
 14 15  2  0
 15  4  1  0
 13  9  1  0
  3 16  1  0
  5 17  1  0
  7 18  1  0
  7 19  1  0
  8 20  1  0
  8 21  1  0
 10 22  1  0
 11 23  1  0
 13 24  1  0
 14 25  1  0
M  END
>  <Energy>  (1048) 
228.24033859292638

>  <compound_id>  (1048) 
8157

>  <target_id>  (1048) 
1

>  <reference_id>  (1048) 
101

>  <inspiration_ids>  (1048) 
[101, 122]

>  <energy_score>  (1048) 
162.00288327839905

>  <distance_score>  (1048) 
15.287122456726102

>  <path>  (1048) 
/opt/xchem-fragalysis-2/maxwin/BulkDock/SCRATCH/511013/C8157-P101/C8157-P101.minimised.mol

>  <scratch_subdir>  (1048) 
/opt/xchem-fragalysis-2/maxwin/BulkDock/SCRATCH/511013/C8157-P101

>  <fragmenstein_runtime>  (1048) 
10.161387920379639

>  <fragmenstein_outcome>  (1048) 
too moved

>  <fragmenstein_mode>  (1048) 
expansion

>  <fragmenstein_error>  (1048) 


$$$$
C8157-P122
     RDKit          3D

 25 26  0  0  0  0  0  0  0  0999 V2000
   -4.2910   -6.5921   17.6501 O   0  0  0  0  0  0  0  0  0  0  0  0
   -4.0130   -7.6850   17.1773 C   0  0  0  0  0  0  0  0  0  0  0  0
   -4.9038   -8.4410   16.4800 O   0  0  0  0  0  0  0  0  0  0  0  0
   -2.7001   -8.3159   17.2360 C   0  0  0  0  0  0  0  0  0  0  0  0
   -1.5222   -7.7553   17.6781 C   0  0  0  0  0  0  0  0  0  0  0  0
   -0.5322   -8.6063   17.2655 N   0  0  0  0  0  0  0  0  0  0  0  0
    0.9108   -8.3744   17.4230 C   0  0  0  0  0  0  0  0  0  0  0  0
    1.5916   -7.1899   16.6630 C   0  0  0  0  0  0  0  0  0  0  0  0
    3.0371   -7.0007   17.0669 C   0  0  0  0  0  0  0  0  0  0  0  0
    3.6117   -6.3166   18.1214 C   0  0  0  0  0  0  0  0  0  0  0  0
    4.9906   -6.5689   18.0220 C   0  0  0  0  0  0  0  0  0  0  0  0
    5.2881   -7.3134   16.9582 N   0  0  0  0  0  0  0  0  0  0  0  0
    4.0954   -7.5361   16.3753 N   0  0  0  0  0  0  0  0  0  0  0  0
   -1.1656   -9.7402   16.7966 C   0  0  0  0  0  0  0  0  0  0  0  0
   -2.4764   -9.6043   16.7659 N   0  0  0  0  0  0  0  0  0  0  0  0
   -4.4303   -9.2707   16.2381 H   0  0  0  0  0  0  0  0  0  0  0  0
   -1.3134   -6.7939   18.1277 H   0  0  0  0  0  0  0  0  0  0  0  0
    1.0698   -8.2371   18.4998 H   0  0  0  0  0  0  0  0  0  0  0  0
    1.4135   -9.3007   17.1235 H   0  0  0  0  0  0  0  0  0  0  0  0
    1.5207   -7.3649   15.5828 H   0  0  0  0  0  0  0  0  0  0  0  0
    1.0424   -6.2630   16.8679 H   0  0  0  0  0  0  0  0  0  0  0  0
    3.0984   -5.7481   18.8849 H   0  0  0  0  0  0  0  0  0  0  0  0
    5.7821   -6.2414   18.6822 H   0  0  0  0  0  0  0  0  0  0  0  0
    4.0772   -8.0750   15.5147 H   0  0  0  0  0  0  0  0  0  0  0  0
   -0.6219  -10.6141   16.4672 H   0  0  0  0  0  0  0  0  0  0  0  0
  1  2  2  0
  2  3  1  0
  2  4  1  0
  4  5  2  0
  5  6  1  0
  6  7  1  0
  7  8  1  0
  8  9  1  0
  9 10  2  0
 10 11  1  0
 11 12  2  0
 12 13  1  0
  6 14  1  0
 14 15  2  0
 15  4  1  0
 13  9  1  0
  3 16  1  0
  5 17  1  0
  7 18  1  0
  7 19  1  0
  8 20  1  0
  8 21  1  0
 10 22  1  0
 11 23  1  0
 13 24  1  0
 14 25  1  0
M  END
>  <Energy>  (1049) 
31.128422114973951

>  <compound_id>  (1049) 
8157

>  <target_id>  (1049) 
1

>  <reference_id>  (1049) 
122

>  <inspiration_ids>  (1049) 
[101, 122]

>  <energy_score>  (1049) 
-35.1090331995469

>  <distance_score>  (1049) 
17.75639072674151

>  <path>  (1049) 
/opt/xchem-fragalysis-2/maxwin/BulkDock/SCRATCH/511013/C8157-P122/C8157-P122.minimised.mol

>  <scratch_subdir>  (1049) 
/opt/xchem-fragalysis-2/maxwin/BulkDock/SCRATCH/511013/C8157-P122

>  <fragmenstein_runtime>  (1049) 
13.439133882522583

>  <fragmenstein_outcome>  (1049) 
too moved

>  <fragmenstein_mode>  (1049) 
expansion

>  <fragmenstein_error>  (1049) 


$$$$
C8161-P101
     RDKit          3D

 40 41  0  0  0  0  0  0  0  0999 V2000
   -2.5570  -20.1771   27.8058 C   0  0  0  0  0  0  0  0  0  0  0  0
   -3.5803  -19.1014   27.5227 C   0  0  0  0  0  0  0  0  0  0  0  0
   -2.6811  -17.3407   26.6124 C   0  0  0  0  0  0  0  0  0  0  0  0
   -2.8323  -16.3820   24.7983 N   0  0  0  0  0  0  0  0  0  0  0  0
   -1.7199  -15.1889   23.8853 C   0  0  0  0  0  0  0  0  0  0  0  0
   -0.7164  -14.7079   24.3361 O   0  0  0  0  0  0  0  0  0  0  0  0
   -1.9044  -14.6266   21.8054 C   0  0  0  0  0  0  0  0  0  0  0  0
   -2.0489  -12.8927   20.6413 C   0  0  0  0  0  0  0  0  0  0  0  0
   -1.8276  -11.4436   20.8906 C   0  0  0  0  0  0  0  0  0  0  0  0
   -2.2866  -10.6086   19.8566 C   0  0  0  0  0  0  0  0  0  0  0  0
   -2.5650  -11.3262   18.7946 N   0  0  0  0  0  0  0  0  0  0  0  0
   -2.1059  -12.5349   19.1386 N   0  0  0  0  0  0  0  0  0  0  0  0
   -5.3476  -20.0854   27.5774 N   0  0  0  0  0  0  0  0  0  0  0  0
   -5.7708  -21.9545   27.5484 C   0  0  0  0  0  0  0  0  0  0  0  0
   -4.9052  -22.8086   27.3941 O   0  0  0  0  0  0  0  0  0  0  0  0
   -7.6906  -22.8475   27.8801 C   0  0  0  0  0  0  0  0  0  0  0  0
   -8.4903  -24.3933   28.5875 O   0  0  0  0  0  0  0  0  0  0  0  0
   -9.6185  -23.1359   27.8685 C   0  0  0  0  0  0  0  0  0  0  0  0
  -10.7451  -22.4955   28.4230 C   0  0  0  0  0  0  0  0  0  0  0  0
  -11.8265  -23.2834   28.1393 N   0  0  0  0  0  0  0  0  0  0  0  0
  -11.4414  -24.2682   27.2900 C   0  0  0  0  0  0  0  0  0  0  0  0
  -10.1562  -24.2076   27.0582 N   0  0  0  0  0  0  0  0  0  0  0  0
   -1.5626  -19.7443   27.9298 H   0  0  0  0  0  0  0  0  0  0  0  0
   -2.8101  -20.7152   28.7254 H   0  0  0  0  0  0  0  0  0  0  0  0
   -2.5746  -20.9081   26.9968 H   0  0  0  0  0  0  0  0  0  0  0  0
   -3.7674  -18.5889   28.4830 H   0  0  0  0  0  0  0  0  0  0  0  0
   -1.7712  -17.9275   26.3927 H   0  0  0  0  0  0  0  0  0  0  0  0
   -2.4627  -16.6391   27.4279 H   0  0  0  0  0  0  0  0  0  0  0  0
   -3.5985  -16.5571   24.2762 H   0  0  0  0  0  0  0  0  0  0  0  0
   -0.8072  -14.5819   22.1373 H   0  0  0  0  0  0  0  0  0  0  0  0
   -2.0041  -15.2942   20.8847 H   0  0  0  0  0  0  0  0  0  0  0  0
   -1.3475  -10.9680   21.7235 H   0  0  0  0  0  0  0  0  0  0  0  0
   -2.3387   -9.5288   19.8180 H   0  0  0  0  0  0  0  0  0  0  0  0
   -2.0113  -13.2004   18.3737 H   0  0  0  0  0  0  0  0  0  0  0  0
   -6.2101  -19.5494   27.6312 H   0  0  0  0  0  0  0  0  0  0  0  0
   -7.6116  -23.1431   26.8359 H   0  0  0  0  0  0  0  0  0  0  0  0
   -9.0356  -24.2987   29.3876 H   0  0  0  0  0  0  0  0  0  0  0  0
  -10.8611  -21.6082   29.0278 H   0  0  0  0  0  0  0  0  0  0  0  0
  -12.7635  -23.1297   28.4708 H   0  0  0  0  0  0  0  0  0  0  0  0
  -12.1289  -24.9908   26.8768 H   0  0  0  0  0  0  0  0  0  0  0  0
  1  2  1  0
  2  3  1  0
  3  4  1  0
  4  5  1  0
  5  6  2  0
  5  7  1  0
  7  8  1  0
  8  9  2  0
  9 10  1  0
 10 11  2  0
 11 12  1  0
  2 13  1  0
 13 14  1  0
 14 15  2  0
 14 16  1  0
 16 17  1  0
 16 18  1  0
 18 19  2  0
 19 20  1  0
 20 21  1  0
 21 22  2  0
 12  8  1  0
 22 18  1  0
  1 23  1  0
  1 24  1  0
  1 25  1  0
  2 26  1  0
  3 27  1  0
  3 28  1  0
  4 29  1  0
  7 30  1  0
  7 31  1  0
  9 32  1  0
 10 33  1  0
 12 34  1  0
 13 35  1  0
 16 36  1  0
 17 37  1  0
 19 38  1  0
 20 39  1  0
 21 40  1  0
M  END
>  <Energy>  (1050) 
1250.5545511895498

>  <compound_id>  (1050) 
8161

>  <target_id>  (1050) 
1

>  <reference_id>  (1050) 
101

>  <inspiration_ids>  (1050) 
[101, 122]

>  <energy_score>  (1050) 
1124.860618262305

>  <distance_score>  (1050) 
12.765911843148306

>  <path>  (1050) 
/opt/xchem-fragalysis-2/maxwin/BulkDock/SCRATCH/511013/C8161-P101/C8161-P101.minimised.mol

>  <scratch_subdir>  (1050) 
/opt/xchem-fragalysis-2/maxwin/BulkDock/SCRATCH/511013/C8161-P101

>  <fragmenstein_runtime>  (1050) 
26.958316802978516

>  <fragmenstein_outcome>  (1050) 
too moved

>  <fragmenstein_mode>  (1050) 
expansion

>  <fragmenstein_error>  (1050) 


$$$$
C8161-P122
     RDKit          3D

 40 41  0  0  0  0  0  0  0  0999 V2000
    3.4799  -13.7628   24.5625 C   0  0  0  0  0  0  0  0  0  0  0  0
    4.5017  -14.1296   25.8842 C   0  0  0  0  0  0  0  0  0  0  0  0
    5.9138  -12.9550   26.2567 C   0  0  0  0  0  0  0  0  0  0  0  0
    7.2184  -12.8282   25.5893 N   0  0  0  0  0  0  0  0  0  0  0  0
    7.6848  -11.8859   24.5816 C   0  0  0  0  0  0  0  0  0  0  0  0
    7.0995  -11.0318   23.9878 O   0  0  0  0  0  0  0  0  0  0  0  0
    9.2138  -11.9994   24.2941 C   0  0  0  0  0  0  0  0  0  0  0  0
    9.7122  -10.9065   23.3328 C   0  0  0  0  0  0  0  0  0  0  0  0
   10.3611   -9.7010   23.5454 C   0  0  0  0  0  0  0  0  0  0  0  0
   10.5310   -9.1271   22.2689 C   0  0  0  0  0  0  0  0  0  0  0  0
   10.0387   -9.9032   21.3016 N   0  0  0  0  0  0  0  0  0  0  0  0
    9.5419  -10.9659   21.9689 N   0  0  0  0  0  0  0  0  0  0  0  0
    3.7461  -14.5865   27.4477 N   0  0  0  0  0  0  0  0  0  0  0  0
    3.2985  -15.9987   28.0046 C   0  0  0  0  0  0  0  0  0  0  0  0
    3.2907  -17.0910   27.4651 O   0  0  0  0  0  0  0  0  0  0  0  0
    2.6756  -16.1107   29.4791 C   0  0  0  0  0  0  0  0  0  0  0  0
    3.5689  -16.9026   30.2765 O   0  0  0  0  0  0  0  0  0  0  0  0
    1.2685  -16.8471   29.4947 C   0  0  0  0  0  0  0  0  0  0  0  0
    0.0668  -16.4760   30.0837 C   0  0  0  0  0  0  0  0  0  0  0  0
   -0.8518  -17.4506   29.7686 N   0  0  0  0  0  0  0  0  0  0  0  0
   -0.1886  -18.4271   29.0899 C   0  0  0  0  0  0  0  0  0  0  0  0
    1.0843  -18.1217   28.9492 N   0  0  0  0  0  0  0  0  0  0  0  0
    2.4902  -13.3364   24.8073 H   0  0  0  0  0  0  0  0  0  0  0  0
    3.4919  -14.6198   23.8753 H   0  0  0  0  0  0  0  0  0  0  0  0
    3.5998  -12.9309   23.8738 H   0  0  0  0  0  0  0  0  0  0  0  0
    4.9451  -15.0280   25.4763 H   0  0  0  0  0  0  0  0  0  0  0  0
    6.1049  -12.9710   27.3263 H   0  0  0  0  0  0  0  0  0  0  0  0
    5.6509  -11.9273   26.1940 H   0  0  0  0  0  0  0  0  0  0  0  0
    8.0142  -13.3608   25.9413 H   0  0  0  0  0  0  0  0  0  0  0  0
    9.7512  -11.9076   25.2446 H   0  0  0  0  0  0  0  0  0  0  0  0
    9.4215  -12.9857   23.8664 H   0  0  0  0  0  0  0  0  0  0  0  0
   10.6572   -9.2833   24.4973 H   0  0  0  0  0  0  0  0  0  0  0  0
   10.9880   -8.1799   22.0117 H   0  0  0  0  0  0  0  0  0  0  0  0
    9.0836  -11.6936   21.4313 H   0  0  0  0  0  0  0  0  0  0  0  0
    3.6998  -13.9029   28.1897 H   0  0  0  0  0  0  0  0  0  0  0  0
    2.6503  -15.1506   29.9725 H   0  0  0  0  0  0  0  0  0  0  0  0
    3.5495  -17.7686   29.8193 H   0  0  0  0  0  0  0  0  0  0  0  0
   -0.2183  -15.6108   30.6637 H   0  0  0  0  0  0  0  0  0  0  0  0
   -1.8348  -17.4532   30.0063 H   0  0  0  0  0  0  0  0  0  0  0  0
   -0.6749  -19.3228   28.7290 H   0  0  0  0  0  0  0  0  0  0  0  0
  1  2  1  0
  2  3  1  0
  3  4  1  0
  4  5  1  0
  5  6  2  0
  5  7  1  0
  7  8  1  0
  8  9  2  0
  9 10  1  0
 10 11  2  0
 11 12  1  0
  2 13  1  0
 13 14  1  0
 14 15  2  0
 14 16  1  0
 16 17  1  0
 16 18  1  0
 18 19  2  0
 19 20  1  0
 20 21  1  0
 21 22  2  0
 12  8  1  0
 22 18  1  0
  1 23  1  0
  1 24  1  0
  1 25  1  0
  2 26  1  0
  3 27  1  0
  3 28  1  0
  4 29  1  0
  7 30  1  0
  7 31  1  0
  9 32  1  0
 10 33  1  0
 12 34  1  0
 13 35  1  0
 16 36  1  0
 17 37  1  0
 19 38  1  0
 20 39  1  0
 21 40  1  0
M  END
>  <Energy>  (1051) 
213.31090970339068

>  <compound_id>  (1051) 
8161

>  <target_id>  (1051) 
1

>  <reference_id>  (1051) 
122

>  <inspiration_ids>  (1051) 
[101, 122]

>  <energy_score>  (1051) 
87.616976776157

>  <distance_score>  (1051) 
13.37667218426582

>  <path>  (1051) 
/opt/xchem-fragalysis-2/maxwin/BulkDock/SCRATCH/511013/C8161-P122/C8161-P122.minimised.mol

>  <scratch_subdir>  (1051) 
/opt/xchem-fragalysis-2/maxwin/BulkDock/SCRATCH/511013/C8161-P122

>  <fragmenstein_runtime>  (1051) 
27.44481086730957

>  <fragmenstein_outcome>  (1051) 
too moved

>  <fragmenstein_mode>  (1051) 
expansion

>  <fragmenstein_error>  (1051) 


$$$$
C8162-P101
     RDKit          3D

 45 46  0  0  0  0  0  0  0  0999 V2000
    1.2090  -14.0826   23.8606 C   0  0  0  0  0  0  0  0  0  0  0  0
    1.1399  -13.4243   25.0629 N   0  0  0  0  0  0  0  0  0  0  0  0
    2.2277  -11.8511   23.8984 C   0  0  0  0  0  0  0  0  0  0  0  0
    3.7633  -10.2644   23.0427 C   0  0  0  0  0  0  0  0  0  0  0  0
    4.6706   -8.3994   22.0171 N   0  0  0  0  0  0  0  0  0  0  0  0
    5.1503   -7.9845   19.8908 C   0  0  0  0  0  0  0  0  0  0  0  0
    4.9843   -8.9898   19.1190 O   0  0  0  0  0  0  0  0  0  0  0  0
    5.5989   -6.3828   18.6497 C   0  0  0  0  0  0  0  0  0  0  0  0
    4.7773   -6.6931   17.4237 C   0  0  0  0  0  0  0  0  0  0  0  0
    4.7790   -7.7160   16.5039 C   0  0  0  0  0  0  0  0  0  0  0  0
    3.6740   -7.4583   15.6797 C   0  0  0  0  0  0  0  0  0  0  0  0
    3.0241   -6.3481   16.0287 N   0  0  0  0  0  0  0  0  0  0  0  0
    3.6918   -5.9184   17.1043 N   0  0  0  0  0  0  0  0  0  0  0  0
   -0.8273  -13.5402   25.7783 C   0  0  0  0  0  0  0  0  0  0  0  0
   -1.6779  -12.6571   25.5011 O   0  0  0  0  0  0  0  0  0  0  0  0
   -1.8821  -15.1578   26.8824 C   0  0  0  0  0  0  0  0  0  0  0  0
   -3.0818  -17.0094   27.1194 C   0  0  0  0  0  0  0  0  0  0  0  0
   -4.7395  -18.3353   27.6074 C   0  0  0  0  0  0  0  0  0  0  0  0
   -5.4360  -19.3822   26.4167 N   0  0  0  0  0  0  0  0  0  0  0  0
   -4.9202  -20.5949   26.0622 C   0  0  0  0  0  0  0  0  0  0  0  0
   -5.4922  -21.1145   27.2391 C   0  0  0  0  0  0  0  0  0  0  0  0
   -6.1880  -19.5483   27.0930 N   0  0  0  0  0  0  0  0  0  0  0  0
   -7.9125  -18.6065   27.8758 C   0  0  0  0  0  0  0  0  0  0  0  0
    0.2243  -14.0410   23.2398 H   0  0  0  0  0  0  0  0  0  0  0  0
    2.1654  -14.5046   23.4415 H   0  0  0  0  0  0  0  0  0  0  0  0
    0.5041  -14.6808   24.3510 H   0  0  0  0  0  0  0  0  0  0  0  0
    1.4955  -11.8268   23.1014 H   0  0  0  0  0  0  0  0  0  0  0  0
    2.9542  -12.6305   23.5973 H   0  0  0  0  0  0  0  0  0  0  0  0
    4.2042  -11.0227   22.3433 H   0  0  0  0  0  0  0  0  0  0  0  0
    2.9583   -9.4966   22.9235 H   0  0  0  0  0  0  0  0  0  0  0  0
    4.9170   -7.5761   22.5777 H   0  0  0  0  0  0  0  0  0  0  0  0
    6.6531   -6.4528   18.4102 H   0  0  0  0  0  0  0  0  0  0  0  0
    5.2147   -5.4022   18.9519 H   0  0  0  0  0  0  0  0  0  0  0  0
    5.4093   -8.5895   16.4597 H   0  0  0  0  0  0  0  0  0  0  0  0
    3.3133   -8.0360   14.8389 H   0  0  0  0  0  0  0  0  0  0  0  0
    3.3422   -5.0932   17.5810 H   0  0  0  0  0  0  0  0  0  0  0  0
   -2.6447  -14.4764   26.5895 H   0  0  0  0  0  0  0  0  0  0  0  0
   -1.6306  -15.0102   27.9390 H   0  0  0  0  0  0  0  0  0  0  0  0
   -3.3110  -16.6390   28.1258 H   0  0  0  0  0  0  0  0  0  0  0  0
   -2.2675  -17.7479   27.0846 H   0  0  0  0  0  0  0  0  0  0  0  0
   -4.7196  -21.0018   25.0830 H   0  0  0  0  0  0  0  0  0  0  0  0
   -5.9692  -22.0677   27.5364 H   0  0  0  0  0  0  0  0  0  0  0  0
   -8.5164  -17.9452   27.2192 H   0  0  0  0  0  0  0  0  0  0  0  0
   -8.3831  -19.3225   28.4617 H   0  0  0  0  0  0  0  0  0  0  0  0
   -7.7173  -17.6213   28.4651 H   0  0  0  0  0  0  0  0  0  0  0  0
  1  2  1  0
  2  3  1  0
  3  4  1  0
  4  5  1  0
  5  6  1  0
  6  7  2  0
  6  8  1  0
  8  9  1  0
  9 10  2  0
 10 11  1  0
 11 12  2  0
 12 13  1  0
  2 14  1  0
 14 15  2  0
 14 16  1  0
 16 17  1  0
 17 18  1  0
 18 19  2  0
 19 20  1  0
 20 21  2  0
 21 22  1  0
 22 23  1  0
 13  9  1  0
 22 18  1  0
  1 24  1  0
  1 25  1  0
  1 26  1  0
  3 27  1  0
  3 28  1  0
  4 29  1  0
  4 30  1  0
  5 31  1  0
  8 32  1  0
  8 33  1  0
 10 34  1  0
 11 35  1  0
 13 36  1  0
 16 37  1  0
 16 38  1  0
 17 39  1  0
 17 40  1  0
 20 41  1  0
 21 42  1  0
 23 43  1  0
 23 44  1  0
 23 45  1  0
M  END
>  <Energy>  (1052) 
2751.009562389399

>  <compound_id>  (1052) 
8162

>  <target_id>  (1052) 
1

>  <reference_id>  (1052) 
101

>  <inspiration_ids>  (1052) 
[101, 122]

>  <energy_score>  (1052) 
2702.075078438331

>  <distance_score>  (1052) 
9.149790718129642

>  <path>  (1052) 
/opt/xchem-fragalysis-2/maxwin/BulkDock/SCRATCH/511013/C8162-P101/C8162-P101.minimised.mol

>  <scratch_subdir>  (1052) 
/opt/xchem-fragalysis-2/maxwin/BulkDock/SCRATCH/511013/C8162-P101

>  <fragmenstein_runtime>  (1052) 
33.39450216293335

>  <fragmenstein_outcome>  (1052) 
too moved

>  <fragmenstein_mode>  (1052) 
expansion

>  <fragmenstein_error>  (1052) 


$$$$
C8162-P122
     RDKit          3D

 45 46  0  0  0  0  0  0  0  0999 V2000
   -1.6249  -17.1599   20.1273 C   0  0  0  0  0  0  0  0  0  0  0  0
   -2.9703  -16.6070   20.1585 N   0  0  0  0  0  0  0  0  0  0  0  0
   -2.0305  -15.0031   19.7900 C   0  0  0  0  0  0  0  0  0  0  0  0
   -2.1161  -12.9367   20.1132 C   0  0  0  0  0  0  0  0  0  0  0  0
   -1.9038  -11.5005   19.6434 N   0  0  0  0  0  0  0  0  0  0  0  0
   -2.4832  -10.7619   18.5415 C   0  0  0  0  0  0  0  0  0  0  0  0
   -3.2181  -11.1178   17.6618 O   0  0  0  0  0  0  0  0  0  0  0  0
   -2.1182   -9.1632   18.6469 C   0  0  0  0  0  0  0  0  0  0  0  0
   -0.9728   -8.3441   18.0319 C   0  0  0  0  0  0  0  0  0  0  0  0
    0.1394   -7.7522   18.6257 C   0  0  0  0  0  0  0  0  0  0  0  0
    0.8352   -7.0861   17.6022 C   0  0  0  0  0  0  0  0  0  0  0  0
    0.1803   -7.1554   16.4437 N   0  0  0  0  0  0  0  0  0  0  0  0
   -0.9356   -7.8585   16.7439 N   0  0  0  0  0  0  0  0  0  0  0  0
   -3.9421  -17.4897   19.2353 C   0  0  0  0  0  0  0  0  0  0  0  0
   -4.2161  -17.3642   18.0474 O   0  0  0  0  0  0  0  0  0  0  0  0
   -4.9935  -18.8743   20.0126 C   0  0  0  0  0  0  0  0  0  0  0  0
   -5.4204  -20.4068   21.0187 C   0  0  0  0  0  0  0  0  0  0  0  0
   -5.7532  -21.2625   22.8890 C   0  0  0  0  0  0  0  0  0  0  0  0
   -4.9599  -21.0404   24.2443 N   0  0  0  0  0  0  0  0  0  0  0  0
   -5.0548  -22.3725   25.1343 C   0  0  0  0  0  0  0  0  0  0  0  0
   -5.4669  -23.4569   24.3845 C   0  0  0  0  0  0  0  0  0  0  0  0
   -6.1408  -22.9200   23.2459 N   0  0  0  0  0  0  0  0  0  0  0  0
   -7.5725  -23.3442   23.3404 C   0  0  0  0  0  0  0  0  0  0  0  0
   -1.5414  -17.6094   19.1395 H   0  0  0  0  0  0  0  0  0  0  0  0
   -1.6642  -18.0215   20.7735 H   0  0  0  0  0  0  0  0  0  0  0  0
   -0.7190  -16.6412   20.4459 H   0  0  0  0  0  0  0  0  0  0  0  0
   -1.4951  -15.1744   18.8876 H   0  0  0  0  0  0  0  0  0  0  0  0
   -1.7971  -15.0262   20.8198 H   0  0  0  0  0  0  0  0  0  0  0  0
   -1.4332  -12.7741   20.8699 H   0  0  0  0  0  0  0  0  0  0  0  0
   -3.0946  -12.6411   20.4850 H   0  0  0  0  0  0  0  0  0  0  0  0
   -1.2583  -10.8926   20.1475 H   0  0  0  0  0  0  0  0  0  0  0  0
   -2.1054   -8.9465   19.7260 H   0  0  0  0  0  0  0  0  0  0  0  0
   -3.0322   -8.6622   18.2963 H   0  0  0  0  0  0  0  0  0  0  0  0
    0.4136   -7.8433   19.6667 H   0  0  0  0  0  0  0  0  0  0  0  0
    1.7723   -6.5483   17.6540 H   0  0  0  0  0  0  0  0  0  0  0  0
   -1.6245   -7.9886   16.0108 H   0  0  0  0  0  0  0  0  0  0  0  0
   -5.3558  -19.2715   19.0474 H   0  0  0  0  0  0  0  0  0  0  0  0
   -5.8073  -18.2103   20.3698 H   0  0  0  0  0  0  0  0  0  0  0  0
   -4.8868  -21.1834   20.5120 H   0  0  0  0  0  0  0  0  0  0  0  0
   -6.4541  -20.0868   20.7290 H   0  0  0  0  0  0  0  0  0  0  0  0
   -4.9389  -22.3009   26.2007 H   0  0  0  0  0  0  0  0  0  0  0  0
   -5.5944  -24.4916   24.5766 H   0  0  0  0  0  0  0  0  0  0  0  0
   -8.2356  -22.4988   23.4161 H   0  0  0  0  0  0  0  0  0  0  0  0
   -7.8365  -23.8543   22.4345 H   0  0  0  0  0  0  0  0  0  0  0  0
   -7.6929  -23.9754   24.2036 H   0  0  0  0  0  0  0  0  0  0  0  0
  1  2  1  0
  2  3  1  0
  3  4  1  0
  4  5  1  0
  5  6  1  0
  6  7  2  0
  6  8  1  0
  8  9  1  0
  9 10  2  0
 10 11  1  0
 11 12  2  0
 12 13  1  0
  2 14  1  0
 14 15  2  0
 14 16  1  0
 16 17  1  0
 17 18  1  0
 18 19  2  0
 19 20  1  0
 20 21  2  0
 21 22  1  0
 22 23  1  0
 13  9  1  0
 22 18  1  0
  1 24  1  0
  1 25  1  0
  1 26  1  0
  3 27  1  0
  3 28  1  0
  4 29  1  0
  4 30  1  0
  5 31  1  0
  8 32  1  0
  8 33  1  0
 10 34  1  0
 11 35  1  0
 13 36  1  0
 16 37  1  0
 16 38  1  0
 17 39  1  0
 17 40  1  0
 20 41  1  0
 21 42  1  0
 23 43  1  0
 23 44  1  0
 23 45  1  0
M  END
>  <Energy>  (1053) 
673.01427156561419

>  <compound_id>  (1053) 
8162

>  <target_id>  (1053) 
1

>  <reference_id>  (1053) 
122

>  <inspiration_ids>  (1053) 
[101, 122]

>  <energy_score>  (1053) 
624.0797876145384

>  <distance_score>  (1053) 
11.55069680346963

>  <path>  (1053) 
/opt/xchem-fragalysis-2/maxwin/BulkDock/SCRATCH/511013/C8162-P122/C8162-P122.minimised.mol

>  <scratch_subdir>  (1053) 
/opt/xchem-fragalysis-2/maxwin/BulkDock/SCRATCH/511013/C8162-P122

>  <fragmenstein_runtime>  (1053) 
38.441715240478516

>  <fragmenstein_outcome>  (1053) 
too moved

>  <fragmenstein_mode>  (1053) 
expansion

>  <fragmenstein_error>  (1053) 


$$$$
C8163-P101
     RDKit          3D

 33 34  0  0  0  0  0  0  0  0999 V2000
   -2.6283  -14.3143   16.5021 C   0  0  0  0  0  0  0  0  0  0  0  0
   -2.0316  -14.0053   17.9637 C   0  0  0  0  0  0  0  0  0  0  0  0
   -2.7404  -12.2923   18.3451 C   0  0  0  0  0  0  0  0  0  0  0  0
   -2.0843  -11.2072   19.1569 C   0  0  0  0  0  0  0  0  0  0  0  0
   -1.6550  -11.4950   20.2383 O   0  0  0  0  0  0  0  0  0  0  0  0
   -2.0023   -9.9543   18.3946 N   0  0  0  0  0  0  0  0  0  0  0  0
   -1.3284   -8.7853   18.6572 N   0  0  0  0  0  0  0  0  0  0  0  0
   -1.0005   -7.6706   17.8013 C   0  0  0  0  0  0  0  0  0  0  0  0
   -1.3061   -7.4424   16.6666 O   0  0  0  0  0  0  0  0  0  0  0  0
   -0.0481   -6.7132   18.4041 C   0  0  0  0  0  0  0  0  0  0  0  0
    0.6527   -6.6385   19.6000 C   0  0  0  0  0  0  0  0  0  0  0  0
    1.6522   -5.6548   19.4118 C   0  0  0  0  0  0  0  0  0  0  0  0
    1.5971   -5.1115   18.1986 N   0  0  0  0  0  0  0  0  0  0  0  0
    0.5582   -5.7442   17.6194 N   0  0  0  0  0  0  0  0  0  0  0  0
   -2.1342  -15.5592   18.9498 N   0  0  0  0  0  0  0  0  0  0  0  0
   -1.4102  -16.2615   19.8685 C   0  0  0  0  0  0  0  0  0  0  0  0
   -1.9507  -17.4797   20.1347 C   0  0  0  0  0  0  0  0  0  0  0  0
   -3.0325  -17.7805   19.4536 N   0  0  0  0  0  0  0  0  0  0  0  0
   -3.2200  -16.6915   18.7944 C   0  0  0  0  0  0  0  0  0  0  0  0
   -3.2728  -15.1882   16.4122 H   0  0  0  0  0  0  0  0  0  0  0  0
   -1.8469  -14.4191   15.7594 H   0  0  0  0  0  0  0  0  0  0  0  0
   -3.2927  -13.5161   16.1699 H   0  0  0  0  0  0  0  0  0  0  0  0
   -0.9939  -13.7428   17.8737 H   0  0  0  0  0  0  0  0  0  0  0  0
   -3.6909  -12.1623   18.8796 H   0  0  0  0  0  0  0  0  0  0  0  0
   -3.0183  -11.9079   17.3709 H   0  0  0  0  0  0  0  0  0  0  0  0
   -2.5493  -10.0418   17.5541 H   0  0  0  0  0  0  0  0  0  0  0  0
   -0.8253   -8.6895   19.5348 H   0  0  0  0  0  0  0  0  0  0  0  0
    0.5246   -7.2594   20.4746 H   0  0  0  0  0  0  0  0  0  0  0  0
    2.4176   -5.3262   20.1034 H   0  0  0  0  0  0  0  0  0  0  0  0
    0.3327   -5.5323   16.6518 H   0  0  0  0  0  0  0  0  0  0  0  0
   -0.3823  -16.1700   20.1580 H   0  0  0  0  0  0  0  0  0  0  0  0
   -1.4712  -18.1393   20.8247 H   0  0  0  0  0  0  0  0  0  0  0  0
   -4.0019  -16.6280   18.0306 H   0  0  0  0  0  0  0  0  0  0  0  0
  1  2  1  0
  2  3  1  0
  3  4  1  0
  4  5  2  0
  4  6  1  0
  6  7  1  0
  7  8  1  0
  8  9  2  0
  8 10  1  0
 10 11  2  0
 11 12  1  0
 12 13  2  0
 13 14  1  0
  2 15  1  0
 15 16  1  0
 16 17  2  0
 17 18  1  0
 18 19  2  0
 14 10  1  0
 19 15  1  0
  1 20  1  0
  1 21  1  0
  1 22  1  0
  2 23  1  0
  3 24  1  0
  3 25  1  0
  6 26  1  0
  7 27  1  0
 11 28  1  0
 12 29  1  0
 14 30  1  0
 16 31  1  0
 17 32  1  0
 19 33  1  0
M  END
>  <Energy>  (1054) 
182.47741858608737

>  <compound_id>  (1054) 
8163

>  <target_id>  (1054) 
1

>  <reference_id>  (1054) 
101

>  <inspiration_ids>  (1054) 
[101, 122]

>  <energy_score>  (1054) 
128.23752341402349

>  <distance_score>  (1054) 
14.20677655494671

>  <path>  (1054) 
/opt/xchem-fragalysis-2/maxwin/BulkDock/SCRATCH/511013/C8163-P101/C8163-P101.minimised.mol

>  <scratch_subdir>  (1054) 
/opt/xchem-fragalysis-2/maxwin/BulkDock/SCRATCH/511013/C8163-P101

>  <fragmenstein_runtime>  (1054) 
23.64238166809082

>  <fragmenstein_outcome>  (1054) 
too moved

>  <fragmenstein_mode>  (1054) 
expansion

>  <fragmenstein_error>  (1054) 


$$$$
C8163-P122
     RDKit          3D

 33 34  0  0  0  0  0  0  0  0999 V2000
   -1.8912  -17.9479   20.3939 C   0  0  0  0  0  0  0  0  0  0  0  0
   -0.6834  -18.0802   21.6927 C   0  0  0  0  0  0  0  0  0  0  0  0
    0.3433  -16.4697   20.8178 C   0  0  0  0  0  0  0  0  0  0  0  0
    1.9921  -15.2242   20.3496 C   0  0  0  0  0  0  0  0  0  0  0  0
    2.4967  -14.8538   21.3303 O   0  0  0  0  0  0  0  0  0  0  0  0
    2.7926  -14.8079   18.7772 N   0  0  0  0  0  0  0  0  0  0  0  0
    4.3596  -14.0101   18.4287 N   0  0  0  0  0  0  0  0  0  0  0  0
    4.6893  -12.6721   17.7641 C   0  0  0  0  0  0  0  0  0  0  0  0
    3.9642  -11.8570   17.2324 O   0  0  0  0  0  0  0  0  0  0  0  0
    6.1114  -12.3217   17.8484 C   0  0  0  0  0  0  0  0  0  0  0  0
    6.9694  -11.8502   16.8641 C   0  0  0  0  0  0  0  0  0  0  0  0
    8.1295  -11.4229   17.5377 C   0  0  0  0  0  0  0  0  0  0  0  0
    8.0207  -11.5687   18.8602 N   0  0  0  0  0  0  0  0  0  0  0  0
    6.7783  -12.0729   19.0188 N   0  0  0  0  0  0  0  0  0  0  0  0
   -1.2978  -19.2216   23.2776 N   0  0  0  0  0  0  0  0  0  0  0  0
   -1.8356  -18.7568   25.1760 C   0  0  0  0  0  0  0  0  0  0  0  0
   -2.8712  -19.5485   25.3469 C   0  0  0  0  0  0  0  0  0  0  0  0
   -2.9380  -20.5581   23.9867 N   0  0  0  0  0  0  0  0  0  0  0  0
   -1.8254  -20.5401   23.3168 C   0  0  0  0  0  0  0  0  0  0  0  0
   -2.4318  -18.8391   20.0592 H   0  0  0  0  0  0  0  0  0  0  0  0
   -2.6056  -17.1315   20.5011 H   0  0  0  0  0  0  0  0  0  0  0  0
   -1.4179  -17.6543   19.4623 H   0  0  0  0  0  0  0  0  0  0  0  0
    0.2592  -18.5515   21.5443 H   0  0  0  0  0  0  0  0  0  0  0  0
    0.0276  -15.9061   21.6815 H   0  0  0  0  0  0  0  0  0  0  0  0
   -0.3505  -16.2595   20.0332 H   0  0  0  0  0  0  0  0  0  0  0  0
    2.2960  -15.2600   18.0407 H   0  0  0  0  0  0  0  0  0  0  0  0
    5.2000  -14.3952   18.8453 H   0  0  0  0  0  0  0  0  0  0  0  0
    6.7585  -11.7930   15.8053 H   0  0  0  0  0  0  0  0  0  0  0  0
    9.0331  -10.9979   17.1187 H   0  0  0  0  0  0  0  0  0  0  0  0
    6.4111  -12.1745   19.9590 H   0  0  0  0  0  0  0  0  0  0  0  0
   -1.3439  -17.9625   25.7134 H   0  0  0  0  0  0  0  0  0  0  0  0
   -3.8619  -19.9137   25.7913 H   0  0  0  0  0  0  0  0  0  0  0  0
   -1.2151  -21.4114   23.1512 H   0  0  0  0  0  0  0  0  0  0  0  0
  1  2  1  0
  2  3  1  0
  3  4  1  0
  4  5  2  0
  4  6  1  0
  6  7  1  0
  7  8  1  0
  8  9  2  0
  8 10  1  0
 10 11  2  0
 11 12  1  0
 12 13  2  0
 13 14  1  0
  2 15  1  0
 15 16  1  0
 16 17  2  0
 17 18  1  0
 18 19  2  0
 14 10  1  0
 19 15  1  0
  1 20  1  0
  1 21  1  0
  1 22  1  0
  2 23  1  0
  3 24  1  0
  3 25  1  0
  6 26  1  0
  7 27  1  0
 11 28  1  0
 12 29  1  0
 14 30  1  0
 16 31  1  0
 17 32  1  0
 19 33  1  0
M  END
>  <Energy>  (1055) 
774.27442299664165

>  <compound_id>  (1055) 
8163

>  <target_id>  (1055) 
1

>  <reference_id>  (1055) 
122

>  <inspiration_ids>  (1055) 
[101, 122]

>  <energy_score>  (1055) 
720.0345278245567

>  <distance_score>  (1055) 
11.633124276436456

>  <path>  (1055) 
/opt/xchem-fragalysis-2/maxwin/BulkDock/SCRATCH/511013/C8163-P122/C8163-P122.minimised.mol

>  <scratch_subdir>  (1055) 
/opt/xchem-fragalysis-2/maxwin/BulkDock/SCRATCH/511013/C8163-P122

>  <fragmenstein_runtime>  (1055) 
14.845677137374878

>  <fragmenstein_outcome>  (1055) 
too moved

>  <fragmenstein_mode>  (1055) 
expansion

>  <fragmenstein_error>  (1055) 


$$$$
C8164-P101
     RDKit          3D

 46 47  0  0  0  0  0  0  0  0999 V2000
    2.7039  -12.1448   23.1755 C   0  0  0  0  0  0  0  0  0  0  0  0
    3.4169  -13.2825   22.6336 C   0  0  0  0  0  0  0  0  0  0  0  0
    4.7864  -13.0153   21.0838 C   0  0  0  0  0  0  0  0  0  0  0  0
    6.5290  -12.3764   20.6377 N   0  0  0  0  0  0  0  0  0  0  0  0
    8.2103  -13.0905   20.9138 C   0  0  0  0  0  0  0  0  0  0  0  0
    8.5538  -14.0777   21.5113 O   0  0  0  0  0  0  0  0  0  0  0  0
    9.6039  -12.3685   20.1145 C   0  0  0  0  0  0  0  0  0  0  0  0
    9.8268  -11.1894   19.1204 C   0  0  0  0  0  0  0  0  0  0  0  0
   10.6169  -11.4871   17.8786 C   0  0  0  0  0  0  0  0  0  0  0  0
   10.3695  -11.2257   16.5455 C   0  0  0  0  0  0  0  0  0  0  0  0
   11.5629  -11.5609   15.8846 C   0  0  0  0  0  0  0  0  0  0  0  0
   12.4994  -12.0104   16.7213 N   0  0  0  0  0  0  0  0  0  0  0  0
   11.8948  -11.9739   17.9174 N   0  0  0  0  0  0  0  0  0  0  0  0
    3.7425  -14.1529   24.3037 N   0  0  0  0  0  0  0  0  0  0  0  0
    4.4646  -15.5403   24.6356 C   0  0  0  0  0  0  0  0  0  0  0  0
    4.8927  -16.3906   23.8980 O   0  0  0  0  0  0  0  0  0  0  0  0
    4.6974  -16.0016   26.2310 C   0  0  0  0  0  0  0  0  0  0  0  0
    4.4650  -15.0862   27.2520 O   0  0  0  0  0  0  0  0  0  0  0  0
    3.9426  -17.4179   26.5975 C   0  0  0  0  0  0  0  0  0  0  0  0
    2.8637  -17.7260   27.4373 C   0  0  0  0  0  0  0  0  0  0  0  0
    2.3809  -19.0006   27.2787 N   0  0  0  0  0  0  0  0  0  0  0  0
    3.1574  -19.5217   26.3636 C   0  0  0  0  0  0  0  0  0  0  0  0
    4.1396  -18.6414   25.9658 N   0  0  0  0  0  0  0  0  0  0  0  0
    5.1870  -19.0026   25.0406 C   0  0  0  0  0  0  0  0  0  0  0  0
    3.2946  -11.2984   22.8664 H   0  0  0  0  0  0  0  0  0  0  0  0
    2.3983  -12.3285   24.1828 H   0  0  0  0  0  0  0  0  0  0  0  0
    1.7164  -11.8672   22.8495 H   0  0  0  0  0  0  0  0  0  0  0  0
    3.0797  -14.2804   22.3212 H   0  0  0  0  0  0  0  0  0  0  0  0
    4.3163  -13.1193   20.1035 H   0  0  0  0  0  0  0  0  0  0  0  0
    4.5907  -11.9559   21.2103 H   0  0  0  0  0  0  0  0  0  0  0  0
    6.5697  -11.5757   20.0180 H   0  0  0  0  0  0  0  0  0  0  0  0
   10.3415  -12.2808   20.9325 H   0  0  0  0  0  0  0  0  0  0  0  0
   10.0129  -13.2622   19.6092 H   0  0  0  0  0  0  0  0  0  0  0  0
    8.8929  -10.6742   18.8889 H   0  0  0  0  0  0  0  0  0  0  0  0
   10.4703  -10.4504   19.6188 H   0  0  0  0  0  0  0  0  0  0  0  0
    9.4716  -10.8026   16.1167 H   0  0  0  0  0  0  0  0  0  0  0  0
   11.7917  -11.4997   14.8299 H   0  0  0  0  0  0  0  0  0  0  0  0
   12.4233  -12.2800   18.7271 H   0  0  0  0  0  0  0  0  0  0  0  0
    3.5833  -13.6355   25.1690 H   0  0  0  0  0  0  0  0  0  0  0  0
    5.7690  -16.2397   26.2806 H   0  0  0  0  0  0  0  0  0  0  0  0
    4.5819  -15.5745   28.0939 H   0  0  0  0  0  0  0  0  0  0  0  0
    2.3101  -17.0458   28.0584 H   0  0  0  0  0  0  0  0  0  0  0  0
    3.0753  -20.5216   25.9556 H   0  0  0  0  0  0  0  0  0  0  0  0
    4.7842  -18.9528   24.0267 H   0  0  0  0  0  0  0  0  0  0  0  0
    5.5099  -20.0243   25.2609 H   0  0  0  0  0  0  0  0  0  0  0  0
    6.0391  -18.3318   25.1640 H   0  0  0  0  0  0  0  0  0  0  0  0
  1  2  1  0
  2  3  1  0
  3  4  1  0
  4  5  1  0
  5  6  2  0
  5  7  1  0
  7  8  1  0
  8  9  1  0
  9 10  2  0
 10 11  1  0
 11 12  2  0
 12 13  1  0
  2 14  1  0
 14 15  1  0
 15 16  2  0
 15 17  1  0
 17 18  1  0
 17 19  1  0
 19 20  2  0
 20 21  1  0
 21 22  2  0
 22 23  1  0
 23 24  1  0
 13  9  1  0
 23 19  1  0
  1 25  1  0
  1 26  1  0
  1 27  1  0
  2 28  1  0
  3 29  1  0
  3 30  1  0
  4 31  1  0
  7 32  1  0
  7 33  1  0
  8 34  1  0
  8 35  1  0
 10 36  1  0
 11 37  1  0
 13 38  1  0
 14 39  1  0
 17 40  1  0
 18 41  1  0
 20 42  1  0
 22 43  1  0
 24 44  1  0
 24 45  1  0
 24 46  1  0
M  END
>  <Energy>  (1056) 
416.77606567656426

>  <compound_id>  (1056) 
8164

>  <target_id>  (1056) 
1

>  <reference_id>  (1056) 
101

>  <inspiration_ids>  (1056) 
[101, 122]

>  <energy_score>  (1056) 
351.599335287505

>  <distance_score>  (1056) 
14.091560264004658

>  <path>  (1056) 
/opt/xchem-fragalysis-2/maxwin/BulkDock/SCRATCH/511013/C8164-P101/C8164-P101.minimised.mol

>  <scratch_subdir>  (1056) 
/opt/xchem-fragalysis-2/maxwin/BulkDock/SCRATCH/511013/C8164-P101

>  <fragmenstein_runtime>  (1056) 
30.640052318572998

>  <fragmenstein_outcome>  (1056) 
too moved

>  <fragmenstein_mode>  (1056) 
expansion

>  <fragmenstein_error>  (1056) 


$$$$
C8164-P122
     RDKit          3D

 46 47  0  0  0  0  0  0  0  0999 V2000
   -2.0000  -14.1379   25.6030 C   0  0  0  0  0  0  0  0  0  0  0  0
   -1.6953  -15.0641   24.5180 C   0  0  0  0  0  0  0  0  0  0  0  0
   -0.3775  -14.0204   23.3120 C   0  0  0  0  0  0  0  0  0  0  0  0
    0.1103  -12.1675   22.7071 N   0  0  0  0  0  0  0  0  0  0  0  0
   -0.8139  -10.9661   21.7083 C   0  0  0  0  0  0  0  0  0  0  0  0
   -1.8963  -11.1354   21.1506 O   0  0  0  0  0  0  0  0  0  0  0  0
   -0.1082   -9.4788   21.5503 C   0  0  0  0  0  0  0  0  0  0  0  0
   -0.7372   -8.4048   20.5664 C   0  0  0  0  0  0  0  0  0  0  0  0
    0.2032   -7.4359   19.8401 C   0  0  0  0  0  0  0  0  0  0  0  0
    0.5810   -6.1221   20.0633 C   0  0  0  0  0  0  0  0  0  0  0  0
    1.4472   -5.7836   18.9982 C   0  0  0  0  0  0  0  0  0  0  0  0
    1.6085   -6.7948   18.1410 N   0  0  0  0  0  0  0  0  0  0  0  0
    0.8355   -7.7727   18.6640 N   0  0  0  0  0  0  0  0  0  0  0  0
   -2.4597  -16.6655   25.2133 N   0  0  0  0  0  0  0  0  0  0  0  0
   -1.7751  -17.9447   26.3264 C   0  0  0  0  0  0  0  0  0  0  0  0
   -0.6342  -17.9891   26.7767 O   0  0  0  0  0  0  0  0  0  0  0  0
   -2.6888  -19.4626   26.8158 C   0  0  0  0  0  0  0  0  0  0  0  0
   -3.0698  -20.3311   25.7356 O   0  0  0  0  0  0  0  0  0  0  0  0
   -2.0843  -20.5064   27.7683 C   0  0  0  0  0  0  0  0  0  0  0  0
   -0.9951  -20.5604   28.6065 C   0  0  0  0  0  0  0  0  0  0  0  0
   -0.9933  -21.7060   29.3650 N   0  0  0  0  0  0  0  0  0  0  0  0
   -2.0415  -22.3870   28.9794 C   0  0  0  0  0  0  0  0  0  0  0  0
   -2.7099  -21.7374   27.9890 N   0  0  0  0  0  0  0  0  0  0  0  0
   -3.8298  -22.3122   27.2814 C   0  0  0  0  0  0  0  0  0  0  0  0
   -2.6109  -13.2233   25.5466 H   0  0  0  0  0  0  0  0  0  0  0  0
   -1.1126  -13.5491   25.5657 H   0  0  0  0  0  0  0  0  0  0  0  0
   -2.1281  -14.6723   26.5432 H   0  0  0  0  0  0  0  0  0  0  0  0
   -0.8593  -15.5493   24.5642 H   0  0  0  0  0  0  0  0  0  0  0  0
   -0.3835  -14.5764   22.3936 H   0  0  0  0  0  0  0  0  0  0  0  0
    0.5525  -14.1900   23.8884 H   0  0  0  0  0  0  0  0  0  0  0  0
    0.9461  -11.7100   23.1159 H   0  0  0  0  0  0  0  0  0  0  0  0
   -0.1342   -8.9746   22.5099 H   0  0  0  0  0  0  0  0  0  0  0  0
    0.9159   -9.6056   21.2382 H   0  0  0  0  0  0  0  0  0  0  0  0
   -1.4324   -7.7948   21.1603 H   0  0  0  0  0  0  0  0  0  0  0  0
   -1.3764   -8.8965   19.8233 H   0  0  0  0  0  0  0  0  0  0  0  0
    0.2765   -5.4949   20.8892 H   0  0  0  0  0  0  0  0  0  0  0  0
    1.9625   -4.8486   18.8221 H   0  0  0  0  0  0  0  0  0  0  0  0
    0.8127   -8.6827   18.2166 H   0  0  0  0  0  0  0  0  0  0  0  0
   -3.3709  -16.8186   25.0795 H   0  0  0  0  0  0  0  0  0  0  0  0
   -3.4794  -19.1698   27.5404 H   0  0  0  0  0  0  0  0  0  0  0  0
   -2.2506  -20.5950   25.2712 H   0  0  0  0  0  0  0  0  0  0  0  0
   -0.2039  -19.8334   28.7238 H   0  0  0  0  0  0  0  0  0  0  0  0
   -2.3389  -23.3498   29.3689 H   0  0  0  0  0  0  0  0  0  0  0  0
   -4.6457  -21.5905   27.2564 H   0  0  0  0  0  0  0  0  0  0  0  0
   -4.1519  -23.2111   27.8044 H   0  0  0  0  0  0  0  0  0  0  0  0
   -3.5068  -22.6064   26.2801 H   0  0  0  0  0  0  0  0  0  0  0  0
  1  2  1  0
  2  3  1  0
  3  4  1  0
  4  5  1  0
  5  6  2  0
  5  7  1  0
  7  8  1  0
  8  9  1  0
  9 10  2  0
 10 11  1  0
 11 12  2  0
 12 13  1  0
  2 14  1  0
 14 15  1  0
 15 16  2  0
 15 17  1  0
 17 18  1  0
 17 19  1  0
 19 20  2  0
 20 21  1  0
 21 22  2  0
 22 23  1  0
 23 24  1  0
 13  9  1  0
 23 19  1  0
  1 25  1  0
  1 26  1  0
  1 27  1  0
  2 28  1  0
  3 29  1  0
  3 30  1  0
  4 31  1  0
  7 32  1  0
  7 33  1  0
  8 34  1  0
  8 35  1  0
 10 36  1  0
 11 37  1  0
 13 38  1  0
 14 39  1  0
 17 40  1  0
 18 41  1  0
 20 42  1  0
 22 43  1  0
 24 44  1  0
 24 45  1  0
 24 46  1  0
M  END
>  <Energy>  (1057) 
496.44299285100936

>  <compound_id>  (1057) 
8164

>  <target_id>  (1057) 
1

>  <reference_id>  (1057) 
122

>  <inspiration_ids>  (1057) 
[101, 122]

>  <energy_score>  (1057) 
431.26626246194814

>  <distance_score>  (1057) 
12.064404788551828

>  <path>  (1057) 
/opt/xchem-fragalysis-2/maxwin/BulkDock/SCRATCH/511013/C8164-P122/C8164-P122.minimised.mol

>  <scratch_subdir>  (1057) 
/opt/xchem-fragalysis-2/maxwin/BulkDock/SCRATCH/511013/C8164-P122

>  <fragmenstein_runtime>  (1057) 
34.11056637763977

>  <fragmenstein_outcome>  (1057) 
too moved

>  <fragmenstein_mode>  (1057) 
expansion

>  <fragmenstein_error>  (1057) 


$$$$
C8166-P101
     RDKit          3D

 48 49  0  0  0  0  0  0  0  0999 V2000
   -3.4382  -12.8949   10.4060 C   0  0  0  0  0  0  0  0  0  0  0  0
   -2.4259  -13.0885   11.5605 C   0  0  0  0  0  0  0  0  0  0  0  0
   -1.8883  -11.6121   11.9323 C   0  0  0  0  0  0  0  0  0  0  0  0
   -0.4250  -11.3281   11.9375 N   0  0  0  0  0  0  0  0  0  0  0  0
    0.3039  -10.0636   11.8617 C   0  0  0  0  0  0  0  0  0  0  0  0
   -0.0915   -8.9430   11.6963 O   0  0  0  0  0  0  0  0  0  0  0  0
    1.8618  -10.2553   11.9927 C   0  0  0  0  0  0  0  0  0  0  0  0
    2.6272   -8.9048   12.2514 C   0  0  0  0  0  0  0  0  0  0  0  0
    4.0954   -9.0097   12.5874 C   0  0  0  0  0  0  0  0  0  0  0  0
    4.7625   -9.0987   13.7954 C   0  0  0  0  0  0  0  0  0  0  0  0
    6.1327   -9.0884   13.4723 C   0  0  0  0  0  0  0  0  0  0  0  0
    6.3361   -8.9892   12.1598 N   0  0  0  0  0  0  0  0  0  0  0  0
    5.0926   -8.9128   11.6486 N   0  0  0  0  0  0  0  0  0  0  0  0
   -3.2591  -13.8604   12.7025 N   0  0  0  0  0  0  0  0  0  0  0  0
   -1.9126  -14.1405   13.2003 C   0  0  0  0  0  0  0  0  0  0  0  0
   -4.0380  -15.0960   12.6438 C   0  0  0  0  0  0  0  0  0  0  0  0
   -4.1765  -15.8912   11.7472 O   0  0  0  0  0  0  0  0  0  0  0  0
   -4.7208  -15.4199   14.0321 C   0  0  0  0  0  0  0  0  0  0  0  0
   -4.9928  -16.9422   14.2343 C   0  0  0  0  0  0  0  0  0  0  0  0
   -5.6671  -17.3845   15.4665 N   0  0  0  0  0  0  0  0  0  0  0  0
   -5.1091  -18.0755   16.5193 C   0  0  0  0  0  0  0  0  0  0  0  0
   -6.1529  -18.4032   17.3523 C   0  0  0  0  0  0  0  0  0  0  0  0
   -7.3406  -17.9973   16.8098 N   0  0  0  0  0  0  0  0  0  0  0  0
   -7.0235  -17.4049   15.6796 C   0  0  0  0  0  0  0  0  0  0  0  0
   -2.9734  -12.3736    9.5622 H   0  0  0  0  0  0  0  0  0  0  0  0
   -3.8012  -13.8588   10.0354 H   0  0  0  0  0  0  0  0  0  0  0  0
   -4.3071  -12.3155   10.7371 H   0  0  0  0  0  0  0  0  0  0  0  0
   -1.6374  -13.7075   11.0977 H   0  0  0  0  0  0  0  0  0  0  0  0
   -2.3079  -10.8739   11.2382 H   0  0  0  0  0  0  0  0  0  0  0  0
   -2.2602  -11.3221   12.9190 H   0  0  0  0  0  0  0  0  0  0  0  0
    0.2246  -12.0715   12.1694 H   0  0  0  0  0  0  0  0  0  0  0  0
    2.0731  -10.9702   12.7900 H   0  0  0  0  0  0  0  0  0  0  0  0
    2.2186  -10.6957   11.0541 H   0  0  0  0  0  0  0  0  0  0  0  0
    2.5082   -8.2633   11.3684 H   0  0  0  0  0  0  0  0  0  0  0  0
    2.1310   -8.3746   13.0745 H   0  0  0  0  0  0  0  0  0  0  0  0
    4.3164   -9.1684   14.7782 H   0  0  0  0  0  0  0  0  0  0  0  0
    6.9886   -9.1535   14.1294 H   0  0  0  0  0  0  0  0  0  0  0  0
    4.9969   -8.7872   10.6463 H   0  0  0  0  0  0  0  0  0  0  0  0
   -1.2335  -13.3122   13.3880 H   0  0  0  0  0  0  0  0  0  0  0  0
   -1.4334  -14.9790   12.6745 H   0  0  0  0  0  0  0  0  0  0  0  0
   -2.1359  -14.5081   14.2025 H   0  0  0  0  0  0  0  0  0  0  0  0
   -5.6702  -14.8734   14.0588 H   0  0  0  0  0  0  0  0  0  0  0  0
   -4.1045  -15.0591   14.8594 H   0  0  0  0  0  0  0  0  0  0  0  0
   -4.0415  -17.4869   14.1881 H   0  0  0  0  0  0  0  0  0  0  0  0
   -5.6098  -17.3202   13.4093 H   0  0  0  0  0  0  0  0  0  0  0  0
   -4.0497  -18.2706   16.5776 H   0  0  0  0  0  0  0  0  0  0  0  0
   -6.1183  -18.9071   18.3076 H   0  0  0  0  0  0  0  0  0  0  0  0
   -7.7270  -16.9794   14.9759 H   0  0  0  0  0  0  0  0  0  0  0  0
  1  2  1  0
  2  3  1  0
  3  4  1  0
  4  5  1  0
  5  6  2  0
  5  7  1  0
  7  8  1  0
  8  9  1  0
  9 10  2  0
 10 11  1  0
 11 12  2  0
 12 13  1  0
  2 14  1  0
 14 15  1  0
 14 16  1  0
 16 17  2  0
 16 18  1  0
 18 19  1  0
 19 20  1  0
 20 21  1  0
 21 22  2  0
 22 23  1  0
 23 24  2  0
 13  9  1  0
 24 20  1  0
  1 25  1  0
  1 26  1  0
  1 27  1  0
  2 28  1  0
  3 29  1  0
  3 30  1  0
  4 31  1  0
  7 32  1  0
  7 33  1  0
  8 34  1  0
  8 35  1  0
 10 36  1  0
 11 37  1  0
 13 38  1  0
 15 39  1  0
 15 40  1  0
 15 41  1  0
 18 42  1  0
 18 43  1  0
 19 44  1  0
 19 45  1  0
 21 46  1  0
 22 47  1  0
 24 48  1  0
M  END
>  <Energy>  (1058) 
79.985500824460857

>  <compound_id>  (1058) 
8166

>  <target_id>  (1058) 
1

>  <reference_id>  (1058) 
101

>  <inspiration_ids>  (1058) 
[101, 122]

>  <energy_score>  (1058) 
58.318595021177885

>  <distance_score>  (1058) 
12.94965543803672

>  <path>  (1058) 
/opt/xchem-fragalysis-2/maxwin/BulkDock/SCRATCH/511013/C8166-P101/C8166-P101.minimised.mol

>  <scratch_subdir>  (1058) 
/opt/xchem-fragalysis-2/maxwin/BulkDock/SCRATCH/511013/C8166-P101

>  <fragmenstein_runtime>  (1058) 
47.82467293739319

>  <fragmenstein_outcome>  (1058) 
too moved

>  <fragmenstein_mode>  (1058) 
expansion

>  <fragmenstein_error>  (1058) 


$$$$
C8166-P122
     RDKit          3D

 48 49  0  0  0  0  0  0  0  0999 V2000
   -0.9494  -14.9169   22.2229 C   0  0  0  0  0  0  0  0  0  0  0  0
   -1.9614  -14.8642   20.5131 C   0  0  0  0  0  0  0  0  0  0  0  0
   -2.1531  -12.8412   20.2263 C   0  0  0  0  0  0  0  0  0  0  0  0
   -1.7076  -11.5299   20.8051 N   0  0  0  0  0  0  0  0  0  0  0  0
   -1.9219  -10.1608   20.3461 C   0  0  0  0  0  0  0  0  0  0  0  0
   -2.4414   -9.7425   19.3463 O   0  0  0  0  0  0  0  0  0  0  0  0
   -1.4275   -9.0976   21.3977 C   0  0  0  0  0  0  0  0  0  0  0  0
    0.0654   -8.6541   21.4291 C   0  0  0  0  0  0  0  0  0  0  0  0
    0.4576   -7.6225   22.5301 C   0  0  0  0  0  0  0  0  0  0  0  0
    1.6627   -7.1476   23.0313 C   0  0  0  0  0  0  0  0  0  0  0  0
    1.3796   -6.0983   23.9072 C   0  0  0  0  0  0  0  0  0  0  0  0
    0.0712   -5.9741   24.0821 N   0  0  0  0  0  0  0  0  0  0  0  0
   -0.4478   -6.9893   23.3587 N   0  0  0  0  0  0  0  0  0  0  0  0
   -2.8476  -16.5040   20.0349 N   0  0  0  0  0  0  0  0  0  0  0  0
   -2.3510  -16.2001   18.7723 C   0  0  0  0  0  0  0  0  0  0  0  0
   -2.5441  -17.8206   20.3368 C   0  0  0  0  0  0  0  0  0  0  0  0
   -1.6019  -18.2784   20.8932 O   0  0  0  0  0  0  0  0  0  0  0  0
   -3.8381  -19.1055   19.6964 C   0  0  0  0  0  0  0  0  0  0  0  0
   -4.8470  -20.4990   20.5820 C   0  0  0  0  0  0  0  0  0  0  0  0
   -5.0548  -22.1250   21.3868 N   0  0  0  0  0  0  0  0  0  0  0  0
   -5.6021  -23.2792   22.5326 C   0  0  0  0  0  0  0  0  0  0  0  0
   -5.5339  -24.5949   22.1262 C   0  0  0  0  0  0  0  0  0  0  0  0
   -5.1622  -24.7685   20.8421 N   0  0  0  0  0  0  0  0  0  0  0  0
   -4.8716  -23.6074   20.3144 C   0  0  0  0  0  0  0  0  0  0  0  0
   -0.1893  -14.1743   22.3759 H   0  0  0  0  0  0  0  0  0  0  0  0
   -1.9576  -14.7372   22.5442 H   0  0  0  0  0  0  0  0  0  0  0  0
   -1.1625  -15.0239   23.3316 H   0  0  0  0  0  0  0  0  0  0  0  0
   -1.2328  -15.2291   19.8175 H   0  0  0  0  0  0  0  0  0  0  0  0
   -2.0180  -12.6419   19.1324 H   0  0  0  0  0  0  0  0  0  0  0  0
   -3.2103  -12.5304   20.3351 H   0  0  0  0  0  0  0  0  0  0  0  0
   -1.3134  -11.5072   21.7305 H   0  0  0  0  0  0  0  0  0  0  0  0
   -2.0827   -8.2371   21.2552 H   0  0  0  0  0  0  0  0  0  0  0  0
   -1.7263   -9.4255   22.3818 H   0  0  0  0  0  0  0  0  0  0  0  0
    0.6386   -9.5642   21.5220 H   0  0  0  0  0  0  0  0  0  0  0  0
    0.3782   -8.2896   20.4516 H   0  0  0  0  0  0  0  0  0  0  0  0
    2.6466   -7.5295   22.8805 H   0  0  0  0  0  0  0  0  0  0  0  0
    2.0577   -5.4625   24.4599 H   0  0  0  0  0  0  0  0  0  0  0  0
   -1.4548   -7.1375   23.4156 H   0  0  0  0  0  0  0  0  0  0  0  0
   -3.1685  -16.6171   18.1327 H   0  0  0  0  0  0  0  0  0  0  0  0
   -1.7852  -17.1002   18.5481 H   0  0  0  0  0  0  0  0  0  0  0  0
   -1.9180  -15.2991   18.3221 H   0  0  0  0  0  0  0  0  0  0  0  0
   -4.6587  -18.4549   19.3500 H   0  0  0  0  0  0  0  0  0  0  0  0
   -3.4273  -19.5166   18.7835 H   0  0  0  0  0  0  0  0  0  0  0  0
   -3.8349  -20.7247   20.9040 H   0  0  0  0  0  0  0  0  0  0  0  0
   -5.7115  -19.9960   21.0176 H   0  0  0  0  0  0  0  0  0  0  0  0
   -5.9081  -22.8967   23.4691 H   0  0  0  0  0  0  0  0  0  0  0  0
   -5.7621  -25.4496   22.7361 H   0  0  0  0  0  0  0  0  0  0  0  0
   -4.3997  -23.4230   19.3607 H   0  0  0  0  0  0  0  0  0  0  0  0
  1  2  1  0
  2  3  1  0
  3  4  1  0
  4  5  1  0
  5  6  2  0
  5  7  1  0
  7  8  1  0
  8  9  1  0
  9 10  2  0
 10 11  1  0
 11 12  2  0
 12 13  1  0
  2 14  1  0
 14 15  1  0
 14 16  1  0
 16 17  2  0
 16 18  1  0
 18 19  1  0
 19 20  1  0
 20 21  1  0
 21 22  2  0
 22 23  1  0
 23 24  2  0
 13  9  1  0
 24 20  1  0
  1 25  1  0
  1 26  1  0
  1 27  1  0
  2 28  1  0
  3 29  1  0
  3 30  1  0
  4 31  1  0
  7 32  1  0
  7 33  1  0
  8 34  1  0
  8 35  1  0
 10 36  1  0
 11 37  1  0
 13 38  1  0
 15 39  1  0
 15 40  1  0
 15 41  1  0
 18 42  1  0
 18 43  1  0
 19 44  1  0
 19 45  1  0
 21 46  1  0
 22 47  1  0
 24 48  1  0
M  END
>  <Energy>  (1059) 
683.0685725618963

>  <compound_id>  (1059) 
8166

>  <target_id>  (1059) 
1

>  <reference_id>  (1059) 
122

>  <inspiration_ids>  (1059) 
[101, 122]

>  <energy_score>  (1059) 
661.4016667585818

>  <distance_score>  (1059) 
12.31376921375801

>  <path>  (1059) 
/opt/xchem-fragalysis-2/maxwin/BulkDock/SCRATCH/511013/C8166-P122/C8166-P122.minimised.mol

>  <scratch_subdir>  (1059) 
/opt/xchem-fragalysis-2/maxwin/BulkDock/SCRATCH/511013/C8166-P122

>  <fragmenstein_runtime>  (1059) 
33.51796340942383

>  <fragmenstein_outcome>  (1059) 
too moved

>  <fragmenstein_mode>  (1059) 
expansion

>  <fragmenstein_error>  (1059) 


$$$$
C8167-P101
     RDKit          3D

 42 43  0  0  0  0  0  0  0  0999 V2000
   -5.5780  -22.7648   26.8279 C   0  0  0  0  0  0  0  0  0  0  0  0
   -4.9626  -21.8856   25.8715 N   0  0  0  0  0  0  0  0  0  0  0  0
   -5.1346  -22.2224   24.6519 C   0  0  0  0  0  0  0  0  0  0  0  0
   -5.0505  -20.9757   23.9505 N   0  0  0  0  0  0  0  0  0  0  0  0
   -3.7750  -20.4506   24.2241 C   0  0  0  0  0  0  0  0  0  0  0  0
   -2.0645  -20.4076   23.2617 C   0  0  0  0  0  0  0  0  0  0  0  0
   -1.4532  -21.3958   23.4967 O   0  0  0  0  0  0  0  0  0  0  0  0
   -1.2277  -19.0402   22.2165 N   0  0  0  0  0  0  0  0  0  0  0  0
    0.6541  -18.8697   21.4878 C   0  0  0  0  0  0  0  0  0  0  0  0
    0.0676  -17.2105   20.9874 C   0  0  0  0  0  0  0  0  0  0  0  0
    1.2731  -20.3178   22.5795 C   0  0  0  0  0  0  0  0  0  0  0  0
    2.5407  -19.6167   21.0032 C   0  0  0  0  0  0  0  0  0  0  0  0
    4.4448  -19.4579   21.5514 N   0  0  0  0  0  0  0  0  0  0  0  0
    5.7008  -20.2789   21.1330 C   0  0  0  0  0  0  0  0  0  0  0  0
    5.7989  -21.2673   20.4307 O   0  0  0  0  0  0  0  0  0  0  0  0
    7.0059  -19.5754   21.6731 C   0  0  0  0  0  0  0  0  0  0  0  0
    7.7468  -18.5887   20.7239 C   0  0  0  0  0  0  0  0  0  0  0  0
    9.0884  -18.2206   20.6678 C   0  0  0  0  0  0  0  0  0  0  0  0
    9.1996  -17.2564   19.6426 C   0  0  0  0  0  0  0  0  0  0  0  0
    8.0193  -16.9997   19.0817 N   0  0  0  0  0  0  0  0  0  0  0  0
    7.1601  -17.7947   19.7641 N   0  0  0  0  0  0  0  0  0  0  0  0
   -4.5905  -20.5187   25.5688 C   0  0  0  0  0  0  0  0  0  0  0  0
   -6.4898  -23.1890   26.4316 H   0  0  0  0  0  0  0  0  0  0  0  0
   -4.8482  -23.5406   26.9802 H   0  0  0  0  0  0  0  0  0  0  0  0
   -5.8660  -22.2421   27.7003 H   0  0  0  0  0  0  0  0  0  0  0  0
   -5.5513  -23.1780   24.2648 H   0  0  0  0  0  0  0  0  0  0  0  0
   -1.8502  -18.3658   22.0395 H   0  0  0  0  0  0  0  0  0  0  0  0
   -0.0788  -16.4117   21.6741 H   0  0  0  0  0  0  0  0  0  0  0  0
   -0.9505  -17.3057   20.5622 H   0  0  0  0  0  0  0  0  0  0  0  0
    0.6049  -16.7714   20.1594 H   0  0  0  0  0  0  0  0  0  0  0  0
    0.5244  -20.3428   23.3683 H   0  0  0  0  0  0  0  0  0  0  0  0
    2.2315  -20.1277   23.0681 H   0  0  0  0  0  0  0  0  0  0  0  0
    1.5498  -21.2055   22.0362 H   0  0  0  0  0  0  0  0  0  0  0  0
    2.7743  -19.2541   21.9382 H   0  0  0  0  0  0  0  0  0  0  0  0
    2.4586  -20.5849   20.4972 H   0  0  0  0  0  0  0  0  0  0  0  0
    4.7172  -18.7534   22.2105 H   0  0  0  0  0  0  0  0  0  0  0  0
    6.8172  -19.0546   22.6099 H   0  0  0  0  0  0  0  0  0  0  0  0
    7.7044  -20.3860   21.9200 H   0  0  0  0  0  0  0  0  0  0  0  0
    9.8846  -18.6134   21.2847 H   0  0  0  0  0  0  0  0  0  0  0  0
   10.0822  -16.7412   19.2866 H   0  0  0  0  0  0  0  0  0  0  0  0
    6.1700  -17.7063   19.5658 H   0  0  0  0  0  0  0  0  0  0  0  0
   -5.1875  -19.8507   26.1623 H   0  0  0  0  0  0  0  0  0  0  0  0
  1  2  1  0
  2  3  1  0
  3  4  2  0
  4  5  1  0
  5  6  1  0
  6  7  2  0
  6  8  1  0
  8  9  1  0
  9 10  1  0
  9 11  1  0
  9 12  1  0
 12 13  1  0
 13 14  1  0
 14 15  2  0
 14 16  1  0
 16 17  1  0
 17 18  2  0
 18 19  1  0
 19 20  2  0
 20 21  1  0
  5 22  2  0
 22  2  1  0
 21 17  1  0
  1 23  1  0
  1 24  1  0
  1 25  1  0
  3 26  1  0
  8 27  1  0
 10 28  1  0
 10 29  1  0
 10 30  1  0
 11 31  1  0
 11 32  1  0
 11 33  1  0
 12 34  1  0
 12 35  1  0
 13 36  1  0
 16 37  1  0
 16 38  1  0
 18 39  1  0
 19 40  1  0
 21 41  1  0
 22 42  1  0
M  END
>  <Energy>  (1060) 
939.21629590923237

>  <compound_id>  (1060) 
8167

>  <target_id>  (1060) 
1

>  <reference_id>  (1060) 
101

>  <inspiration_ids>  (1060) 
[101, 122]

>  <energy_score>  (1060) 
839.9497499211557

>  <distance_score>  (1060) 
13.647942970974627

>  <path>  (1060) 
/opt/xchem-fragalysis-2/maxwin/BulkDock/SCRATCH/511013/C8167-P101/C8167-P101.minimised.mol

>  <scratch_subdir>  (1060) 
/opt/xchem-fragalysis-2/maxwin/BulkDock/SCRATCH/511013/C8167-P101

>  <fragmenstein_runtime>  (1060) 
21.21853017807007

>  <fragmenstein_outcome>  (1060) 
too moved

>  <fragmenstein_mode>  (1060) 
expansion

>  <fragmenstein_error>  (1060) 


$$$$
C8167-P122
     RDKit          3D

 42 43  0  0  0  0  0  0  0  0999 V2000
   -6.9351  -18.3459   16.1288 C   0  0  0  0  0  0  0  0  0  0  0  0
   -6.2755  -17.0957   15.8563 N   0  0  0  0  0  0  0  0  0  0  0  0
   -6.8236  -15.8535   15.9664 C   0  0  0  0  0  0  0  0  0  0  0  0
   -5.9349  -14.9049   15.7248 N   0  0  0  0  0  0  0  0  0  0  0  0
   -4.7936  -15.5610   15.2708 C   0  0  0  0  0  0  0  0  0  0  0  0
   -3.5699  -14.9064   14.6761 C   0  0  0  0  0  0  0  0  0  0  0  0
   -2.9364  -15.5643   13.9008 O   0  0  0  0  0  0  0  0  0  0  0  0
   -3.3783  -13.5462   15.1369 N   0  0  0  0  0  0  0  0  0  0  0  0
   -2.2693  -12.5576   14.8675 C   0  0  0  0  0  0  0  0  0  0  0  0
   -2.2164  -12.3152   13.3499 C   0  0  0  0  0  0  0  0  0  0  0  0
   -0.9461  -13.1789   15.3220 C   0  0  0  0  0  0  0  0  0  0  0  0
   -2.4929  -11.1856   15.6098 C   0  0  0  0  0  0  0  0  0  0  0  0
   -1.3645  -10.3045   16.0027 N   0  0  0  0  0  0  0  0  0  0  0  0
   -0.3424   -9.6370   15.1964 C   0  0  0  0  0  0  0  0  0  0  0  0
   -0.1107   -9.6983   14.0205 O   0  0  0  0  0  0  0  0  0  0  0  0
    0.4646   -8.6266   16.0822 C   0  0  0  0  0  0  0  0  0  0  0  0
    1.9483   -8.4940   15.8050 C   0  0  0  0  0  0  0  0  0  0  0  0
    3.0017   -8.2170   16.6623 C   0  0  0  0  0  0  0  0  0  0  0  0
    4.1475   -8.1803   15.8518 C   0  0  0  0  0  0  0  0  0  0  0  0
    3.8581   -8.3951   14.5687 N   0  0  0  0  0  0  0  0  0  0  0  0
    2.5211   -8.5766   14.5604 N   0  0  0  0  0  0  0  0  0  0  0  0
   -5.0066  -16.9336   15.3859 C   0  0  0  0  0  0  0  0  0  0  0  0
   -7.4389  -18.6733   15.2162 H   0  0  0  0  0  0  0  0  0  0  0  0
   -6.1899  -19.0834   16.4379 H   0  0  0  0  0  0  0  0  0  0  0  0
   -7.6606  -18.1992   16.9331 H   0  0  0  0  0  0  0  0  0  0  0  0
   -7.8509  -15.6885   16.2654 H   0  0  0  0  0  0  0  0  0  0  0  0
   -4.1587  -13.2861   15.7339 H   0  0  0  0  0  0  0  0  0  0  0  0
   -1.4244  -11.6142   13.0760 H   0  0  0  0  0  0  0  0  0  0  0  0
   -3.1674  -11.9102   12.9853 H   0  0  0  0  0  0  0  0  0  0  0  0
   -2.0297  -13.2447   12.8007 H   0  0  0  0  0  0  0  0  0  0  0  0
   -0.9416  -13.2957   16.4088 H   0  0  0  0  0  0  0  0  0  0  0  0
   -0.0873  -12.5621   15.0392 H   0  0  0  0  0  0  0  0  0  0  0  0
   -0.7879  -14.1652   14.8760 H   0  0  0  0  0  0  0  0  0  0  0  0
   -3.0022  -11.3969   16.5588 H   0  0  0  0  0  0  0  0  0  0  0  0
   -3.1809  -10.5610   15.0276 H   0  0  0  0  0  0  0  0  0  0  0  0
   -1.3194   -9.9517   16.9571 H   0  0  0  0  0  0  0  0  0  0  0  0
   -0.0017   -7.6452   15.9268 H   0  0  0  0  0  0  0  0  0  0  0  0
    0.3400   -8.8653   17.1420 H   0  0  0  0  0  0  0  0  0  0  0  0
    2.9442   -8.0837   17.7335 H   0  0  0  0  0  0  0  0  0  0  0  0
    5.1740   -8.0107   16.1393 H   0  0  0  0  0  0  0  0  0  0  0  0
    2.0562   -8.7773   13.6771 H   0  0  0  0  0  0  0  0  0  0  0  0
   -4.3668  -17.7651   15.1267 H   0  0  0  0  0  0  0  0  0  0  0  0
  1  2  1  0
  2  3  1  0
  3  4  2  0
  4  5  1  0
  5  6  1  0
  6  7  2  0
  6  8  1  0
  8  9  1  0
  9 10  1  0
  9 11  1  0
  9 12  1  0
 12 13  1  0
 13 14  1  0
 14 15  2  0
 14 16  1  0
 16 17  1  0
 17 18  2  0
 18 19  1  0
 19 20  2  0
 20 21  1  0
  5 22  2  0
 22  2  1  0
 21 17  1  0
  1 23  1  0
  1 24  1  0
  1 25  1  0
  3 26  1  0
  8 27  1  0
 10 28  1  0
 10 29  1  0
 10 30  1  0
 11 31  1  0
 11 32  1  0
 11 33  1  0
 12 34  1  0
 12 35  1  0
 13 36  1  0
 16 37  1  0
 16 38  1  0
 18 39  1  0
 19 40  1  0
 21 41  1  0
 22 42  1  0
M  END
>  <Energy>  (1061) 
65.805190656977203

>  <compound_id>  (1061) 
8167

>  <target_id>  (1061) 
1

>  <reference_id>  (1061) 
122

>  <inspiration_ids>  (1061) 
[101, 122]

>  <energy_score>  (1061) 
-33.461355331098616

>  <distance_score>  (1061) 
15.117563233991342

>  <path>  (1061) 
/opt/xchem-fragalysis-2/maxwin/BulkDock/SCRATCH/511013/C8167-P122/C8167-P122.minimised.mol

>  <scratch_subdir>  (1061) 
/opt/xchem-fragalysis-2/maxwin/BulkDock/SCRATCH/511013/C8167-P122

>  <fragmenstein_runtime>  (1061) 
38.03966999053955

>  <fragmenstein_outcome>  (1061) 
too moved

>  <fragmenstein_mode>  (1061) 
expansion

>  <fragmenstein_error>  (1061) 


$$$$
C8168-P101
     RDKit          3D

 42 43  0  0  0  0  0  0  0  0999 V2000
  -10.3577  -14.8328   23.9363 C   0  0  0  0  0  0  0  0  0  0  0  0
   -9.3889  -13.7506   23.6520 C   0  0  0  0  0  0  0  0  0  0  0  0
   -9.2396  -13.0845   22.5215 N   0  0  0  0  0  0  0  0  0  0  0  0
   -8.2126  -12.1525   22.7180 C   0  0  0  0  0  0  0  0  0  0  0  0
   -7.7905  -11.2457   21.5564 C   0  0  0  0  0  0  0  0  0  0  0  0
   -6.5952  -10.2447   21.7399 C   0  0  0  0  0  0  0  0  0  0  0  0
   -6.4618   -9.6984   22.8014 O   0  0  0  0  0  0  0  0  0  0  0  0
   -5.8488  -10.0835   20.4765 N   0  0  0  0  0  0  0  0  0  0  0  0
   -4.7772   -9.1368   20.1006 C   0  0  0  0  0  0  0  0  0  0  0  0
   -4.0771   -9.2653   18.6490 C   0  0  0  0  0  0  0  0  0  0  0  0
   -5.1685   -9.3987   17.5736 C   0  0  0  0  0  0  0  0  0  0  0  0
   -3.0797   -8.0622   18.1614 N   0  0  0  0  0  0  0  0  0  0  0  0
   -2.3198   -7.8055   17.4265 C   0  0  0  0  0  0  0  0  0  0  0  0
   -2.3158   -9.1022   16.4638 O   0  0  0  0  0  0  0  0  0  0  0  0
   -1.4271   -6.6609   16.9734 C   0  0  0  0  0  0  0  0  0  0  0  0
    0.0832   -6.7735   16.8759 C   0  0  0  0  0  0  0  0  0  0  0  0
    1.0750   -7.3685   17.6319 C   0  0  0  0  0  0  0  0  0  0  0  0
    2.2990   -6.9704   17.0468 C   0  0  0  0  0  0  0  0  0  0  0  0
    2.1199   -6.1604   16.0052 N   0  0  0  0  0  0  0  0  0  0  0  0
    0.7805   -6.0801   15.9045 N   0  0  0  0  0  0  0  0  0  0  0  0
   -7.7379  -12.3115   24.0041 C   0  0  0  0  0  0  0  0  0  0  0  0
   -8.4831  -13.3099   24.5818 N   0  0  0  0  0  0  0  0  0  0  0  0
   -9.8346  -15.7668   24.1646 H   0  0  0  0  0  0  0  0  0  0  0  0
  -10.9913  -14.5704   24.7891 H   0  0  0  0  0  0  0  0  0  0  0  0
  -11.0049  -15.0072   23.0714 H   0  0  0  0  0  0  0  0  0  0  0  0
   -7.5958  -11.8966   20.6975 H   0  0  0  0  0  0  0  0  0  0  0  0
   -8.6587  -10.6286   21.2912 H   0  0  0  0  0  0  0  0  0  0  0  0
   -6.2866  -10.6464   19.7587 H   0  0  0  0  0  0  0  0  0  0  0  0
   -4.0050   -9.1962   20.8763 H   0  0  0  0  0  0  0  0  0  0  0  0
   -5.2284   -8.1406   20.1916 H   0  0  0  0  0  0  0  0  0  0  0  0
   -3.4569  -10.1708   18.6341 H   0  0  0  0  0  0  0  0  0  0  0  0
   -5.7853  -10.2870   17.7352 H   0  0  0  0  0  0  0  0  0  0  0  0
   -4.7427   -9.4861   16.5701 H   0  0  0  0  0  0  0  0  0  0  0  0
   -5.8199   -8.5181   17.5756 H   0  0  0  0  0  0  0  0  0  0  0  0
   -3.5975   -7.9333   18.9874 H   0  0  0  0  0  0  0  0  0  0  0  0
   -1.6497   -5.8066   17.6242 H   0  0  0  0  0  0  0  0  0  0  0  0
   -1.8146   -6.3739   15.9857 H   0  0  0  0  0  0  0  0  0  0  0  0
    0.9328   -8.0104   18.4910 H   0  0  0  0  0  0  0  0  0  0  0  0
    3.3064   -7.2378   17.3303 H   0  0  0  0  0  0  0  0  0  0  0  0
    0.3965   -5.5142   15.1556 H   0  0  0  0  0  0  0  0  0  0  0  0
   -6.9506  -11.8017   24.5441 H   0  0  0  0  0  0  0  0  0  0  0  0
   -8.3892  -13.6491   25.5296 H   0  0  0  0  0  0  0  0  0  0  0  0
  1  2  1  0
  2  3  2  0
  3  4  1  0
  4  5  1  0
  5  6  1  0
  6  7  2  0
  6  8  1  0
  8  9  1  0
  9 10  1  0
 10 11  1  0
 10 12  1  0
 12 13  1  0
 13 14  2  0
 13 15  1  0
 15 16  1  0
 16 17  2  0
 17 18  1  0
 18 19  2  0
 19 20  1  0
  4 21  2  0
 21 22  1  0
 22  2  1  0
 20 16  1  0
  1 23  1  0
  1 24  1  0
  1 25  1  0
  5 26  1  0
  5 27  1  0
  8 28  1  0
  9 29  1  0
  9 30  1  0
 10 31  1  0
 11 32  1  0
 11 33  1  0
 11 34  1  0
 12 35  1  0
 15 36  1  0
 15 37  1  0
 17 38  1  0
 18 39  1  0
 20 40  1  0
 21 41  1  0
 22 42  1  0
M  END
>  <Energy>  (1062) 
265.03798302839215

>  <compound_id>  (1062) 
8168

>  <target_id>  (1062) 
1

>  <reference_id>  (1062) 
101

>  <inspiration_ids>  (1062) 
[101, 122]

>  <energy_score>  (1062) 
201.60620448154862

>  <distance_score>  (1062) 
13.791241034467427

>  <path>  (1062) 
/opt/xchem-fragalysis-2/maxwin/BulkDock/SCRATCH/511013/C8168-P101/C8168-P101.minimised.mol

>  <scratch_subdir>  (1062) 
/opt/xchem-fragalysis-2/maxwin/BulkDock/SCRATCH/511013/C8168-P101

>  <fragmenstein_runtime>  (1062) 
26.64477562904358

>  <fragmenstein_outcome>  (1062) 
too moved

>  <fragmenstein_mode>  (1062) 
expansion

>  <fragmenstein_error>  (1062) 


$$$$
C8168-P122
     RDKit          3D

 42 43  0  0  0  0  0  0  0  0999 V2000
   -8.9370  -14.6561   25.2037 C   0  0  0  0  0  0  0  0  0  0  0  0
   -8.7746  -13.6699   24.1115 C   0  0  0  0  0  0  0  0  0  0  0  0
   -7.7817  -12.8137   23.9470 N   0  0  0  0  0  0  0  0  0  0  0  0
   -8.0544  -12.0715   22.7934 C   0  0  0  0  0  0  0  0  0  0  0  0
   -7.1529  -10.8981   22.3738 C   0  0  0  0  0  0  0  0  0  0  0  0
   -6.7446  -10.7328   20.8537 C   0  0  0  0  0  0  0  0  0  0  0  0
   -7.4238  -11.2575   20.0124 O   0  0  0  0  0  0  0  0  0  0  0  0
   -5.5839   -9.8326   20.7252 N   0  0  0  0  0  0  0  0  0  0  0  0
   -4.9546   -9.2156   19.5220 C   0  0  0  0  0  0  0  0  0  0  0  0
   -3.6829   -9.8469   18.8192 C   0  0  0  0  0  0  0  0  0  0  0  0
   -3.1572  -11.0434   19.5892 C   0  0  0  0  0  0  0  0  0  0  0  0
   -2.5349   -8.9168   18.6280 N   0  0  0  0  0  0  0  0  0  0  0  0
   -1.8478   -8.4631   17.3954 C   0  0  0  0  0  0  0  0  0  0  0  0
   -2.0981   -8.6716   16.2401 O   0  0  0  0  0  0  0  0  0  0  0  0
   -0.6699   -7.5165   17.7993 C   0  0  0  0  0  0  0  0  0  0  0  0
    0.5494   -7.2341   16.9392 C   0  0  0  0  0  0  0  0  0  0  0  0
    0.7817   -6.3618   15.8924 C   0  0  0  0  0  0  0  0  0  0  0  0
    2.1824   -6.3243   15.7313 C   0  0  0  0  0  0  0  0  0  0  0  0
    2.8141   -7.1157   16.5982 N   0  0  0  0  0  0  0  0  0  0  0  0
    1.8031   -7.6910   17.2839 N   0  0  0  0  0  0  0  0  0  0  0  0
   -9.2492  -12.5318   22.2686 C   0  0  0  0  0  0  0  0  0  0  0  0
   -9.6830  -13.5419   23.0921 N   0  0  0  0  0  0  0  0  0  0  0  0
   -8.1676  -14.5140   25.9686 H   0  0  0  0  0  0  0  0  0  0  0  0
   -8.8505  -15.6753   24.8150 H   0  0  0  0  0  0  0  0  0  0  0  0
   -9.9152  -14.5475   25.6820 H   0  0  0  0  0  0  0  0  0  0  0  0
   -6.2658  -10.9020   23.0087 H   0  0  0  0  0  0  0  0  0  0  0  0
   -7.7013   -9.9803   22.6269 H   0  0  0  0  0  0  0  0  0  0  0  0
   -5.2030   -9.6466   21.6488 H   0  0  0  0  0  0  0  0  0  0  0  0
   -4.7226   -8.1854   19.8156 H   0  0  0  0  0  0  0  0  0  0  0  0
   -5.7502   -9.1581   18.7695 H   0  0  0  0  0  0  0  0  0  0  0  0
   -3.9811  -10.1712   17.8152 H   0  0  0  0  0  0  0  0  0  0  0  0
   -2.3675  -11.5528   19.0272 H   0  0  0  0  0  0  0  0  0  0  0  0
   -2.7322  -10.7419   20.5524 H   0  0  0  0  0  0  0  0  0  0  0  0
   -3.9621  -11.7524   19.7713 H   0  0  0  0  0  0  0  0  0  0  0  0
   -2.0009   -8.6208   19.4341 H   0  0  0  0  0  0  0  0  0  0  0  0
   -1.1464   -6.5395   17.9358 H   0  0  0  0  0  0  0  0  0  0  0  0
   -0.2748   -7.8762   18.7543 H   0  0  0  0  0  0  0  0  0  0  0  0
    0.0411   -5.7819   15.3594 H   0  0  0  0  0  0  0  0  0  0  0  0
    2.7533   -5.7376   15.0266 H   0  0  0  0  0  0  0  0  0  0  0  0
    2.0301   -8.3879   17.9871 H   0  0  0  0  0  0  0  0  0  0  0  0
   -9.8173  -12.2207   21.4021 H   0  0  0  0  0  0  0  0  0  0  0  0
  -10.5336  -14.0767   22.9820 H   0  0  0  0  0  0  0  0  0  0  0  0
  1  2  1  0
  2  3  2  0
  3  4  1  0
  4  5  1  0
  5  6  1  0
  6  7  2  0
  6  8  1  0
  8  9  1  0
  9 10  1  0
 10 11  1  0
 10 12  1  0
 12 13  1  0
 13 14  2  0
 13 15  1  0
 15 16  1  0
 16 17  2  0
 17 18  1  0
 18 19  2  0
 19 20  1  0
  4 21  2  0
 21 22  1  0
 22  2  1  0
 20 16  1  0
  1 23  1  0
  1 24  1  0
  1 25  1  0
  5 26  1  0
  5 27  1  0
  8 28  1  0
  9 29  1  0
  9 30  1  0
 10 31  1  0
 11 32  1  0
 11 33  1  0
 11 34  1  0
 12 35  1  0
 15 36  1  0
 15 37  1  0
 17 38  1  0
 18 39  1  0
 20 40  1  0
 21 41  1  0
 22 42  1  0
M  END
>  <Energy>  (1063) 
70.154291165225288

>  <compound_id>  (1063) 
8168

>  <target_id>  (1063) 
1

>  <reference_id>  (1063) 
122

>  <inspiration_ids>  (1063) 
[101, 122]

>  <energy_score>  (1063) 
6.72251261838494

>  <distance_score>  (1063) 
13.730767070918192

>  <path>  (1063) 
/opt/xchem-fragalysis-2/maxwin/BulkDock/SCRATCH/511013/C8168-P122/C8168-P122.minimised.mol

>  <scratch_subdir>  (1063) 
/opt/xchem-fragalysis-2/maxwin/BulkDock/SCRATCH/511013/C8168-P122

>  <fragmenstein_runtime>  (1063) 
32.60393023490906

>  <fragmenstein_outcome>  (1063) 
too moved

>  <fragmenstein_mode>  (1063) 
expansion

>  <fragmenstein_error>  (1063) 


$$$$
C8169-P101
     RDKit          3D

 26 27  0  0  0  0  0  0  0  0999 V2000
   -1.1780   -7.1216   17.4540 C   0  0  0  0  0  0  0  0  0  0  0  0
   -0.6323   -8.5115   17.6025 N   0  0  0  0  0  0  0  0  0  0  0  0
    0.4998   -7.9197   16.7636 C   0  0  0  0  0  0  0  0  0  0  0  0
    1.7564   -7.4044   17.4260 C   0  0  0  0  0  0  0  0  0  0  0  0
    2.6228   -6.3892   17.0449 C   0  0  0  0  0  0  0  0  0  0  0  0
    3.7433   -6.5184   17.8840 C   0  0  0  0  0  0  0  0  0  0  0  0
    3.6067   -7.5198   18.7513 N   0  0  0  0  0  0  0  0  0  0  0  0
    2.3786   -8.0233   18.4832 N   0  0  0  0  0  0  0  0  0  0  0  0
   -1.6422   -9.4807   17.2636 C   0  0  0  0  0  0  0  0  0  0  0  0
   -1.9034  -10.0003   16.2121 O   0  0  0  0  0  0  0  0  0  0  0  0
   -2.4454   -9.9179   18.3725 N   0  0  0  0  0  0  0  0  0  0  0  0
   -2.4951   -9.5326   19.7012 C   0  0  0  0  0  0  0  0  0  0  0  0
   -3.5360  -10.2241   20.2790 C   0  0  0  0  0  0  0  0  0  0  0  0
   -4.0985  -11.0998   19.3985 N   0  0  0  0  0  0  0  0  0  0  0  0
   -3.4338  -10.9022   18.2797 C   0  0  0  0  0  0  0  0  0  0  0  0
   -2.0717   -7.0893   18.0946 H   0  0  0  0  0  0  0  0  0  0  0  0
   -1.5883   -6.9138   16.4532 H   0  0  0  0  0  0  0  0  0  0  0  0
   -0.5481   -6.3175   17.8619 H   0  0  0  0  0  0  0  0  0  0  0  0
    0.2270   -7.3505   15.8558 H   0  0  0  0  0  0  0  0  0  0  0  0
    0.8645   -8.8396   16.2721 H   0  0  0  0  0  0  0  0  0  0  0  0
    2.4902   -5.6941   16.2277 H   0  0  0  0  0  0  0  0  0  0  0  0
    4.6568   -5.9435   17.8907 H   0  0  0  0  0  0  0  0  0  0  0  0
    2.0374   -8.8115   19.0350 H   0  0  0  0  0  0  0  0  0  0  0  0
   -1.8127   -8.7912   20.0902 H   0  0  0  0  0  0  0  0  0  0  0  0
   -3.9055  -10.1098   21.2873 H   0  0  0  0  0  0  0  0  0  0  0  0
   -3.6125  -11.4117   17.3413 H   0  0  0  0  0  0  0  0  0  0  0  0
  1  2  1  0
  2  3  1  0
  3  4  1  0
  4  5  2  0
  5  6  1  0
  6  7  2  0
  7  8  1  0
  2  9  1  0
  9 10  2  0
  9 11  1  0
 11 12  1  0
 12 13  2  0
 13 14  1  0
 14 15  2  0
  8  4  1  0
 15 11  1  0
  1 16  1  0
  1 17  1  0
  1 18  1  0
  3 19  1  0
  3 20  1  0
  5 21  1  0
  6 22  1  0
  8 23  1  0
 12 24  1  0
 13 25  1  0
 15 26  1  0
M  END
>  <Energy>  (1064) 
85.633852200189395

>  <compound_id>  (1064) 
8169

>  <target_id>  (1064) 
1

>  <reference_id>  (1064) 
101

>  <inspiration_ids>  (1064) 
[101, 122]

>  <energy_score>  (1064) 
44.491302247072895

>  <distance_score>  (1064) 
15.993287979372255

>  <path>  (1064) 
/opt/xchem-fragalysis-2/maxwin/BulkDock/SCRATCH/511013/C8169-P101/C8169-P101.minimised.mol

>  <scratch_subdir>  (1064) 
/opt/xchem-fragalysis-2/maxwin/BulkDock/SCRATCH/511013/C8169-P101

>  <fragmenstein_runtime>  (1064) 
17.27277374267578

>  <fragmenstein_outcome>  (1064) 
too moved

>  <fragmenstein_mode>  (1064) 
expansion

>  <fragmenstein_error>  (1064) 


$$$$
C8169-P122
     RDKit          3D

 26 27  0  0  0  0  0  0  0  0999 V2000
   -2.1759  -10.1528   16.8063 C   0  0  0  0  0  0  0  0  0  0  0  0
   -2.2423  -10.6637   15.3985 N   0  0  0  0  0  0  0  0  0  0  0  0
   -1.4071   -9.3717   15.1254 C   0  0  0  0  0  0  0  0  0  0  0  0
    0.1035   -9.2303   15.3533 C   0  0  0  0  0  0  0  0  0  0  0  0
    0.8267   -8.5661   16.3409 C   0  0  0  0  0  0  0  0  0  0  0  0
    2.1743   -8.5923   15.9309 C   0  0  0  0  0  0  0  0  0  0  0  0
    2.3158   -9.2059   14.7576 N   0  0  0  0  0  0  0  0  0  0  0  0
    1.0568   -9.5343   14.4030 N   0  0  0  0  0  0  0  0  0  0  0  0
   -3.6125  -10.9909   15.0534 C   0  0  0  0  0  0  0  0  0  0  0  0
   -4.4718  -10.3181   14.5520 O   0  0  0  0  0  0  0  0  0  0  0  0
   -4.0526  -12.3169   15.4158 N   0  0  0  0  0  0  0  0  0  0  0  0
   -5.3995  -12.7175   15.4496 C   0  0  0  0  0  0  0  0  0  0  0  0
   -5.4327  -14.0589   15.7287 C   0  0  0  0  0  0  0  0  0  0  0  0
   -4.1694  -14.5166   15.9228 N   0  0  0  0  0  0  0  0  0  0  0  0
   -3.3763  -13.4715   15.7515 C   0  0  0  0  0  0  0  0  0  0  0  0
   -1.1825  -10.1053   17.2465 H   0  0  0  0  0  0  0  0  0  0  0  0
   -2.7921   -9.2589   16.9865 H   0  0  0  0  0  0  0  0  0  0  0  0
   -2.6755  -10.9209   17.4160 H   0  0  0  0  0  0  0  0  0  0  0  0
   -1.9449   -8.4435   15.3885 H   0  0  0  0  0  0  0  0  0  0  0  0
   -1.4995   -9.3311   14.0262 H   0  0  0  0  0  0  0  0  0  0  0  0
    0.4296   -8.1122   17.2399 H   0  0  0  0  0  0  0  0  0  0  0  0
    3.0453   -8.1914   16.4332 H   0  0  0  0  0  0  0  0  0  0  0  0
    0.9171   -9.9535   13.4877 H   0  0  0  0  0  0  0  0  0  0  0  0
   -6.1817  -12.0050   15.2278 H   0  0  0  0  0  0  0  0  0  0  0  0
   -6.2935  -14.7107   15.7942 H   0  0  0  0  0  0  0  0  0  0  0  0
   -2.3051  -13.5075   15.8275 H   0  0  0  0  0  0  0  0  0  0  0  0
  1  2  1  0
  2  3  1  0
  3  4  1  0
  4  5  2  0
  5  6  1  0
  6  7  2  0
  7  8  1  0
  2  9  1  0
  9 10  2  0
  9 11  1  0
 11 12  1  0
 12 13  2  0
 13 14  1  0
 14 15  2  0
  8  4  1  0
 15 11  1  0
  1 16  1  0
  1 17  1  0
  1 18  1  0
  3 19  1  0
  3 20  1  0
  5 21  1  0
  6 22  1  0
  8 23  1  0
 12 24  1  0
 13 25  1  0
 15 26  1  0
M  END
>  <Energy>  (1065) 
95.017122619522482

>  <compound_id>  (1065) 
8169

>  <target_id>  (1065) 
1

>  <reference_id>  (1065) 
122

>  <inspiration_ids>  (1065) 
[101, 122]

>  <energy_score>  (1065) 
53.87457266641087

>  <distance_score>  (1065) 
16.34269869852081

>  <path>  (1065) 
/opt/xchem-fragalysis-2/maxwin/BulkDock/SCRATCH/511013/C8169-P122/C8169-P122.minimised.mol

>  <scratch_subdir>  (1065) 
/opt/xchem-fragalysis-2/maxwin/BulkDock/SCRATCH/511013/C8169-P122

>  <fragmenstein_runtime>  (1065) 
11.967355489730835

>  <fragmenstein_outcome>  (1065) 
too moved

>  <fragmenstein_mode>  (1065) 
expansion

>  <fragmenstein_error>  (1065) 


$$$$
C8170-P101
     RDKit          3D

 39 41  0  0  0  0  0  0  0  0999 V2000
   -3.0797  -11.3896   20.1593 C   0  0  0  0  0  0  0  0  0  0  0  0
   -2.6034  -11.7061   18.7781 C   0  0  0  0  0  0  0  0  0  0  0  0
   -1.8587  -10.4521   18.5217 N   0  0  0  0  0  0  0  0  0  0  0  0
   -2.1430   -9.3314   17.6263 C   0  0  0  0  0  0  0  0  0  0  0  0
   -3.0130   -9.1832   16.8105 O   0  0  0  0  0  0  0  0  0  0  0  0
   -1.1770   -8.1092   17.8962 C   0  0  0  0  0  0  0  0  0  0  0  0
    0.0256   -7.7357   17.0351 C   0  0  0  0  0  0  0  0  0  0  0  0
    1.2628   -7.2327   17.4227 C   0  0  0  0  0  0  0  0  0  0  0  0
    1.9928   -7.0288   16.2419 C   0  0  0  0  0  0  0  0  0  0  0  0
    1.2670   -7.3288   15.1654 N   0  0  0  0  0  0  0  0  0  0  0  0
    0.0659   -7.6950   15.6650 N   0  0  0  0  0  0  0  0  0  0  0  0
   -2.0544  -13.2917   18.6883 C   0  0  0  0  0  0  0  0  0  0  0  0
   -2.0364  -13.8414   17.5014 C   0  0  0  0  0  0  0  0  0  0  0  0
   -1.9134  -15.1792   17.8909 C   0  0  0  0  0  0  0  0  0  0  0  0
   -1.9308  -16.3533   19.0099 C   0  0  0  0  0  0  0  0  0  0  0  0
   -2.5952  -16.2067   20.0579 C   0  0  0  0  0  0  0  0  0  0  0  0
   -3.6047  -17.3060   19.4027 N   0  0  0  0  0  0  0  0  0  0  0  0
   -3.5231  -18.7012   19.4102 C   0  0  0  0  0  0  0  0  0  0  0  0
   -4.8400  -19.0930   19.3212 C   0  0  0  0  0  0  0  0  0  0  0  0
   -5.5141  -18.1442   18.6642 N   0  0  0  0  0  0  0  0  0  0  0  0
   -4.5614  -17.2709   18.3966 C   0  0  0  0  0  0  0  0  0  0  0  0
   -2.1737  -14.6984   19.9870 C   0  0  0  0  0  0  0  0  0  0  0  0
   -4.0595  -11.8260   20.2976 H   0  0  0  0  0  0  0  0  0  0  0  0
   -3.1886  -10.3210   20.3439 H   0  0  0  0  0  0  0  0  0  0  0  0
   -2.3233  -11.7046   20.8669 H   0  0  0  0  0  0  0  0  0  0  0  0
   -3.4653  -11.6392   18.1167 H   0  0  0  0  0  0  0  0  0  0  0  0
   -1.0905  -10.1985   19.1377 H   0  0  0  0  0  0  0  0  0  0  0  0
   -1.8365   -7.2318   17.8799 H   0  0  0  0  0  0  0  0  0  0  0  0
   -0.8041   -8.2202   18.9172 H   0  0  0  0  0  0  0  0  0  0  0  0
    1.5813   -7.0360   18.4332 H   0  0  0  0  0  0  0  0  0  0  0  0
    3.0057   -6.6694   16.1179 H   0  0  0  0  0  0  0  0  0  0  0  0
   -0.6772   -7.9161   15.0083 H   0  0  0  0  0  0  0  0  0  0  0  0
   -2.2570  -13.5759   16.5240 H   0  0  0  0  0  0  0  0  0  0  0  0
   -1.0200  -14.9433   18.5604 H   0  0  0  0  0  0  0  0  0  0  0  0
   -1.5783  -17.3923   18.8243 H   0  0  0  0  0  0  0  0  0  0  0  0
   -2.6415  -19.1995   19.7264 H   0  0  0  0  0  0  0  0  0  0  0  0
   -5.3053  -19.9903   19.6827 H   0  0  0  0  0  0  0  0  0  0  0  0
   -4.5708  -16.5398   17.6021 H   0  0  0  0  0  0  0  0  0  0  0  0
   -2.1247  -14.2597   20.9530 H   0  0  0  0  0  0  0  0  0  0  0  0
  1  2  1  0
  2  3  1  0
  3  4  1  0
  4  5  2  0
  4  6  1  0
  6  7  1  0
  7  8  2  0
  8  9  1  0
  9 10  2  0
 10 11  1  0
  2 12  1  0
 12 13  2  0
 13 14  1  0
 14 15  2  0
 15 16  1  0
 16 17  1  0
 17 18  1  0
 18 19  2  0
 19 20  1  0
 20 21  2  0
 16 22  2  0
 11  7  1  0
 22 12  1  0
 21 17  1  0
  1 23  1  0
  1 24  1  0
  1 25  1  0
  2 26  1  0
  3 27  1  0
  6 28  1  0
  6 29  1  0
  8 30  1  0
  9 31  1  0
 11 32  1  0
 13 33  1  0
 14 34  1  0
 15 35  1  0
 18 36  1  0
 19 37  1  0
 21 38  1  0
 22 39  1  0
M  END
>  <Energy>  (1066) 
489.6517442373862

>  <compound_id>  (1066) 
8170

>  <target_id>  (1066) 
1

>  <reference_id>  (1066) 
101

>  <inspiration_ids>  (1066) 
[101, 122]

>  <energy_score>  (1066) 
410.5936854108825

>  <distance_score>  (1066) 
13.321529495666534

>  <path>  (1066) 
/opt/xchem-fragalysis-2/maxwin/BulkDock/SCRATCH/511013/C8170-P101/C8170-P101.minimised.mol

>  <scratch_subdir>  (1066) 
/opt/xchem-fragalysis-2/maxwin/BulkDock/SCRATCH/511013/C8170-P101

>  <fragmenstein_runtime>  (1066) 
19.525765657424927

>  <fragmenstein_outcome>  (1066) 
too moved

>  <fragmenstein_mode>  (1066) 
expansion

>  <fragmenstein_error>  (1066) 


$$$$
C8170-P122
     RDKit          3D

 39 41  0  0  0  0  0  0  0  0999 V2000
   -1.3170  -12.1998   18.2507 C   0  0  0  0  0  0  0  0  0  0  0  0
   -0.0573  -13.4498   17.8180 C   0  0  0  0  0  0  0  0  0  0  0  0
    1.8970  -13.5283   18.1378 N   0  0  0  0  0  0  0  0  0  0  0  0
    3.2902  -12.1935   17.8478 C   0  0  0  0  0  0  0  0  0  0  0  0
    3.1367  -11.0899   17.3088 O   0  0  0  0  0  0  0  0  0  0  0  0
    4.7720  -12.8915   18.3690 C   0  0  0  0  0  0  0  0  0  0  0  0
    5.9924  -12.1237   17.8499 C   0  0  0  0  0  0  0  0  0  0  0  0
    6.7487  -12.1709   16.6960 C   0  0  0  0  0  0  0  0  0  0  0  0
    7.8110  -11.2662   16.9098 C   0  0  0  0  0  0  0  0  0  0  0  0
    7.7290  -10.6639   18.0997 N   0  0  0  0  0  0  0  0  0  0  0  0
    6.5972  -11.1597   18.6146 N   0  0  0  0  0  0  0  0  0  0  0  0
   -1.6596  -14.5739   18.1264 C   0  0  0  0  0  0  0  0  0  0  0  0
   -2.3321  -14.5784   16.8261 C   0  0  0  0  0  0  0  0  0  0  0  0
   -3.3834  -15.5312   16.4542 C   0  0  0  0  0  0  0  0  0  0  0  0
   -3.8992  -16.5987   17.2917 C   0  0  0  0  0  0  0  0  0  0  0  0
   -3.2394  -16.8769   18.5205 C   0  0  0  0  0  0  0  0  0  0  0  0
   -3.9492  -17.9162   19.1554 N   0  0  0  0  0  0  0  0  0  0  0  0
   -5.3040  -18.1732   19.2394 C   0  0  0  0  0  0  0  0  0  0  0  0
   -5.4522  -19.3928   19.8104 C   0  0  0  0  0  0  0  0  0  0  0  0
   -4.2453  -19.9953   19.8763 N   0  0  0  0  0  0  0  0  0  0  0  0
   -3.3984  -19.0830   19.4741 C   0  0  0  0  0  0  0  0  0  0  0  0
   -2.0612  -15.9259   19.0082 C   0  0  0  0  0  0  0  0  0  0  0  0
   -1.2545  -11.1708   17.9401 H   0  0  0  0  0  0  0  0  0  0  0  0
   -1.5271  -12.1075   19.3297 H   0  0  0  0  0  0  0  0  0  0  0  0
   -2.2913  -12.4485   17.8308 H   0  0  0  0  0  0  0  0  0  0  0  0
    0.1633  -13.7992   16.8655 H   0  0  0  0  0  0  0  0  0  0  0  0
    2.3139  -14.3935   18.5309 H   0  0  0  0  0  0  0  0  0  0  0  0
    4.7844  -12.8956   19.4628 H   0  0  0  0  0  0  0  0  0  0  0  0
    4.8536  -13.9312   18.0341 H   0  0  0  0  0  0  0  0  0  0  0  0
    6.5772  -12.7991   15.8334 H   0  0  0  0  0  0  0  0  0  0  0  0
    8.6348  -11.0222   16.2507 H   0  0  0  0  0  0  0  0  0  0  0  0
    6.2738  -10.8076   19.5061 H   0  0  0  0  0  0  0  0  0  0  0  0
   -1.7623  -14.1699   16.0369 H   0  0  0  0  0  0  0  0  0  0  0  0
   -3.3796  -15.8661   15.4119 H   0  0  0  0  0  0  0  0  0  0  0  0
   -4.4127  -17.4010   16.8198 H   0  0  0  0  0  0  0  0  0  0  0  0
   -6.0884  -17.5038   19.0040 H   0  0  0  0  0  0  0  0  0  0  0  0
   -6.3681  -19.8169   20.1662 H   0  0  0  0  0  0  0  0  0  0  0  0
   -2.3482  -19.1320   19.4430 H   0  0  0  0  0  0  0  0  0  0  0  0
   -1.5618  -16.1539   19.9410 H   0  0  0  0  0  0  0  0  0  0  0  0
  1  2  1  0
  2  3  1  0
  3  4  1  0
  4  5  2  0
  4  6  1  0
  6  7  1  0
  7  8  2  0
  8  9  1  0
  9 10  2  0
 10 11  1  0
  2 12  1  0
 12 13  2  0
 13 14  1  0
 14 15  2  0
 15 16  1  0
 16 17  1  0
 17 18  1  0
 18 19  2  0
 19 20  1  0
 20 21  2  0
 16 22  2  0
 11  7  1  0
 22 12  1  0
 21 17  1  0
  1 23  1  0
  1 24  1  0
  1 25  1  0
  2 26  1  0
  3 27  1  0
  6 28  1  0
  6 29  1  0
  8 30  1  0
  9 31  1  0
 11 32  1  0
 13 33  1  0
 14 34  1  0
 15 35  1  0
 18 36  1  0
 19 37  1  0
 21 38  1  0
 22 39  1  0
M  END
>  <Energy>  (1067) 
466.50191773713419

>  <compound_id>  (1067) 
8170

>  <target_id>  (1067) 
1

>  <reference_id>  (1067) 
122

>  <inspiration_ids>  (1067) 
[101, 122]

>  <energy_score>  (1067) 
387.4438589106337

>  <distance_score>  (1067) 
12.240009953322222

>  <path>  (1067) 
/opt/xchem-fragalysis-2/maxwin/BulkDock/SCRATCH/511013/C8170-P122/C8170-P122.minimised.mol

>  <scratch_subdir>  (1067) 
/opt/xchem-fragalysis-2/maxwin/BulkDock/SCRATCH/511013/C8170-P122

>  <fragmenstein_runtime>  (1067) 
21.980167388916016

>  <fragmenstein_outcome>  (1067) 
too moved

>  <fragmenstein_mode>  (1067) 
expansion

>  <fragmenstein_error>  (1067) 


$$$$
C8171-P101
     RDKit          3D

 26 27  0  0  0  0  0  0  0  0999 V2000
   -3.0671  -22.5260   22.4140 C   0  0  0  0  0  0  0  0  0  0  0  0
   -2.8459  -21.1260   22.6636 N   0  0  0  0  0  0  0  0  0  0  0  0
   -2.5464  -20.6615   23.8570 C   0  0  0  0  0  0  0  0  0  0  0  0
   -1.4889  -19.4250   23.3444 N   0  0  0  0  0  0  0  0  0  0  0  0
   -1.2933  -18.7688   21.7220 C   0  0  0  0  0  0  0  0  0  0  0  0
   -0.2532  -17.2789   20.9442 C   0  0  0  0  0  0  0  0  0  0  0  0
   -0.2567  -16.3656   21.6625 O   0  0  0  0  0  0  0  0  0  0  0  0
    0.6799  -17.1291   19.3605 N   0  0  0  0  0  0  0  0  0  0  0  0
    1.7939  -15.6120   18.5662 C   0  0  0  0  0  0  0  0  0  0  0  0
    3.3304  -14.9909   18.9199 C   0  0  0  0  0  0  0  0  0  0  0  0
    4.3705  -14.7741   18.0086 C   0  0  0  0  0  0  0  0  0  0  0  0
    5.3290  -13.9830   18.6697 C   0  0  0  0  0  0  0  0  0  0  0  0
    4.9549  -13.6987   19.9141 N   0  0  0  0  0  0  0  0  0  0  0  0
    3.7574  -14.3180   20.0488 N   0  0  0  0  0  0  0  0  0  0  0  0
   -1.7286  -20.2828   22.6358 C   0  0  0  0  0  0  0  0  0  0  0  0
   -3.8347  -22.8899   23.1024 H   0  0  0  0  0  0  0  0  0  0  0  0
   -3.4204  -22.6262   21.3851 H   0  0  0  0  0  0  0  0  0  0  0  0
   -2.1357  -23.0819   22.5495 H   0  0  0  0  0  0  0  0  0  0  0  0
   -2.7756  -20.9236   24.8932 H   0  0  0  0  0  0  0  0  0  0  0  0
    0.5165  -17.9797   18.7966 H   0  0  0  0  0  0  0  0  0  0  0  0
    2.2896  -16.2229   17.7579 H   0  0  0  0  0  0  0  0  0  0  0  0
    1.3960  -14.7514   17.9923 H   0  0  0  0  0  0  0  0  0  0  0  0
    4.3991  -15.1082   16.9805 H   0  0  0  0  0  0  0  0  0  0  0  0
    6.2686  -13.5984   18.2948 H   0  0  0  0  0  0  0  0  0  0  0  0
    3.2443  -14.1737   20.9186 H   0  0  0  0  0  0  0  0  0  0  0  0
   -0.8304  -21.0701   23.0797 H   0  0  0  0  0  0  0  0  0  0  0  0
  1  2  1  0
  2  3  1  0
  3  4  2  0
  4  5  1  0
  5  6  1  0
  6  7  2  0
  6  8  1  0
  8  9  1  0
  9 10  1  0
 10 11  2  0
 11 12  1  0
 12 13  2  0
 13 14  1  0
  5 15  2  0
 15  2  1  0
 14 10  1  0
  1 16  1  0
  1 17  1  0
  1 18  1  0
  3 19  1  0
  8 20  1  0
  9 21  1  0
  9 22  1  0
 11 23  1  0
 12 24  1  0
 14 25  1  0
 15 26  1  0
M  END
>  <Energy>  (1068) 
830.44545621974385

>  <compound_id>  (1068) 
8171

>  <target_id>  (1068) 
1

>  <reference_id>  (1068) 
101

>  <inspiration_ids>  (1068) 
[101, 122]

>  <energy_score>  (1068) 
805.0092081145261

>  <distance_score>  (1068) 
14.310861192073084

>  <path>  (1068) 
/opt/xchem-fragalysis-2/maxwin/BulkDock/SCRATCH/511013/C8171-P101/C8171-P101.minimised.mol

>  <scratch_subdir>  (1068) 
/opt/xchem-fragalysis-2/maxwin/BulkDock/SCRATCH/511013/C8171-P101

>  <fragmenstein_runtime>  (1068) 
13.193573713302612

>  <fragmenstein_outcome>  (1068) 
too moved

>  <fragmenstein_mode>  (1068) 
expansion

>  <fragmenstein_error>  (1068) 


$$$$
C8171-P122
     RDKit          3D

 26 27  0  0  0  0  0  0  0  0999 V2000
   -4.8698  -10.7629   19.4551 C   0  0  0  0  0  0  0  0  0  0  0  0
   -3.4351  -10.8603   19.3624 N   0  0  0  0  0  0  0  0  0  0  0  0
   -2.5475  -10.4619   20.3149 C   0  0  0  0  0  0  0  0  0  0  0  0
   -1.3331  -10.2998   19.8236 N   0  0  0  0  0  0  0  0  0  0  0  0
   -1.4408  -10.5654   18.4645 C   0  0  0  0  0  0  0  0  0  0  0  0
   -0.4060  -10.3212   17.3946 C   0  0  0  0  0  0  0  0  0  0  0  0
   -0.6035  -10.8900   16.3606 O   0  0  0  0  0  0  0  0  0  0  0  0
    0.6100   -9.3608   17.7617 N   0  0  0  0  0  0  0  0  0  0  0  0
    1.6429   -8.7177   16.9657 C   0  0  0  0  0  0  0  0  0  0  0  0
    2.8578   -8.1514   17.6357 C   0  0  0  0  0  0  0  0  0  0  0  0
    3.0660   -7.1211   18.5341 C   0  0  0  0  0  0  0  0  0  0  0  0
    4.4657   -6.9429   18.5965 C   0  0  0  0  0  0  0  0  0  0  0  0
    5.1171   -7.7921   17.8016 N   0  0  0  0  0  0  0  0  0  0  0  0
    4.1281   -8.5144   17.2361 N   0  0  0  0  0  0  0  0  0  0  0  0
   -2.7265  -11.0445   18.2113 C   0  0  0  0  0  0  0  0  0  0  0  0
   -5.1782   -9.8370   18.9612 H   0  0  0  0  0  0  0  0  0  0  0  0
   -5.3252  -11.6160   18.9519 H   0  0  0  0  0  0  0  0  0  0  0  0
   -5.1735  -10.7331   20.5023 H   0  0  0  0  0  0  0  0  0  0  0  0
   -2.8570  -10.2135   21.3178 H   0  0  0  0  0  0  0  0  0  0  0  0
    0.4229   -9.0243   18.7018 H   0  0  0  0  0  0  0  0  0  0  0  0
    1.1380   -7.9034   16.4314 H   0  0  0  0  0  0  0  0  0  0  0  0
    1.9364   -9.4414   16.1955 H   0  0  0  0  0  0  0  0  0  0  0  0
    2.3080   -6.5432   19.0442 H   0  0  0  0  0  0  0  0  0  0  0  0
    5.0264   -6.2242   19.1806 H   0  0  0  0  0  0  0  0  0  0  0  0
    4.3842   -9.2284   16.5606 H   0  0  0  0  0  0  0  0  0  0  0  0
   -3.1915  -11.3366   17.2788 H   0  0  0  0  0  0  0  0  0  0  0  0
  1  2  1  0
  2  3  1  0
  3  4  2  0
  4  5  1  0
  5  6  1  0
  6  7  2  0
  6  8  1  0
  8  9  1  0
  9 10  1  0
 10 11  2  0
 11 12  1  0
 12 13  2  0
 13 14  1  0
  5 15  2  0
 15  2  1  0
 14 10  1  0
  1 16  1  0
  1 17  1  0
  1 18  1  0
  3 19  1  0
  8 20  1  0
  9 21  1  0
  9 22  1  0
 11 23  1  0
 12 24  1  0
 14 25  1  0
 15 26  1  0
M  END
>  <Energy>  (1069) 
13.384115367306478

>  <compound_id>  (1069) 
8171

>  <target_id>  (1069) 
1

>  <reference_id>  (1069) 
122

>  <inspiration_ids>  (1069) 
[101, 122]

>  <energy_score>  (1069) 
-12.052132737902923

>  <distance_score>  (1069) 
16.570919364396396

>  <path>  (1069) 
/opt/xchem-fragalysis-2/maxwin/BulkDock/SCRATCH/511013/C8171-P122/C8171-P122.minimised.mol

>  <scratch_subdir>  (1069) 
/opt/xchem-fragalysis-2/maxwin/BulkDock/SCRATCH/511013/C8171-P122

>  <fragmenstein_runtime>  (1069) 
12.781587362289429

>  <fragmenstein_outcome>  (1069) 
too moved

>  <fragmenstein_mode>  (1069) 
expansion

>  <fragmenstein_error>  (1069) 


$$$$
C8172-P101
     RDKit          3D

 42 43  0  0  0  0  0  0  0  0999 V2000
   -0.2466  -26.2429   26.1024 C   0  0  0  0  0  0  0  0  0  0  0  0
    0.2221  -26.1974   24.7371 N   0  0  0  0  0  0  0  0  0  0  0  0
    0.4925  -27.3046   23.9878 C   0  0  0  0  0  0  0  0  0  0  0  0
    1.2046  -26.8260   22.9169 C   0  0  0  0  0  0  0  0  0  0  0  0
    1.3238  -25.4579   22.9657 N   0  0  0  0  0  0  0  0  0  0  0  0
    0.5210  -25.0689   23.9515 C   0  0  0  0  0  0  0  0  0  0  0  0
    0.2241  -23.4570   24.4505 C   0  0  0  0  0  0  0  0  0  0  0  0
    0.2462  -23.4124   25.6519 O   0  0  0  0  0  0  0  0  0  0  0  0
    0.0869  -22.0744   23.1839 N   0  0  0  0  0  0  0  0  0  0  0  0
    0.1177  -20.0966   23.3775 C   0  0  0  0  0  0  0  0  0  0  0  0
    1.7262  -20.4513   22.2328 C   0  0  0  0  0  0  0  0  0  0  0  0
   -1.6021  -20.6152   23.2654 C   0  0  0  0  0  0  0  0  0  0  0  0
   -0.3234  -18.4825   21.9403 C   0  0  0  0  0  0  0  0  0  0  0  0
    0.3532  -17.0598   20.9222 N   0  0  0  0  0  0  0  0  0  0  0  0
    0.8534  -17.0001   19.3728 C   0  0  0  0  0  0  0  0  0  0  0  0
    0.7979  -17.8742   18.4936 O   0  0  0  0  0  0  0  0  0  0  0  0
    1.9430  -15.3451   18.6602 C   0  0  0  0  0  0  0  0  0  0  0  0
    3.7052  -14.7520   18.2819 C   0  0  0  0  0  0  0  0  0  0  0  0
    4.2761  -13.4462   18.2792 C   0  0  0  0  0  0  0  0  0  0  0  0
    5.6665  -13.4711   18.0916 C   0  0  0  0  0  0  0  0  0  0  0  0
    6.0628  -14.7202   17.9109 N   0  0  0  0  0  0  0  0  0  0  0  0
    4.9407  -15.4312   18.2036 N   0  0  0  0  0  0  0  0  0  0  0  0
    0.3963  -25.6150   26.7221 H   0  0  0  0  0  0  0  0  0  0  0  0
   -0.1836  -27.2719   26.4687 H   0  0  0  0  0  0  0  0  0  0  0  0
   -1.2870  -25.9161   26.1433 H   0  0  0  0  0  0  0  0  0  0  0  0
    0.2473  -28.3097   24.3009 H   0  0  0  0  0  0  0  0  0  0  0  0
    1.6725  -27.3977   22.1253 H   0  0  0  0  0  0  0  0  0  0  0  0
    0.0140  -22.4610   22.2691 H   0  0  0  0  0  0  0  0  0  0  0  0
    1.8463  -19.8797   21.3157 H   0  0  0  0  0  0  0  0  0  0  0  0
    1.8814  -21.4378   21.7868 H   0  0  0  0  0  0  0  0  0  0  0  0
    2.6848  -20.2023   22.7289 H   0  0  0  0  0  0  0  0  0  0  0  0
   -1.9947  -19.9000   22.6727 H   0  0  0  0  0  0  0  0  0  0  0  0
   -1.7472  -21.5610   22.8603 H   0  0  0  0  0  0  0  0  0  0  0  0
   -2.2974  -20.6369   24.0751 H   0  0  0  0  0  0  0  0  0  0  0  0
   -1.2646  -18.5638   21.4158 H   0  0  0  0  0  0  0  0  0  0  0  0
    0.5198  -18.7796   21.3637 H   0  0  0  0  0  0  0  0  0  0  0  0
    0.4671  -16.1622   21.3397 H   0  0  0  0  0  0  0  0  0  0  0  0
    2.2886  -15.0538   19.6793 H   0  0  0  0  0  0  0  0  0  0  0  0
    2.4778  -16.0024   17.9414 H   0  0  0  0  0  0  0  0  0  0  0  0
    3.7145  -12.5502   18.2139 H   0  0  0  0  0  0  0  0  0  0  0  0
    6.3563  -12.6450   17.9930 H   0  0  0  0  0  0  0  0  0  0  0  0
    5.1328  -16.3248   18.6152 H   0  0  0  0  0  0  0  0  0  0  0  0
  1  2  1  0
  2  3  1  0
  3  4  2  0
  4  5  1  0
  5  6  2  0
  6  7  1  0
  7  8  2  0
  7  9  1  0
  9 10  1  0
 10 11  1  0
 10 12  1  0
 10 13  1  0
 13 14  1  0
 14 15  1  0
 15 16  2  0
 15 17  1  0
 17 18  1  0
 18 19  2  0
 19 20  1  0
 20 21  2  0
 21 22  1  0
  6  2  1  0
 22 18  1  0
  1 23  1  0
  1 24  1  0
  1 25  1  0
  3 26  1  0
  4 27  1  0
  9 28  1  0
 11 29  1  0
 11 30  1  0
 11 31  1  0
 12 32  1  0
 12 33  1  0
 12 34  1  0
 13 35  1  0
 13 36  1  0
 14 37  1  0
 17 38  1  0
 17 39  1  0
 19 40  1  0
 20 41  1  0
 22 42  1  0
M  END
>  <Energy>  (1070) 
817.58062998054595

>  <compound_id>  (1070) 
8172

>  <target_id>  (1070) 
1

>  <reference_id>  (1070) 
101

>  <inspiration_ids>  (1070) 
[101, 122]

>  <energy_score>  (1070) 
716.5173215665211

>  <distance_score>  (1070) 
13.946762852092997

>  <path>  (1070) 
/opt/xchem-fragalysis-2/maxwin/BulkDock/SCRATCH/511013/C8172-P101/C8172-P101.minimised.mol

>  <scratch_subdir>  (1070) 
/opt/xchem-fragalysis-2/maxwin/BulkDock/SCRATCH/511013/C8172-P101

>  <fragmenstein_runtime>  (1070) 
32.85120463371277

>  <fragmenstein_outcome>  (1070) 
too moved

>  <fragmenstein_mode>  (1070) 
expansion

>  <fragmenstein_error>  (1070) 


$$$$
C8172-P122
     RDKit          3D

 42 43  0  0  0  0  0  0  0  0999 V2000
   -5.4905  -22.4285   26.6975 C   0  0  0  0  0  0  0  0  0  0  0  0
   -4.9361  -20.8429   26.1685 N   0  0  0  0  0  0  0  0  0  0  0  0
   -6.0996  -20.0204   27.2528 C   0  0  0  0  0  0  0  0  0  0  0  0
   -5.3217  -19.0601   27.3436 C   0  0  0  0  0  0  0  0  0  0  0  0
   -5.2184  -19.6201   25.7954 N   0  0  0  0  0  0  0  0  0  0  0  0
   -3.7023  -19.7229   25.2888 C   0  0  0  0  0  0  0  0  0  0  0  0
   -2.3737  -18.0971   25.6214 C   0  0  0  0  0  0  0  0  0  0  0  0
   -1.4576  -18.4344   26.3574 O   0  0  0  0  0  0  0  0  0  0  0  0
   -2.3586  -16.2896   24.7923 N   0  0  0  0  0  0  0  0  0  0  0  0
   -0.9408  -14.7215   24.7663 C   0  0  0  0  0  0  0  0  0  0  0  0
    0.3413  -13.5057   26.0408 C   0  0  0  0  0  0  0  0  0  0  0  0
   -1.9663  -14.0963   25.6149 C   0  0  0  0  0  0  0  0  0  0  0  0
    0.8988  -14.2313   24.1325 C   0  0  0  0  0  0  0  0  0  0  0  0
    2.5091  -14.1345   23.1282 N   0  0  0  0  0  0  0  0  0  0  0  0
    3.3531  -12.7107   22.4278 C   0  0  0  0  0  0  0  0  0  0  0  0
    3.0292  -11.5893   22.6419 O   0  0  0  0  0  0  0  0  0  0  0  0
    4.7514  -12.7368   21.0382 C   0  0  0  0  0  0  0  0  0  0  0  0
    5.8985  -11.4738   20.8029 C   0  0  0  0  0  0  0  0  0  0  0  0
    6.4639  -10.4736   21.5868 C   0  0  0  0  0  0  0  0  0  0  0  0
    7.3865   -9.8049   20.7537 C   0  0  0  0  0  0  0  0  0  0  0  0
    7.4215  -10.3167   19.5245 N   0  0  0  0  0  0  0  0  0  0  0  0
    6.5105  -11.3163   19.5698 N   0  0  0  0  0  0  0  0  0  0  0  0
   -4.8130  -23.1593   27.0875 H   0  0  0  0  0  0  0  0  0  0  0  0
   -6.0182  -22.9148   25.8783 H   0  0  0  0  0  0  0  0  0  0  0  0
   -6.2039  -22.2817   27.4988 H   0  0  0  0  0  0  0  0  0  0  0  0
   -7.0404  -20.4782   27.5207 H   0  0  0  0  0  0  0  0  0  0  0  0
   -4.9015  -18.2346   27.8674 H   0  0  0  0  0  0  0  0  0  0  0  0
   -3.2265  -16.1502   24.2878 H   0  0  0  0  0  0  0  0  0  0  0  0
    1.3056  -13.9956   26.2571 H   0  0  0  0  0  0  0  0  0  0  0  0
    0.0193  -13.7436   27.0238 H   0  0  0  0  0  0  0  0  0  0  0  0
    0.8512  -12.5154   26.0068 H   0  0  0  0  0  0  0  0  0  0  0  0
   -2.0407  -14.6042   26.5984 H   0  0  0  0  0  0  0  0  0  0  0  0
   -2.7153  -14.6688   25.2777 H   0  0  0  0  0  0  0  0  0  0  0  0
   -2.2938  -13.0546   25.4911 H   0  0  0  0  0  0  0  0  0  0  0  0
    0.2196  -14.0650   23.2549 H   0  0  0  0  0  0  0  0  0  0  0  0
    1.4869  -13.3364   24.5041 H   0  0  0  0  0  0  0  0  0  0  0  0
    3.0102  -14.9677   22.8788 H   0  0  0  0  0  0  0  0  0  0  0  0
    4.2151  -12.7651   20.0978 H   0  0  0  0  0  0  0  0  0  0  0  0
    5.3706  -13.5816   20.8507 H   0  0  0  0  0  0  0  0  0  0  0  0
    6.2414  -10.2567   22.6209 H   0  0  0  0  0  0  0  0  0  0  0  0
    8.0308   -8.9705   20.9967 H   0  0  0  0  0  0  0  0  0  0  0  0
    6.2779  -11.8085   18.7131 H   0  0  0  0  0  0  0  0  0  0  0  0
  1  2  1  0
  2  3  1  0
  3  4  2  0
  4  5  1  0
  5  6  2  0
  6  7  1  0
  7  8  2  0
  7  9  1  0
  9 10  1  0
 10 11  1  0
 10 12  1  0
 10 13  1  0
 13 14  1  0
 14 15  1  0
 15 16  2  0
 15 17  1  0
 17 18  1  0
 18 19  2  0
 19 20  1  0
 20 21  2  0
 21 22  1  0
  6  2  1  0
 22 18  1  0
  1 23  1  0
  1 24  1  0
  1 25  1  0
  3 26  1  0
  4 27  1  0
  9 28  1  0
 11 29  1  0
 11 30  1  0
 11 31  1  0
 12 32  1  0
 12 33  1  0
 12 34  1  0
 13 35  1  0
 13 36  1  0
 14 37  1  0
 17 38  1  0
 17 39  1  0
 19 40  1  0
 20 41  1  0
 22 42  1  0
M  END
>  <Energy>  (1071) 
1554.8003968657449

>  <compound_id>  (1071) 
8172

>  <target_id>  (1071) 
1

>  <reference_id>  (1071) 
122

>  <inspiration_ids>  (1071) 
[101, 122]

>  <energy_score>  (1071) 
1453.7370884517088

>  <distance_score>  (1071) 
10.266334768676558

>  <path>  (1071) 
/opt/xchem-fragalysis-2/maxwin/BulkDock/SCRATCH/511013/C8172-P122/C8172-P122.minimised.mol

>  <scratch_subdir>  (1071) 
/opt/xchem-fragalysis-2/maxwin/BulkDock/SCRATCH/511013/C8172-P122

>  <fragmenstein_runtime>  (1071) 
28.274243593215942

>  <fragmenstein_outcome>  (1071) 
too moved

>  <fragmenstein_mode>  (1071) 
expansion

>  <fragmenstein_error>  (1071) 


$$$$
C8173-P101
     RDKit          3D

 45 46  0  0  0  0  0  0  0  0999 V2000
   -2.5662  -15.0138   29.2853 C   0  0  0  0  0  0  0  0  0  0  0  0
   -2.0344  -16.3197   28.0522 N   0  0  0  0  0  0  0  0  0  0  0  0
   -1.1482  -14.8132   27.3356 C   0  0  0  0  0  0  0  0  0  0  0  0
    0.8132  -14.2445   26.6079 C   0  0  0  0  0  0  0  0  0  0  0  0
    2.6169  -13.8619   26.9253 N   0  0  0  0  0  0  0  0  0  0  0  0
    4.0627  -14.2107   25.9742 C   0  0  0  0  0  0  0  0  0  0  0  0
    4.1933  -14.8712   24.9537 O   0  0  0  0  0  0  0  0  0  0  0  0
    5.6845  -13.2645   26.5412 C   0  0  0  0  0  0  0  0  0  0  0  0
    6.4456  -12.0166   25.7922 C   0  0  0  0  0  0  0  0  0  0  0  0
    7.8763  -11.8706   25.3031 C   0  0  0  0  0  0  0  0  0  0  0  0
    9.0534  -12.5794   25.3680 C   0  0  0  0  0  0  0  0  0  0  0  0
    9.9926  -11.8313   24.6195 C   0  0  0  0  0  0  0  0  0  0  0  0
    9.4688  -10.7163   24.1164 N   0  0  0  0  0  0  0  0  0  0  0  0
    8.1924  -10.7545   24.5332 N   0  0  0  0  0  0  0  0  0  0  0  0
   -3.4612  -17.3180   27.5080 C   0  0  0  0  0  0  0  0  0  0  0  0
   -3.9025  -16.8611   26.6117 O   0  0  0  0  0  0  0  0  0  0  0  0
   -4.6825  -18.9266   28.1110 C   0  0  0  0  0  0  0  0  0  0  0  0
   -6.5904  -19.6080   27.6584 C   0  0  0  0  0  0  0  0  0  0  0  0
   -7.9312  -21.2147   27.6713 C   0  0  0  0  0  0  0  0  0  0  0  0
   -9.7352  -21.4442   28.2762 C   0  0  0  0  0  0  0  0  0  0  0  0
  -10.1619  -22.7836   28.1579 N   0  0  0  0  0  0  0  0  0  0  0  0
   -8.9565  -23.4521   28.0075 C   0  0  0  0  0  0  0  0  0  0  0  0
   -7.7461  -22.7280   27.6981 N   0  0  0  0  0  0  0  0  0  0  0  0
   -1.7559  -15.0379   30.0634 H   0  0  0  0  0  0  0  0  0  0  0  0
   -2.6120  -13.9467   29.2622 H   0  0  0  0  0  0  0  0  0  0  0  0
   -3.3826  -15.4542   29.8969 H   0  0  0  0  0  0  0  0  0  0  0  0
   -0.7950  -14.8662   28.3288 H   0  0  0  0  0  0  0  0  0  0  0  0
   -1.9881  -14.6469   26.6419 H   0  0  0  0  0  0  0  0  0  0  0  0
    0.7937  -13.9195   25.5613 H   0  0  0  0  0  0  0  0  0  0  0  0
    0.6732  -13.2065   26.7557 H   0  0  0  0  0  0  0  0  0  0  0  0
    2.8360  -13.2323   27.6427 H   0  0  0  0  0  0  0  0  0  0  0  0
    6.6430  -13.7865   26.4616 H   0  0  0  0  0  0  0  0  0  0  0  0
    5.5025  -12.9578   27.5819 H   0  0  0  0  0  0  0  0  0  0  0  0
    5.9779  -11.9003   24.8316 H   0  0  0  0  0  0  0  0  0  0  0  0
    6.3556  -11.1830   26.5015 H   0  0  0  0  0  0  0  0  0  0  0  0
    9.2226  -13.5241   25.8671 H   0  0  0  0  0  0  0  0  0  0  0  0
   11.0324  -12.0626   24.4265 H   0  0  0  0  0  0  0  0  0  0  0  0
    7.5684  -10.0000   24.2488 H   0  0  0  0  0  0  0  0  0  0  0  0
   -4.1066  -19.8459   27.9155 H   0  0  0  0  0  0  0  0  0  0  0  0
   -4.8603  -18.7490   29.1849 H   0  0  0  0  0  0  0  0  0  0  0  0
   -6.5770  -19.2969   26.6307 H   0  0  0  0  0  0  0  0  0  0  0  0
   -7.1849  -18.8614   28.2121 H   0  0  0  0  0  0  0  0  0  0  0  0
  -10.2938  -20.8635   29.0075 H   0  0  0  0  0  0  0  0  0  0  0  0
  -11.0263  -23.1645   28.5192 H   0  0  0  0  0  0  0  0  0  0  0  0
   -9.0655  -24.4922   28.3031 H   0  0  0  0  0  0  0  0  0  0  0  0
  1  2  1  0
  2  3  1  0
  3  4  1  0
  4  5  1  0
  5  6  1  0
  6  7  2  0
  6  8  1  0
  8  9  1  0
  9 10  1  0
 10 11  2  0
 11 12  1  0
 12 13  2  0
 13 14  1  0
  2 15  1  0
 15 16  2  0
 15 17  1  0
 17 18  1  0
 18 19  1  0
 19 20  2  0
 20 21  1  0
 21 22  1  0
 22 23  2  0
 14 10  1  0
 23 19  1  0
  1 24  1  0
  1 25  1  0
  1 26  1  0
  3 27  1  0
  3 28  1  0
  4 29  1  0
  4 30  1  0
  5 31  1  0
  8 32  1  0
  8 33  1  0
  9 34  1  0
  9 35  1  0
 11 36  1  0
 12 37  1  0
 14 38  1  0
 17 39  1  0
 17 40  1  0
 18 41  1  0
 18 42  1  0
 20 43  1  0
 21 44  1  0
 22 45  1  0
M  END
>  <Energy>  (1072) 
1071.0790782014578

>  <compound_id>  (1072) 
8173

>  <target_id>  (1072) 
1

>  <reference_id>  (1072) 
101

>  <inspiration_ids>  (1072) 
[101, 122]

>  <energy_score>  (1072) 
1059.3052162986323

>  <distance_score>  (1072) 
10.353565474740815

>  <path>  (1072) 
/opt/xchem-fragalysis-2/maxwin/BulkDock/SCRATCH/511013/C8173-P101/C8173-P101.minimised.mol

>  <scratch_subdir>  (1072) 
/opt/xchem-fragalysis-2/maxwin/BulkDock/SCRATCH/511013/C8173-P101

>  <fragmenstein_runtime>  (1072) 
26.812211990356445

>  <fragmenstein_outcome>  (1072) 
too moved

>  <fragmenstein_mode>  (1072) 
expansion

>  <fragmenstein_error>  (1072) 


$$$$
C8173-P122
     RDKit          3D

 45 46  0  0  0  0  0  0  0  0999 V2000
   -2.0463  -14.6575   25.8674 C   0  0  0  0  0  0  0  0  0  0  0  0
   -2.4160  -15.9183   25.0492 N   0  0  0  0  0  0  0  0  0  0  0  0
   -1.4481  -14.9941   23.7327 C   0  0  0  0  0  0  0  0  0  0  0  0
   -0.2921  -13.5486   22.9113 C   0  0  0  0  0  0  0  0  0  0  0  0
   -0.9414  -11.7694   22.0269 N   0  0  0  0  0  0  0  0  0  0  0  0
   -0.2066  -10.5693   21.6077 C   0  0  0  0  0  0  0  0  0  0  0  0
    0.9436  -10.3589   21.5821 O   0  0  0  0  0  0  0  0  0  0  0  0
   -0.9810   -9.2857   21.2476 C   0  0  0  0  0  0  0  0  0  0  0  0
    0.1548   -8.0993   21.7474 C   0  0  0  0  0  0  0  0  0  0  0  0
   -0.0008   -6.9787   22.8053 C   0  0  0  0  0  0  0  0  0  0  0  0
    0.4841   -5.6553   22.8120 C   0  0  0  0  0  0  0  0  0  0  0  0
    0.0118   -5.0522   23.9753 C   0  0  0  0  0  0  0  0  0  0  0  0
   -0.8036   -5.8696   24.6362 N   0  0  0  0  0  0  0  0  0  0  0  0
   -0.7462   -7.0206   23.9360 N   0  0  0  0  0  0  0  0  0  0  0  0
   -1.9865  -17.4756   25.9978 C   0  0  0  0  0  0  0  0  0  0  0  0
   -0.9051  -18.0401   25.8994 O   0  0  0  0  0  0  0  0  0  0  0  0
   -2.7377  -18.0914   27.0209 C   0  0  0  0  0  0  0  0  0  0  0  0
   -2.6002  -19.7123   26.9065 C   0  0  0  0  0  0  0  0  0  0  0  0
   -3.3589  -20.8336   27.4581 C   0  0  0  0  0  0  0  0  0  0  0  0
   -4.6828  -21.0369   27.3015 C   0  0  0  0  0  0  0  0  0  0  0  0
   -4.8223  -22.3869   27.1765 N   0  0  0  0  0  0  0  0  0  0  0  0
   -3.6072  -22.9446   27.4379 C   0  0  0  0  0  0  0  0  0  0  0  0
   -2.7127  -22.0252   27.6882 N   0  0  0  0  0  0  0  0  0  0  0  0
   -1.4592  -13.8439   25.4483 H   0  0  0  0  0  0  0  0  0  0  0  0
   -2.8040  -13.9483   26.0748 H   0  0  0  0  0  0  0  0  0  0  0  0
   -1.8997  -14.9529   26.9320 H   0  0  0  0  0  0  0  0  0  0  0  0
   -1.0611  -15.3497   22.8530 H   0  0  0  0  0  0  0  0  0  0  0  0
   -0.6859  -14.9101   24.4374 H   0  0  0  0  0  0  0  0  0  0  0  0
    0.5026  -13.8927   23.6681 H   0  0  0  0  0  0  0  0  0  0  0  0
   -0.0721  -14.2163   22.1465 H   0  0  0  0  0  0  0  0  0  0  0  0
   -1.9247  -11.6370   21.8367 H   0  0  0  0  0  0  0  0  0  0  0  0
   -1.2333   -9.1592   20.1975 H   0  0  0  0  0  0  0  0  0  0  0  0
   -1.8700   -9.1802   21.8731 H   0  0  0  0  0  0  0  0  0  0  0  0
    0.6130   -7.7732   20.8274 H   0  0  0  0  0  0  0  0  0  0  0  0
    1.0488   -8.4979   22.1750 H   0  0  0  0  0  0  0  0  0  0  0  0
    1.0506   -5.1730   22.0268 H   0  0  0  0  0  0  0  0  0  0  0  0
    0.1748   -4.0476   24.3405 H   0  0  0  0  0  0  0  0  0  0  0  0
   -1.3824   -7.7473   24.2282 H   0  0  0  0  0  0  0  0  0  0  0  0
   -3.5296  -17.4943   27.5075 H   0  0  0  0  0  0  0  0  0  0  0  0
   -1.9222  -17.7835   27.6507 H   0  0  0  0  0  0  0  0  0  0  0  0
   -2.6623  -19.9623   25.8424 H   0  0  0  0  0  0  0  0  0  0  0  0
   -1.6193  -19.9704   27.2688 H   0  0  0  0  0  0  0  0  0  0  0  0
   -5.4186  -20.2744   27.1122 H   0  0  0  0  0  0  0  0  0  0  0  0
   -5.6611  -22.8889   26.9221 H   0  0  0  0  0  0  0  0  0  0  0  0
   -3.3994  -24.0019   27.4117 H   0  0  0  0  0  0  0  0  0  0  0  0
  1  2  1  0
  2  3  1  0
  3  4  1  0
  4  5  1  0
  5  6  1  0
  6  7  2  0
  6  8  1  0
  8  9  1  0
  9 10  1  0
 10 11  2  0
 11 12  1  0
 12 13  2  0
 13 14  1  0
  2 15  1  0
 15 16  2  0
 15 17  1  0
 17 18  1  0
 18 19  1  0
 19 20  2  0
 20 21  1  0
 21 22  1  0
 22 23  2  0
 14 10  1  0
 23 19  1  0
  1 24  1  0
  1 25  1  0
  1 26  1  0
  3 27  1  0
  3 28  1  0
  4 29  1  0
  4 30  1  0
  5 31  1  0
  8 32  1  0
  8 33  1  0
  9 34  1  0
  9 35  1  0
 11 36  1  0
 12 37  1  0
 14 38  1  0
 17 39  1  0
 17 40  1  0
 18 41  1  0
 18 42  1  0
 20 43  1  0
 21 44  1  0
 22 45  1  0
M  END
>  <Energy>  (1073) 
615.3843507040973

>  <compound_id>  (1073) 
8173

>  <target_id>  (1073) 
1

>  <reference_id>  (1073) 
122

>  <inspiration_ids>  (1073) 
[101, 122]

>  <energy_score>  (1073) 
603.6104888012818

>  <distance_score>  (1073) 
12.428207315196287

>  <path>  (1073) 
/opt/xchem-fragalysis-2/maxwin/BulkDock/SCRATCH/511013/C8173-P122/C8173-P122.minimised.mol

>  <scratch_subdir>  (1073) 
/opt/xchem-fragalysis-2/maxwin/BulkDock/SCRATCH/511013/C8173-P122

>  <fragmenstein_runtime>  (1073) 
29.96281123161316

>  <fragmenstein_outcome>  (1073) 
too moved

>  <fragmenstein_mode>  (1073) 
expansion

>  <fragmenstein_error>  (1073) 


$$$$
C8174-P101
     RDKit          3D

 48 49  0  0  0  0  0  0  0  0999 V2000
    3.3624  -19.0757   22.9543 C   0  0  0  0  0  0  0  0  0  0  0  0
    3.3123  -17.2600   23.7618 C   0  0  0  0  0  0  0  0  0  0  0  0
    3.0542  -18.0918   25.1597 C   0  0  0  0  0  0  0  0  0  0  0  0
    2.3606  -15.3981   23.5680 C   0  0  0  0  0  0  0  0  0  0  0  0
    0.4814  -14.6229   24.3404 C   0  0  0  0  0  0  0  0  0  0  0  0
    1.9643  -13.1475   24.0396 C   0  0  0  0  0  0  0  0  0  0  0  0
    3.2418  -12.6582   22.6984 N   0  0  0  0  0  0  0  0  0  0  0  0
    3.4994  -13.2432   21.1753 C   0  0  0  0  0  0  0  0  0  0  0  0
    2.8246  -14.0774   20.5847 O   0  0  0  0  0  0  0  0  0  0  0  0
    4.9365  -12.8292   20.1959 C   0  0  0  0  0  0  0  0  0  0  0  0
    6.2000  -12.0755   19.5678 C   0  0  0  0  0  0  0  0  0  0  0  0
    6.4196  -11.3110   18.3986 C   0  0  0  0  0  0  0  0  0  0  0  0
    7.8010  -11.2708   18.1368 C   0  0  0  0  0  0  0  0  0  0  0  0
    8.4587  -12.0305   18.9971 N   0  0  0  0  0  0  0  0  0  0  0  0
    7.4782  -12.6009   19.7155 N   0  0  0  0  0  0  0  0  0  0  0  0
   -1.3578  -15.8497   24.3962 N   0  0  0  0  0  0  0  0  0  0  0  0
   -1.8166  -17.7425   25.2900 C   0  0  0  0  0  0  0  0  0  0  0  0
   -0.8811  -18.0934   25.9659 O   0  0  0  0  0  0  0  0  0  0  0  0
   -3.1815  -19.3506   25.2428 C   0  0  0  0  0  0  0  0  0  0  0  0
   -4.3155  -20.6723   24.6352 C   0  0  0  0  0  0  0  0  0  0  0  0
   -5.7980  -20.8426   23.5708 N   0  0  0  0  0  0  0  0  0  0  0  0
   -6.4624  -21.7485   22.6220 C   0  0  0  0  0  0  0  0  0  0  0  0
   -6.1092  -19.1054   23.7290 C   0  0  0  0  0  0  0  0  0  0  0  0
   -4.8612  -19.4125   24.3833 N   0  0  0  0  0  0  0  0  0  0  0  0
    3.3628  -19.8237   23.7443 H   0  0  0  0  0  0  0  0  0  0  0  0
    4.2608  -19.2212   22.3675 H   0  0  0  0  0  0  0  0  0  0  0  0
    2.7748  -19.4057   22.0586 H   0  0  0  0  0  0  0  0  0  0  0  0
    4.2887  -16.7681   23.8987 H   0  0  0  0  0  0  0  0  0  0  0  0
    2.9628  -17.5936   26.1266 H   0  0  0  0  0  0  0  0  0  0  0  0
    2.1414  -18.5380   24.8491 H   0  0  0  0  0  0  0  0  0  0  0  0
    3.6710  -18.9649   25.3752 H   0  0  0  0  0  0  0  0  0  0  0  0
    3.3116  -14.9107   24.0540 H   0  0  0  0  0  0  0  0  0  0  0  0
    2.8651  -14.7858   22.8204 H   0  0  0  0  0  0  0  0  0  0  0  0
    0.6266  -14.0533   25.3255 H   0  0  0  0  0  0  0  0  0  0  0  0
    1.7119  -12.1442   24.2883 H   0  0  0  0  0  0  0  0  0  0  0  0
    2.7573  -13.3931   24.7121 H   0  0  0  0  0  0  0  0  0  0  0  0
    3.8832  -11.9503   22.8744 H   0  0  0  0  0  0  0  0  0  0  0  0
    5.5558  -13.5729   20.6355 H   0  0  0  0  0  0  0  0  0  0  0  0
    4.5678  -13.2109   19.2243 H   0  0  0  0  0  0  0  0  0  0  0  0
    5.6847  -10.8990   17.7226 H   0  0  0  0  0  0  0  0  0  0  0  0
    8.3400  -10.7878   17.3318 H   0  0  0  0  0  0  0  0  0  0  0  0
    7.7613  -13.3455   20.3301 H   0  0  0  0  0  0  0  0  0  0  0  0
   -2.1812  -15.5277   23.9034 H   0  0  0  0  0  0  0  0  0  0  0  0
   -4.6704  -21.4433   25.3191 H   0  0  0  0  0  0  0  0  0  0  0  0
   -5.9677  -21.6879   21.6512 H   0  0  0  0  0  0  0  0  0  0  0  0
   -7.4933  -21.4131   22.5014 H   0  0  0  0  0  0  0  0  0  0  0  0
   -6.4502  -22.7724   23.0022 H   0  0  0  0  0  0  0  0  0  0  0  0
   -7.0184  -19.2808   23.1842 H   0  0  0  0  0  0  0  0  0  0  0  0
  1  2  1  0
  2  3  1  0
  2  4  1  0
  4  5  1  0
  5  6  1  0
  6  7  1  0
  7  8  1  0
  8  9  2  0
  8 10  1  0
 10 11  1  0
 11 12  2  0
 12 13  1  0
 13 14  2  0
 14 15  1  0
  5 16  1  0
 16 17  1  0
 17 18  2  0
 17 19  1  0
 19 20  2  0
 20 21  1  0
 21 22  1  0
 21 23  1  0
 23 24  2  0
 15 11  1  0
 24 19  1  0
  1 25  1  0
  1 26  1  0
  1 27  1  0
  2 28  1  0
  3 29  1  0
  3 30  1  0
  3 31  1  0
  4 32  1  0
  4 33  1  0
  5 34  1  0
  6 35  1  0
  6 36  1  0
  7 37  1  0
 10 38  1  0
 10 39  1  0
 12 40  1  0
 13 41  1  0
 15 42  1  0
 16 43  1  0
 20 44  1  0
 22 45  1  0
 22 46  1  0
 22 47  1  0
 23 48  1  0
M  END
>  <Energy>  (1074) 
1934.1784373766275

>  <compound_id>  (1074) 
8174

>  <target_id>  (1074) 
1

>  <reference_id>  (1074) 
101

>  <inspiration_ids>  (1074) 
[101, 122]

>  <energy_score>  (1074) 
1838.3463839966755

>  <distance_score>  (1074) 
11.28848913449255

>  <path>  (1074) 
/opt/xchem-fragalysis-2/maxwin/BulkDock/SCRATCH/511013/C8174-P101/C8174-P101.minimised.mol

>  <scratch_subdir>  (1074) 
/opt/xchem-fragalysis-2/maxwin/BulkDock/SCRATCH/511013/C8174-P101

>  <fragmenstein_runtime>  (1074) 
30.608442306518555

>  <fragmenstein_outcome>  (1074) 
too moved

>  <fragmenstein_mode>  (1074) 
expansion

>  <fragmenstein_error>  (1074) 


$$$$
C8174-P122
     RDKit          3D

 48 49  0  0  0  0  0  0  0  0999 V2000
    2.1098  -18.8346   24.4970 C   0  0  0  0  0  0  0  0  0  0  0  0
    0.2169  -18.9922   23.4724 C   0  0  0  0  0  0  0  0  0  0  0  0
   -1.1678  -20.3927   23.3742 C   0  0  0  0  0  0  0  0  0  0  0  0
   -0.3846  -17.2500   22.2325 C   0  0  0  0  0  0  0  0  0  0  0  0
   -1.2928  -15.7338   23.7637 C   0  0  0  0  0  0  0  0  0  0  0  0
   -0.9028  -14.7987   22.3689 C   0  0  0  0  0  0  0  0  0  0  0  0
   -1.8415  -14.0474   20.8770 N   0  0  0  0  0  0  0  0  0  0  0  0
   -2.0867  -12.3621   20.4196 C   0  0  0  0  0  0  0  0  0  0  0  0
   -1.7610  -11.3711   21.0472 O   0  0  0  0  0  0  0  0  0  0  0  0
   -2.6791  -11.9328   19.0081 C   0  0  0  0  0  0  0  0  0  0  0  0
   -2.4207  -10.4349   18.5673 C   0  0  0  0  0  0  0  0  0  0  0  0
   -2.6266   -9.7800   17.3615 C   0  0  0  0  0  0  0  0  0  0  0  0
   -2.1591   -8.4577   17.5417 C   0  0  0  0  0  0  0  0  0  0  0  0
   -1.7400   -8.2386   18.7844 N   0  0  0  0  0  0  0  0  0  0  0  0
   -1.9176   -9.4380   19.3869 N   0  0  0  0  0  0  0  0  0  0  0  0
   -2.3500  -16.7509   25.1757 N   0  0  0  0  0  0  0  0  0  0  0  0
   -2.3905  -16.5928   26.9767 C   0  0  0  0  0  0  0  0  0  0  0  0
   -1.8283  -15.7433   27.6820 O   0  0  0  0  0  0  0  0  0  0  0  0
   -3.0669  -17.6305   27.8557 C   0  0  0  0  0  0  0  0  0  0  0  0
   -3.9450  -17.3334   28.8909 C   0  0  0  0  0  0  0  0  0  0  0  0
   -4.1447  -18.4966   29.5731 N   0  0  0  0  0  0  0  0  0  0  0  0
   -4.8364  -18.5907   30.8335 C   0  0  0  0  0  0  0  0  0  0  0  0
   -3.4193  -19.4717   28.9600 C   0  0  0  0  0  0  0  0  0  0  0  0
   -2.7115  -18.9880   27.9584 N   0  0  0  0  0  0  0  0  0  0  0  0
    2.8821  -19.6384   24.5733 H   0  0  0  0  0  0  0  0  0  0  0  0
    2.9553  -18.2830   23.9697 H   0  0  0  0  0  0  0  0  0  0  0  0
    2.3514  -18.0974   25.2727 H   0  0  0  0  0  0  0  0  0  0  0  0
    0.3677  -18.8162   24.6040 H   0  0  0  0  0  0  0  0  0  0  0  0
   -1.8519  -20.1145   22.6613 H   0  0  0  0  0  0  0  0  0  0  0  0
   -0.6934  -21.3828   23.2924 H   0  0  0  0  0  0  0  0  0  0  0  0
   -2.0399  -20.5076   24.0321 H   0  0  0  0  0  0  0  0  0  0  0  0
    0.2196  -16.8776   21.3745 H   0  0  0  0  0  0  0  0  0  0  0  0
   -1.0665  -17.8302   21.5170 H   0  0  0  0  0  0  0  0  0  0  0  0
   -2.3383  -15.3213   23.7193 H   0  0  0  0  0  0  0  0  0  0  0  0
   -0.3204  -14.0054   22.8791 H   0  0  0  0  0  0  0  0  0  0  0  0
    0.0231  -15.2423   22.0069 H   0  0  0  0  0  0  0  0  0  0  0  0
   -2.1358  -14.6504   20.1261 H   0  0  0  0  0  0  0  0  0  0  0  0
   -3.7662  -11.9089   19.1300 H   0  0  0  0  0  0  0  0  0  0  0  0
   -2.3043  -12.5705   18.2111 H   0  0  0  0  0  0  0  0  0  0  0  0
   -3.0363  -10.2089   16.4590 H   0  0  0  0  0  0  0  0  0  0  0  0
   -2.1271   -7.6496   16.8237 H   0  0  0  0  0  0  0  0  0  0  0  0
   -1.5535   -9.5779   20.3263 H   0  0  0  0  0  0  0  0  0  0  0  0
   -2.8122  -17.5473   24.9157 H   0  0  0  0  0  0  0  0  0  0  0  0
   -4.3578  -16.3931   29.2255 H   0  0  0  0  0  0  0  0  0  0  0  0
   -4.3442  -17.9207   31.5443 H   0  0  0  0  0  0  0  0  0  0  0  0
   -4.7859  -19.6126   31.2116 H   0  0  0  0  0  0  0  0  0  0  0  0
   -5.8662  -18.2688   30.6755 H   0  0  0  0  0  0  0  0  0  0  0  0
   -3.3982  -20.4924   29.3136 H   0  0  0  0  0  0  0  0  0  0  0  0
  1  2  1  0
  2  3  1  0
  2  4  1  0
  4  5  1  0
  5  6  1  0
  6  7  1  0
  7  8  1  0
  8  9  2  0
  8 10  1  0
 10 11  1  0
 11 12  2  0
 12 13  1  0
 13 14  2  0
 14 15  1  0
  5 16  1  0
 16 17  1  0
 17 18  2  0
 17 19  1  0
 19 20  2  0
 20 21  1  0
 21 22  1  0
 21 23  1  0
 23 24  2  0
 15 11  1  0
 24 19  1  0
  1 25  1  0
  1 26  1  0
  1 27  1  0
  2 28  1  0
  3 29  1  0
  3 30  1  0
  3 31  1  0
  4 32  1  0
  4 33  1  0
  5 34  1  0
  6 35  1  0
  6 36  1  0
  7 37  1  0
 10 38  1  0
 10 39  1  0
 12 40  1  0
 13 41  1  0
 15 42  1  0
 16 43  1  0
 20 44  1  0
 22 45  1  0
 22 46  1  0
 22 47  1  0
 23 48  1  0
M  END
>  <Energy>  (1075) 
1044.2714674081242

>  <compound_id>  (1075) 
8174

>  <target_id>  (1075) 
1

>  <reference_id>  (1075) 
122

>  <inspiration_ids>  (1075) 
[101, 122]

>  <energy_score>  (1075) 
948.4394140281302

>  <distance_score>  (1075) 
14.153270894017195

>  <path>  (1075) 
/opt/xchem-fragalysis-2/maxwin/BulkDock/SCRATCH/511013/C8174-P122/C8174-P122.minimised.mol

>  <scratch_subdir>  (1075) 
/opt/xchem-fragalysis-2/maxwin/BulkDock/SCRATCH/511013/C8174-P122

>  <fragmenstein_runtime>  (1075) 
32.339767932891846

>  <fragmenstein_outcome>  (1075) 
too moved

>  <fragmenstein_mode>  (1075) 
expansion

>  <fragmenstein_error>  (1075) 


$$$$
C8175-P101
     RDKit          3D

 45 46  0  0  0  0  0  0  0  0999 V2000
   -8.9964  -23.6287   27.7771 C   0  0  0  0  0  0  0  0  0  0  0  0
   -7.2873  -22.9539   27.3537 C   0  0  0  0  0  0  0  0  0  0  0  0
   -6.1809  -23.0593   26.2561 N   0  0  0  0  0  0  0  0  0  0  0  0
   -6.1256  -23.6206   24.8485 C   0  0  0  0  0  0  0  0  0  0  0  0
   -5.7043  -22.6791   23.9646 N   0  0  0  0  0  0  0  0  0  0  0  0
   -5.1058  -21.1910   24.7210 C   0  0  0  0  0  0  0  0  0  0  0  0
   -4.4149  -19.5626   24.3682 C   0  0  0  0  0  0  0  0  0  0  0  0
   -3.3886  -19.4309   25.0813 O   0  0  0  0  0  0  0  0  0  0  0  0
   -5.1113  -18.2356   22.8273 N   0  0  0  0  0  0  0  0  0  0  0  0
   -4.1294  -16.4108   21.9559 C   0  0  0  0  0  0  0  0  0  0  0  0
   -3.7446  -15.4752   23.5489 C   0  0  0  0  0  0  0  0  0  0  0  0
   -2.6845  -14.9823   20.8423 C   0  0  0  0  0  0  0  0  0  0  0  0
   -2.9699  -12.8792   20.5331 N   0  0  0  0  0  0  0  0  0  0  0  0
   -2.1168  -11.6143   20.8981 C   0  0  0  0  0  0  0  0  0  0  0  0
   -1.1241  -11.5071   21.5191 O   0  0  0  0  0  0  0  0  0  0  0  0
   -2.6053  -10.2645   20.2339 C   0  0  0  0  0  0  0  0  0  0  0  0
   -1.8771   -8.9070   20.7302 C   0  0  0  0  0  0  0  0  0  0  0  0
   -0.7088   -8.1915   20.0357 C   0  0  0  0  0  0  0  0  0  0  0  0
    0.5305   -7.7902   20.5254 C   0  0  0  0  0  0  0  0  0  0  0  0
    1.1788   -7.1282   19.4630 C   0  0  0  0  0  0  0  0  0  0  0  0
    0.4101   -7.0641   18.3747 N   0  0  0  0  0  0  0  0  0  0  0  0
   -0.6979   -7.7525   18.7347 N   0  0  0  0  0  0  0  0  0  0  0  0
   -5.1921  -21.6865   26.1966 C   0  0  0  0  0  0  0  0  0  0  0  0
   -9.7033  -22.9002   28.1767 H   0  0  0  0  0  0  0  0  0  0  0  0
   -9.5001  -24.0945   26.9177 H   0  0  0  0  0  0  0  0  0  0  0  0
   -8.9772  -24.4023   28.5654 H   0  0  0  0  0  0  0  0  0  0  0  0
   -7.4137  -21.9440   27.6720 H   0  0  0  0  0  0  0  0  0  0  0  0
   -6.5645  -23.3601   28.0345 H   0  0  0  0  0  0  0  0  0  0  0  0
   -6.6822  -24.4315   24.4625 H   0  0  0  0  0  0  0  0  0  0  0  0
   -5.9280  -18.6221   22.3461 H   0  0  0  0  0  0  0  0  0  0  0  0
   -3.4598  -16.8325   21.1689 H   0  0  0  0  0  0  0  0  0  0  0  0
   -4.6114  -14.8620   23.5938 H   0  0  0  0  0  0  0  0  0  0  0  0
   -3.4858  -15.8940   24.5235 H   0  0  0  0  0  0  0  0  0  0  0  0
   -2.7874  -15.0985   23.4953 H   0  0  0  0  0  0  0  0  0  0  0  0
   -2.4099  -15.4603   19.8895 H   0  0  0  0  0  0  0  0  0  0  0  0
   -1.8164  -14.8076   21.4331 H   0  0  0  0  0  0  0  0  0  0  0  0
   -3.8315  -12.5847   20.0455 H   0  0  0  0  0  0  0  0  0  0  0  0
   -2.4938  -10.3616   19.1491 H   0  0  0  0  0  0  0  0  0  0  0  0
   -3.6676  -10.1760   20.4655 H   0  0  0  0  0  0  0  0  0  0  0  0
   -1.5928   -9.0495   21.7809 H   0  0  0  0  0  0  0  0  0  0  0  0
   -2.6783   -8.1531   20.7503 H   0  0  0  0  0  0  0  0  0  0  0  0
    0.9124   -7.9862   21.5170 H   0  0  0  0  0  0  0  0  0  0  0  0
    2.1650   -6.6860   19.4415 H   0  0  0  0  0  0  0  0  0  0  0  0
   -1.4235   -7.8759   18.0413 H   0  0  0  0  0  0  0  0  0  0  0  0
   -5.3342  -21.2012   27.1284 H   0  0  0  0  0  0  0  0  0  0  0  0
  1  2  1  0
  2  3  1  0
  3  4  1  0
  4  5  2  0
  5  6  1  0
  6  7  1  0
  7  8  2  0
  7  9  1  0
  9 10  1  0
 10 11  1  0
 10 12  1  0
 12 13  1  0
 13 14  1  0
 14 15  2  0
 14 16  1  0
 16 17  1  0
 17 18  1  0
 18 19  2  0
 19 20  1  0
 20 21  2  0
 21 22  1  0
  6 23  2  0
 23  3  1  0
 22 18  1  0
  1 24  1  0
  1 25  1  0
  1 26  1  0
  2 27  1  0
  2 28  1  0
  4 29  1  0
  9 30  1  0
 10 31  1  0
 11 32  1  0
 11 33  1  0
 11 34  1  0
 12 35  1  0
 12 36  1  0
 13 37  1  0
 16 38  1  0
 16 39  1  0
 17 40  1  0
 17 41  1  0
 19 42  1  0
 20 43  1  0
 22 44  1  0
 23 45  1  0
M  END
>  <Energy>  (1076) 
1192.772234955723

>  <compound_id>  (1076) 
8175

>  <target_id>  (1076) 
1

>  <reference_id>  (1076) 
101

>  <inspiration_ids>  (1076) 
[101, 122]

>  <energy_score>  (1076) 
1132.5779091657382

>  <distance_score>  (1076) 
11.525275614470376

>  <path>  (1076) 
/opt/xchem-fragalysis-2/maxwin/BulkDock/SCRATCH/511013/C8175-P101/C8175-P101.minimised.mol

>  <scratch_subdir>  (1076) 
/opt/xchem-fragalysis-2/maxwin/BulkDock/SCRATCH/511013/C8175-P101

>  <fragmenstein_runtime>  (1076) 
27.502023220062256

>  <fragmenstein_outcome>  (1076) 
too moved

>  <fragmenstein_mode>  (1076) 
expansion

>  <fragmenstein_error>  (1076) 


$$$$
C8175-P122
     RDKit          3D

 45 46  0  0  0  0  0  0  0  0999 V2000
  -12.0833  -24.2473   25.8320 C   0  0  0  0  0  0  0  0  0  0  0  0
  -11.7339  -24.9464   27.1226 C   0  0  0  0  0  0  0  0  0  0  0  0
  -10.7318  -24.3096   27.9427 N   0  0  0  0  0  0  0  0  0  0  0  0
   -9.8872  -25.0602   28.6704 C   0  0  0  0  0  0  0  0  0  0  0  0
   -8.7417  -24.4522   28.6875 N   0  0  0  0  0  0  0  0  0  0  0  0
   -8.8142  -23.0811   28.1517 C   0  0  0  0  0  0  0  0  0  0  0  0
   -7.5379  -22.2598   27.3196 C   0  0  0  0  0  0  0  0  0  0  0  0
   -6.9925  -23.0163   26.6204 O   0  0  0  0  0  0  0  0  0  0  0  0
   -7.0779  -20.5060   27.2277 N   0  0  0  0  0  0  0  0  0  0  0  0
   -5.8447  -19.5459   25.9621 C   0  0  0  0  0  0  0  0  0  0  0  0
   -4.7898  -20.5543   25.4897 C   0  0  0  0  0  0  0  0  0  0  0  0
   -6.3205  -18.7750   23.9788 C   0  0  0  0  0  0  0  0  0  0  0  0
   -6.1256  -18.5381   22.1528 N   0  0  0  0  0  0  0  0  0  0  0  0
   -5.2218  -17.4634   21.3001 C   0  0  0  0  0  0  0  0  0  0  0  0
   -4.5475  -16.5158   21.7133 O   0  0  0  0  0  0  0  0  0  0  0  0
   -4.9566  -17.6562   19.6302 C   0  0  0  0  0  0  0  0  0  0  0  0
   -3.1160  -17.0092   19.2455 C   0  0  0  0  0  0  0  0  0  0  0  0
   -2.0658  -15.4193   19.2450 C   0  0  0  0  0  0  0  0  0  0  0  0
   -1.8289  -14.2097   18.1358 C   0  0  0  0  0  0  0  0  0  0  0  0
   -1.9765  -12.7392   18.7797 C   0  0  0  0  0  0  0  0  0  0  0  0
   -2.0134  -12.8764   20.1895 N   0  0  0  0  0  0  0  0  0  0  0  0
   -2.0003  -14.5926   20.4078 N   0  0  0  0  0  0  0  0  0  0  0  0
  -10.2517  -23.0111   27.9398 C   0  0  0  0  0  0  0  0  0  0  0  0
  -11.2312  -24.2563   25.1454 H   0  0  0  0  0  0  0  0  0  0  0  0
  -12.9244  -24.7558   25.3531 H   0  0  0  0  0  0  0  0  0  0  0  0
  -12.3623  -23.2113   25.9958 H   0  0  0  0  0  0  0  0  0  0  0  0
  -12.5895  -25.1488   27.7586 H   0  0  0  0  0  0  0  0  0  0  0  0
  -11.3417  -25.9367   26.8504 H   0  0  0  0  0  0  0  0  0  0  0  0
  -10.0836  -26.0628   29.0264 H   0  0  0  0  0  0  0  0  0  0  0  0
   -7.5737  -20.0048   27.9515 H   0  0  0  0  0  0  0  0  0  0  0  0
   -5.4098  -19.0581   26.8171 H   0  0  0  0  0  0  0  0  0  0  0  0
   -4.8042  -21.3183   26.2336 H   0  0  0  0  0  0  0  0  0  0  0  0
   -4.0003  -19.9904   25.0532 H   0  0  0  0  0  0  0  0  0  0  0  0
   -4.9394  -21.1942   24.6371 H   0  0  0  0  0  0  0  0  0  0  0  0
   -7.2098  -19.3318   23.6207 H   0  0  0  0  0  0  0  0  0  0  0  0
   -6.4523  -17.7217   23.9114 H   0  0  0  0  0  0  0  0  0  0  0  0
   -6.4879  -19.2443   21.5240 H   0  0  0  0  0  0  0  0  0  0  0  0
   -4.8050  -18.7386   19.4943 H   0  0  0  0  0  0  0  0  0  0  0  0
   -5.7246  -17.4155   18.9274 H   0  0  0  0  0  0  0  0  0  0  0  0
   -2.4979  -17.6193   19.9140 H   0  0  0  0  0  0  0  0  0  0  0  0
   -2.9834  -17.3883   18.2401 H   0  0  0  0  0  0  0  0  0  0  0  0
   -2.0110  -14.3453   17.0666 H   0  0  0  0  0  0  0  0  0  0  0  0
   -2.0482  -11.7774   18.2965 H   0  0  0  0  0  0  0  0  0  0  0  0
   -1.9390  -14.9660   21.3465 H   0  0  0  0  0  0  0  0  0  0  0  0
  -10.8861  -22.2219   27.5547 H   0  0  0  0  0  0  0  0  0  0  0  0
  1  2  1  0
  2  3  1  0
  3  4  1  0
  4  5  2  0
  5  6  1  0
  6  7  1  0
  7  8  2  0
  7  9  1  0
  9 10  1  0
 10 11  1  0
 10 12  1  0
 12 13  1  0
 13 14  1  0
 14 15  2  0
 14 16  1  0
 16 17  1  0
 17 18  1  0
 18 19  2  0
 19 20  1  0
 20 21  2  0
 21 22  1  0
  6 23  2  0
 23  3  1  0
 22 18  1  0
  1 24  1  0
  1 25  1  0
  1 26  1  0
  2 27  1  0
  2 28  1  0
  4 29  1  0
  9 30  1  0
 10 31  1  0
 11 32  1  0
 11 33  1  0
 11 34  1  0
 12 35  1  0
 12 36  1  0
 13 37  1  0
 16 38  1  0
 16 39  1  0
 17 40  1  0
 17 41  1  0
 19 42  1  0
 20 43  1  0
 22 44  1  0
 23 45  1  0
M  END
>  <Energy>  (1077) 
708.06977471202947

>  <compound_id>  (1077) 
8175

>  <target_id>  (1077) 
1

>  <reference_id>  (1077) 
122

>  <inspiration_ids>  (1077) 
[101, 122]

>  <energy_score>  (1077) 
647.875448921997

>  <distance_score>  (1077) 
13.547538573738002

>  <path>  (1077) 
/opt/xchem-fragalysis-2/maxwin/BulkDock/SCRATCH/511013/C8175-P122/C8175-P122.minimised.mol

>  <scratch_subdir>  (1077) 
/opt/xchem-fragalysis-2/maxwin/BulkDock/SCRATCH/511013/C8175-P122

>  <fragmenstein_runtime>  (1077) 
28.665918827056885

>  <fragmenstein_outcome>  (1077) 
too moved

>  <fragmenstein_mode>  (1077) 
expansion

>  <fragmenstein_error>  (1077) 


$$$$
C8176-P101
     RDKit          3D

 46 48  0  0  0  0  0  0  0  0999 V2000
   -2.3566  -18.1583   18.1450 C   0  0  0  0  0  0  0  0  0  0  0  0
   -2.8926  -16.7501   18.3397 C   0  0  0  0  0  0  0  0  0  0  0  0
   -1.8241  -15.5634   19.0187 C   0  0  0  0  0  0  0  0  0  0  0  0
   -1.7816  -13.9224   18.1077 N   0  0  0  0  0  0  0  0  0  0  0  0
   -2.0723  -12.4426   18.6275 C   0  0  0  0  0  0  0  0  0  0  0  0
   -2.3024  -12.0368   19.7522 O   0  0  0  0  0  0  0  0  0  0  0  0
   -2.2248  -11.2395   17.5611 C   0  0  0  0  0  0  0  0  0  0  0  0
   -2.1931   -9.6519   18.0920 C   0  0  0  0  0  0  0  0  0  0  0  0
   -1.2114   -8.5270   17.6089 C   0  0  0  0  0  0  0  0  0  0  0  0
   -1.1291   -7.7165   16.4879 C   0  0  0  0  0  0  0  0  0  0  0  0
    0.0675   -6.9715   16.6295 C   0  0  0  0  0  0  0  0  0  0  0  0
    0.7112   -7.2588   17.7594 N   0  0  0  0  0  0  0  0  0  0  0  0
   -0.1033   -8.1557   18.3581 N   0  0  0  0  0  0  0  0  0  0  0  0
   -4.1925  -16.9891   19.0252 N   0  0  0  0  0  0  0  0  0  0  0  0
   -5.3841  -17.6720   18.5810 C   0  0  0  0  0  0  0  0  0  0  0  0
   -5.6584  -18.1507   17.5195 O   0  0  0  0  0  0  0  0  0  0  0  0
   -6.3828  -17.8763   19.6853 C   0  0  0  0  0  0  0  0  0  0  0  0
   -7.4610  -18.7495   19.6349 C   0  0  0  0  0  0  0  0  0  0  0  0
   -8.1028  -18.6510   20.8365 N   0  0  0  0  0  0  0  0  0  0  0  0
   -7.4541  -17.6905   21.5572 C   0  0  0  0  0  0  0  0  0  0  0  0
   -7.9254  -17.1287   22.9203 C   0  0  0  0  0  0  0  0  0  0  0  0
   -9.3692  -16.7531   23.1312 C   0  0  0  0  0  0  0  0  0  0  0  0
   -8.3346  -15.6797   22.9818 C   0  0  0  0  0  0  0  0  0  0  0  0
   -6.3829  -17.2494   20.9285 N   0  0  0  0  0  0  0  0  0  0  0  0
   -1.3177  -18.2205   17.8439 H   0  0  0  0  0  0  0  0  0  0  0  0
   -2.9271  -18.6734   17.3612 H   0  0  0  0  0  0  0  0  0  0  0  0
   -2.5184  -18.7410   19.0538 H   0  0  0  0  0  0  0  0  0  0  0  0
   -3.1456  -16.3884   17.3322 H   0  0  0  0  0  0  0  0  0  0  0  0
   -1.0302  -16.0083   19.6121 H   0  0  0  0  0  0  0  0  0  0  0  0
   -2.3183  -15.2397   19.9540 H   0  0  0  0  0  0  0  0  0  0  0  0
   -1.7132  -13.9175   17.0954 H   0  0  0  0  0  0  0  0  0  0  0  0
   -1.8604  -11.4493   16.5671 H   0  0  0  0  0  0  0  0  0  0  0  0
   -3.3066  -11.3464   17.3560 H   0  0  0  0  0  0  0  0  0  0  0  0
   -2.1623   -9.6621   19.1884 H   0  0  0  0  0  0  0  0  0  0  0  0
   -3.1883   -9.2554   17.8400 H   0  0  0  0  0  0  0  0  0  0  0  0
   -1.8254   -7.6878   15.6622 H   0  0  0  0  0  0  0  0  0  0  0  0
    0.4890   -6.2416   15.9512 H   0  0  0  0  0  0  0  0  0  0  0  0
    0.1968   -8.6035   19.2220 H   0  0  0  0  0  0  0  0  0  0  0  0
   -4.2755  -16.7910   20.0152 H   0  0  0  0  0  0  0  0  0  0  0  0
   -7.7963  -19.4202   18.8549 H   0  0  0  0  0  0  0  0  0  0  0  0
   -8.9348  -19.1523   21.1164 H   0  0  0  0  0  0  0  0  0  0  0  0
   -7.3735  -17.5158   23.7651 H   0  0  0  0  0  0  0  0  0  0  0  0
  -10.0748  -16.8768   22.3179 H   0  0  0  0  0  0  0  0  0  0  0  0
   -9.7994  -16.8731   24.1174 H   0  0  0  0  0  0  0  0  0  0  0  0
   -8.3471  -15.1002   22.0653 H   0  0  0  0  0  0  0  0  0  0  0  0
   -8.0525  -15.1101   23.8598 H   0  0  0  0  0  0  0  0  0  0  0  0
  1  2  1  0
  2  3  1  0
  3  4  1  0
  4  5  1  0
  5  6  2  0
  5  7  1  0
  7  8  1  0
  8  9  1  0
  9 10  2  0
 10 11  1  0
 11 12  2  0
 12 13  1  0
  2 14  1  0
 14 15  1  0
 15 16  2  0
 15 17  1  0
 17 18  2  0
 18 19  1  0
 19 20  1  0
 20 21  1  0
 21 22  1  0
 22 23  1  0
 20 24  2  0
 13  9  1  0
 24 17  1  0
 23 21  1  0
  1 25  1  0
  1 26  1  0
  1 27  1  0
  2 28  1  0
  3 29  1  0
  3 30  1  0
  4 31  1  0
  7 32  1  0
  7 33  1  0
  8 34  1  0
  8 35  1  0
 10 36  1  0
 11 37  1  0
 13 38  1  0
 14 39  1  0
 18 40  1  0
 19 41  1  0
 21 42  1  0
 22 43  1  0
 22 44  1  0
 23 45  1  0
 23 46  1  0
M  END
>  <Energy>  (1078) 
148.91127251453818

>  <compound_id>  (1078) 
8176

>  <target_id>  (1078) 
1

>  <reference_id>  (1078) 
101

>  <inspiration_ids>  (1078) 
[101, 122]

>  <energy_score>  (1078) 
85.14433402706823

>  <distance_score>  (1078) 
13.499672419309016

>  <path>  (1078) 
/opt/xchem-fragalysis-2/maxwin/BulkDock/SCRATCH/511013/C8176-P101/C8176-P101.minimised.mol

>  <scratch_subdir>  (1078) 
/opt/xchem-fragalysis-2/maxwin/BulkDock/SCRATCH/511013/C8176-P101

>  <fragmenstein_runtime>  (1078) 
36.24074649810791

>  <fragmenstein_outcome>  (1078) 
too moved

>  <fragmenstein_mode>  (1078) 
expansion

>  <fragmenstein_error>  (1078) 


$$$$
C8176-P122
     RDKit          3D

 46 48  0  0  0  0  0  0  0  0999 V2000
    3.3986  -17.8236   25.4976 C   0  0  0  0  0  0  0  0  0  0  0  0
    3.5932  -17.3707   23.7531 C   0  0  0  0  0  0  0  0  0  0  0  0
    3.5284  -15.3099   23.2274 C   0  0  0  0  0  0  0  0  0  0  0  0
    3.3851  -14.1555   21.5900 N   0  0  0  0  0  0  0  0  0  0  0  0
    4.7115  -13.2303   20.6239 C   0  0  0  0  0  0  0  0  0  0  0  0
    5.8932  -13.1181   20.9282 O   0  0  0  0  0  0  0  0  0  0  0  0
    4.4904  -12.6108   19.2189 C   0  0  0  0  0  0  0  0  0  0  0  0
    5.7787  -11.2891   18.6492 C   0  0  0  0  0  0  0  0  0  0  0  0
    5.4819  -10.1238   17.3728 C   0  0  0  0  0  0  0  0  0  0  0  0
    4.5396   -9.1288   17.1244 C   0  0  0  0  0  0  0  0  0  0  0  0
    4.7999   -8.6086   15.8488 C   0  0  0  0  0  0  0  0  0  0  0  0
    5.8223   -9.2200   15.2702 N   0  0  0  0  0  0  0  0  0  0  0  0
    6.2242  -10.1158   16.1907 N   0  0  0  0  0  0  0  0  0  0  0  0
    2.6221  -19.0968   24.0222 N   0  0  0  0  0  0  0  0  0  0  0  0
    1.5849  -20.2037   22.7706 C   0  0  0  0  0  0  0  0  0  0  0  0
    1.6005  -19.9018   21.5951 O   0  0  0  0  0  0  0  0  0  0  0  0
    0.2442  -21.6800   23.0760 C   0  0  0  0  0  0  0  0  0  0  0  0
   -1.1865  -21.6454   23.3917 C   0  0  0  0  0  0  0  0  0  0  0  0
   -1.8129  -22.8673   23.2497 N   0  0  0  0  0  0  0  0  0  0  0  0
   -0.9995  -23.6656   22.5227 C   0  0  0  0  0  0  0  0  0  0  0  0
   -1.3831  -25.0495   21.9492 C   0  0  0  0  0  0  0  0  0  0  0  0
   -1.9449  -26.1050   22.8656 C   0  0  0  0  0  0  0  0  0  0  0  0
   -0.5491  -26.2435   22.3305 C   0  0  0  0  0  0  0  0  0  0  0  0
    0.1262  -23.0461   22.2614 N   0  0  0  0  0  0  0  0  0  0  0  0
    3.5813  -17.0426   26.2453 H   0  0  0  0  0  0  0  0  0  0  0  0
    3.8585  -18.8130   25.6535 H   0  0  0  0  0  0  0  0  0  0  0  0
    2.4468  -17.9264   25.9103 H   0  0  0  0  0  0  0  0  0  0  0  0
    4.5114  -16.9103   24.1946 H   0  0  0  0  0  0  0  0  0  0  0  0
    2.6076  -14.8629   23.4769 H   0  0  0  0  0  0  0  0  0  0  0  0
    4.2334  -14.9117   23.9582 H   0  0  0  0  0  0  0  0  0  0  0  0
    2.5330  -14.1563   21.0762 H   0  0  0  0  0  0  0  0  0  0  0  0
    3.6988  -12.5053   18.5126 H   0  0  0  0  0  0  0  0  0  0  0  0
    4.7153  -13.5792   18.7702 H   0  0  0  0  0  0  0  0  0  0  0  0
    6.4154  -10.9780   19.4680 H   0  0  0  0  0  0  0  0  0  0  0  0
    6.4168  -11.6777   17.9727 H   0  0  0  0  0  0  0  0  0  0  0  0
    3.6842   -8.8589   17.7172 H   0  0  0  0  0  0  0  0  0  0  0  0
    4.2572   -7.8455   15.3079 H   0  0  0  0  0  0  0  0  0  0  0  0
    7.0622  -10.6488   15.9774 H   0  0  0  0  0  0  0  0  0  0  0  0
    2.5835  -19.4881   24.8734 H   0  0  0  0  0  0  0  0  0  0  0  0
   -1.8431  -20.8134   23.5861 H   0  0  0  0  0  0  0  0  0  0  0  0
   -2.7913  -23.0494   23.4172 H   0  0  0  0  0  0  0  0  0  0  0  0
   -1.7536  -25.0170   20.9296 H   0  0  0  0  0  0  0  0  0  0  0  0
   -2.0586  -25.8816   23.9190 H   0  0  0  0  0  0  0  0  0  0  0  0
   -2.7117  -26.7577   22.4635 H   0  0  0  0  0  0  0  0  0  0  0  0
    0.2848  -26.0848   23.0046 H   0  0  0  0  0  0  0  0  0  0  0  0
   -0.3619  -26.9849   21.5625 H   0  0  0  0  0  0  0  0  0  0  0  0
  1  2  1  0
  2  3  1  0
  3  4  1  0
  4  5  1  0
  5  6  2  0
  5  7  1  0
  7  8  1  0
  8  9  1  0
  9 10  2  0
 10 11  1  0
 11 12  2  0
 12 13  1  0
  2 14  1  0
 14 15  1  0
 15 16  2  0
 15 17  1  0
 17 18  2  0
 18 19  1  0
 19 20  1  0
 20 21  1  0
 21 22  1  0
 22 23  1  0
 20 24  2  0
 13  9  1  0
 24 17  1  0
 23 21  1  0
  1 25  1  0
  1 26  1  0
  1 27  1  0
  2 28  1  0
  3 29  1  0
  3 30  1  0
  4 31  1  0
  7 32  1  0
  7 33  1  0
  8 34  1  0
  8 35  1  0
 10 36  1  0
 11 37  1  0
 13 38  1  0
 14 39  1  0
 18 40  1  0
 19 41  1  0
 21 42  1  0
 22 43  1  0
 22 44  1  0
 23 45  1  0
 23 46  1  0
M  END
>  <Energy>  (1079) 
881.07605274628963

>  <compound_id>  (1079) 
8176

>  <target_id>  (1079) 
1

>  <reference_id>  (1079) 
122

>  <inspiration_ids>  (1079) 
[101, 122]

>  <energy_score>  (1079) 
817.309114258822

>  <distance_score>  (1079) 
11.985502521238034

>  <path>  (1079) 
/opt/xchem-fragalysis-2/maxwin/BulkDock/SCRATCH/511013/C8176-P122/C8176-P122.minimised.mol

>  <scratch_subdir>  (1079) 
/opt/xchem-fragalysis-2/maxwin/BulkDock/SCRATCH/511013/C8176-P122

>  <fragmenstein_runtime>  (1079) 
31.871155500411987

>  <fragmenstein_outcome>  (1079) 
too moved

>  <fragmenstein_mode>  (1079) 
expansion

>  <fragmenstein_error>  (1079) 


$$$$
C8177-P101
     RDKit          3D

 45 46  0  0  0  0  0  0  0  0999 V2000
   -7.1107  -18.5729   18.7131 C   0  0  0  0  0  0  0  0  0  0  0  0
   -5.8721  -19.3336   18.9867 C   0  0  0  0  0  0  0  0  0  0  0  0
   -5.9028  -20.6370   19.4221 N   0  0  0  0  0  0  0  0  0  0  0  0
   -4.6137  -21.0455   19.5894 C   0  0  0  0  0  0  0  0  0  0  0  0
   -3.7614  -20.0713   19.3469 N   0  0  0  0  0  0  0  0  0  0  0  0
   -4.5236  -18.9771   18.9480 C   0  0  0  0  0  0  0  0  0  0  0  0
   -3.9578  -17.6077   18.6792 C   0  0  0  0  0  0  0  0  0  0  0  0
   -4.4500  -16.9519   17.8065 O   0  0  0  0  0  0  0  0  0  0  0  0
   -2.9126  -17.2749   19.6470 N   0  0  0  0  0  0  0  0  0  0  0  0
   -2.0791  -16.0818   19.7898 C   0  0  0  0  0  0  0  0  0  0  0  0
   -2.0245  -14.3947   20.3713 C   0  0  0  0  0  0  0  0  0  0  0  0
   -1.7643  -14.1021   18.3974 C   0  0  0  0  0  0  0  0  0  0  0  0
   -1.0475  -14.7944   22.1134 C   0  0  0  0  0  0  0  0  0  0  0  0
   -2.3383  -12.4527   20.2150 C   0  0  0  0  0  0  0  0  0  0  0  0
   -1.9649  -11.1282   19.6615 N   0  0  0  0  0  0  0  0  0  0  0  0
   -2.3514  -10.4593   18.4087 C   0  0  0  0  0  0  0  0  0  0  0  0
   -3.0011  -10.8555   17.4790 O   0  0  0  0  0  0  0  0  0  0  0  0
   -1.8584   -8.9191   18.4538 C   0  0  0  0  0  0  0  0  0  0  0  0
   -0.7465   -8.1896   17.6827 C   0  0  0  0  0  0  0  0  0  0  0  0
   -0.7155   -7.3682   16.5668 C   0  0  0  0  0  0  0  0  0  0  0  0
    0.6145   -6.8936   16.4628 C   0  0  0  0  0  0  0  0  0  0  0  0
    1.3897   -7.3598   17.4397 N   0  0  0  0  0  0  0  0  0  0  0  0
    0.5508   -8.1382   18.1502 N   0  0  0  0  0  0  0  0  0  0  0  0
   -7.0540  -18.0795   17.7384 H   0  0  0  0  0  0  0  0  0  0  0  0
   -7.9886  -19.2273   18.7000 H   0  0  0  0  0  0  0  0  0  0  0  0
   -7.2701  -17.8168   19.4877 H   0  0  0  0  0  0  0  0  0  0  0  0
   -6.7283  -21.1944   19.5958 H   0  0  0  0  0  0  0  0  0  0  0  0
   -4.3591  -22.0438   19.9165 H   0  0  0  0  0  0  0  0  0  0  0  0
   -2.6860  -18.0946   20.1793 H   0  0  0  0  0  0  0  0  0  0  0  0
   -1.2165  -16.5398   20.2844 H   0  0  0  0  0  0  0  0  0  0  0  0
   -1.6940  -16.0842   18.8276 H   0  0  0  0  0  0  0  0  0  0  0  0
   -0.7800  -13.8427   17.9779 H   0  0  0  0  0  0  0  0  0  0  0  0
   -2.2942  -13.1903   18.0867 H   0  0  0  0  0  0  0  0  0  0  0  0
   -2.0758  -14.8471   17.6794 H   0  0  0  0  0  0  0  0  0  0  0  0
   -1.4679  -14.9165   23.1048 H   0  0  0  0  0  0  0  0  0  0  0  0
   -0.4511  -15.7391   21.8760 H   0  0  0  0  0  0  0  0  0  0  0  0
   -0.2570  -14.1055   22.4155 H   0  0  0  0  0  0  0  0  0  0  0  0
   -3.4176  -12.2633   20.2812 H   0  0  0  0  0  0  0  0  0  0  0  0
   -1.9223  -12.0829   21.1186 H   0  0  0  0  0  0  0  0  0  0  0  0
   -1.3385  -10.5185   20.1853 H   0  0  0  0  0  0  0  0  0  0  0  0
   -1.6782   -8.7128   19.5150 H   0  0  0  0  0  0  0  0  0  0  0  0
   -2.7810   -8.3596   18.2331 H   0  0  0  0  0  0  0  0  0  0  0  0
   -1.5502   -7.1262   15.9239 H   0  0  0  0  0  0  0  0  0  0  0  0
    1.0358   -6.2263   15.7223 H   0  0  0  0  0  0  0  0  0  0  0  0
    0.9096   -8.6910   18.9217 H   0  0  0  0  0  0  0  0  0  0  0  0
  1  2  1  0
  2  3  1  0
  3  4  1  0
  4  5  2  0
  5  6  1  0
  6  7  1  0
  7  8  2  0
  7  9  1  0
  9 10  1  0
 10 11  1  0
 11 12  1  0
 11 13  1  0
 11 14  1  0
 14 15  1  0
 15 16  1  0
 16 17  2  0
 16 18  1  0
 18 19  1  0
 19 20  2  0
 20 21  1  0
 21 22  2  0
 22 23  1  0
  6  2  2  0
 23 19  1  0
  1 24  1  0
  1 25  1  0
  1 26  1  0
  3 27  1  0
  4 28  1  0
  9 29  1  0
 10 30  1  0
 10 31  1  0
 12 32  1  0
 12 33  1  0
 12 34  1  0
 13 35  1  0
 13 36  1  0
 13 37  1  0
 14 38  1  0
 14 39  1  0
 15 40  1  0
 18 41  1  0
 18 42  1  0
 20 43  1  0
 21 44  1  0
 23 45  1  0
M  END
>  <Energy>  (1080) 
429.38101016161846

>  <compound_id>  (1080) 
8177

>  <target_id>  (1080) 
1

>  <reference_id>  (1080) 
101

>  <inspiration_ids>  (1080) 
[101, 122]

>  <energy_score>  (1080) 
345.0410926548632

>  <distance_score>  (1080) 
13.582244269598393

>  <path>  (1080) 
/opt/xchem-fragalysis-2/maxwin/BulkDock/SCRATCH/511013/C8177-P101/C8177-P101.minimised.mol

>  <scratch_subdir>  (1080) 
/opt/xchem-fragalysis-2/maxwin/BulkDock/SCRATCH/511013/C8177-P101

>  <fragmenstein_runtime>  (1080) 
42.70271134376526

>  <fragmenstein_outcome>  (1080) 
too moved

>  <fragmenstein_mode>  (1080) 
expansion

>  <fragmenstein_error>  (1080) 


$$$$
C8177-P122
     RDKit          3D

 45 46  0  0  0  0  0  0  0  0999 V2000
   -8.1007  -17.8867   16.0961 C   0  0  0  0  0  0  0  0  0  0  0  0
   -6.7406  -18.1553   16.6208 C   0  0  0  0  0  0  0  0  0  0  0  0
   -6.5271  -18.8676   17.7792 N   0  0  0  0  0  0  0  0  0  0  0  0
   -5.1803  -18.9336   17.9752 C   0  0  0  0  0  0  0  0  0  0  0  0
   -4.5224  -18.3034   17.0232 N   0  0  0  0  0  0  0  0  0  0  0  0
   -5.4769  -17.8019   16.1338 C   0  0  0  0  0  0  0  0  0  0  0  0
   -5.1707  -17.0337   14.8478 C   0  0  0  0  0  0  0  0  0  0  0  0
   -6.1040  -16.6315   14.2146 O   0  0  0  0  0  0  0  0  0  0  0  0
   -3.7571  -16.9881   14.5692 N   0  0  0  0  0  0  0  0  0  0  0  0
   -3.0225  -16.5255   13.3843 C   0  0  0  0  0  0  0  0  0  0  0  0
   -2.4221  -15.0480   13.2577 C   0  0  0  0  0  0  0  0  0  0  0  0
   -2.8103  -14.5402   11.8451 C   0  0  0  0  0  0  0  0  0  0  0  0
   -3.0405  -14.0836   14.2773 C   0  0  0  0  0  0  0  0  0  0  0  0
   -0.8344  -15.0473   13.3498 C   0  0  0  0  0  0  0  0  0  0  0  0
   -0.1079  -13.7888   13.0418 N   0  0  0  0  0  0  0  0  0  0  0  0
    1.2987  -13.4069   13.2664 C   0  0  0  0  0  0  0  0  0  0  0  0
    2.1874  -13.9901   13.8263 O   0  0  0  0  0  0  0  0  0  0  0  0
    1.5705  -11.9664   12.6969 C   0  0  0  0  0  0  0  0  0  0  0  0
    2.8134  -11.2183   13.2039 C   0  0  0  0  0  0  0  0  0  0  0  0
    3.1769   -9.8802   13.1036 C   0  0  0  0  0  0  0  0  0  0  0  0
    4.4439   -9.7749   13.7130 C   0  0  0  0  0  0  0  0  0  0  0  0
    4.8715  -10.9512   14.1679 N   0  0  0  0  0  0  0  0  0  0  0  0
    3.8687  -11.8038   13.8658 N   0  0  0  0  0  0  0  0  0  0  0  0
   -8.2807  -16.8088   16.0350 H   0  0  0  0  0  0  0  0  0  0  0  0
   -8.2178  -18.3169   15.0965 H   0  0  0  0  0  0  0  0  0  0  0  0
   -8.8728  -18.3195   16.7405 H   0  0  0  0  0  0  0  0  0  0  0  0
   -7.2341  -19.2699   18.3809 H   0  0  0  0  0  0  0  0  0  0  0  0
   -4.7403  -19.4464   18.8209 H   0  0  0  0  0  0  0  0  0  0  0  0
   -3.2435  -17.3584   15.3812 H   0  0  0  0  0  0  0  0  0  0  0  0
   -3.7206  -16.6927   12.5547 H   0  0  0  0  0  0  0  0  0  0  0  0
   -2.2114  -17.2494   13.2434 H   0  0  0  0  0  0  0  0  0  0  0  0
   -2.4917  -13.5066   11.6765 H   0  0  0  0  0  0  0  0  0  0  0  0
   -2.3577  -15.1637   11.0658 H   0  0  0  0  0  0  0  0  0  0  0  0
   -3.8975  -14.5629   11.7041 H   0  0  0  0  0  0  0  0  0  0  0  0
   -2.7410  -14.3116   15.3015 H   0  0  0  0  0  0  0  0  0  0  0  0
   -4.1349  -14.1116   14.2333 H   0  0  0  0  0  0  0  0  0  0  0  0
   -2.7369  -13.0507   14.0757 H   0  0  0  0  0  0  0  0  0  0  0  0
   -0.4303  -15.7892   12.6507 H   0  0  0  0  0  0  0  0  0  0  0  0
   -0.5139  -15.3552   14.3504 H   0  0  0  0  0  0  0  0  0  0  0  0
   -0.5522  -13.0903   12.4577 H   0  0  0  0  0  0  0  0  0  0  0  0
    0.6980  -11.3401   12.9192 H   0  0  0  0  0  0  0  0  0  0  0  0
    1.6531  -12.0640   11.6078 H   0  0  0  0  0  0  0  0  0  0  0  0
    2.6055   -9.0878   12.6415 H   0  0  0  0  0  0  0  0  0  0  0  0
    5.0696   -8.9007   13.8365 H   0  0  0  0  0  0  0  0  0  0  0  0
    3.9561  -12.7822   14.1354 H   0  0  0  0  0  0  0  0  0  0  0  0
  1  2  1  0
  2  3  1  0
  3  4  1  0
  4  5  2  0
  5  6  1  0
  6  7  1  0
  7  8  2  0
  7  9  1  0
  9 10  1  0
 10 11  1  0
 11 12  1  0
 11 13  1  0
 11 14  1  0
 14 15  1  0
 15 16  1  0
 16 17  2  0
 16 18  1  0
 18 19  1  0
 19 20  2  0
 20 21  1  0
 21 22  2  0
 22 23  1  0
  6  2  2  0
 23 19  1  0
  1 24  1  0
  1 25  1  0
  1 26  1  0
  3 27  1  0
  4 28  1  0
  9 29  1  0
 10 30  1  0
 10 31  1  0
 12 32  1  0
 12 33  1  0
 12 34  1  0
 13 35  1  0
 13 36  1  0
 13 37  1  0
 14 38  1  0
 14 39  1  0
 15 40  1  0
 18 41  1  0
 18 42  1  0
 20 43  1  0
 21 44  1  0
 23 45  1  0
M  END
>  <Energy>  (1081) 
55.038687879215921

>  <compound_id>  (1081) 
8177

>  <target_id>  (1081) 
1

>  <reference_id>  (1081) 
122

>  <inspiration_ids>  (1081) 
[101, 122]

>  <energy_score>  (1081) 
-29.301229627546036

>  <distance_score>  (1081) 
14.273960232518583

>  <path>  (1081) 
/opt/xchem-fragalysis-2/maxwin/BulkDock/SCRATCH/511013/C8177-P122/C8177-P122.minimised.mol

>  <scratch_subdir>  (1081) 
/opt/xchem-fragalysis-2/maxwin/BulkDock/SCRATCH/511013/C8177-P122

>  <fragmenstein_runtime>  (1081) 
34.196380853652954

>  <fragmenstein_outcome>  (1081) 
too moved

>  <fragmenstein_mode>  (1081) 
expansion

>  <fragmenstein_error>  (1081) 


$$$$
C8178-P101
     RDKit          3D

 36 38  0  0  0  0  0  0  0  0999 V2000
   -3.9112  -24.1645   21.9713 O   0  0  0  0  0  0  0  0  0  0  0  0
   -4.2207  -23.0451   22.2547 C   0  0  0  0  0  0  0  0  0  0  0  0
   -3.5485  -22.3432   23.4506 C   0  0  0  0  0  0  0  0  0  0  0  0
   -2.3128  -21.4097   23.3924 C   0  0  0  0  0  0  0  0  0  0  0  0
   -2.1938  -20.3454   22.3842 C   0  0  0  0  0  0  0  0  0  0  0  0
   -1.3947  -18.8439   21.6436 C   0  0  0  0  0  0  0  0  0  0  0  0
   -2.2089  -18.5187   20.1200 C   0  0  0  0  0  0  0  0  0  0  0  0
   -2.9648  -19.5978   19.7066 N   0  0  0  0  0  0  0  0  0  0  0  0
   -2.9871  -20.7362   20.7644 N   0  0  0  0  0  0  0  0  0  0  0  0
   -5.2374  -22.1879   21.7128 N   0  0  0  0  0  0  0  0  0  0  0  0
   -6.2638  -22.4371   20.7275 C   0  0  0  0  0  0  0  0  0  0  0  0
   -7.5495  -22.2157   21.4607 C   0  0  0  0  0  0  0  0  0  0  0  0
   -8.5608  -21.3940   21.2213 N   0  0  0  0  0  0  0  0  0  0  0  0
   -9.5237  -21.7052   22.1583 C   0  0  0  0  0  0  0  0  0  0  0  0
  -10.9883  -21.1479   22.2599 C   0  0  0  0  0  0  0  0  0  0  0  0
  -11.9183  -21.5399   23.2059 C   0  0  0  0  0  0  0  0  0  0  0  0
  -13.1645  -20.8598   23.0590 C   0  0  0  0  0  0  0  0  0  0  0  0
  -13.1479  -19.9867   21.9963 C   0  0  0  0  0  0  0  0  0  0  0  0
  -11.6416  -19.9979   21.1885 S   0  0  0  0  0  0  0  0  0  0  0  0
   -9.0416  -22.6732   23.0050 C   0  0  0  0  0  0  0  0  0  0  0  0
   -7.7675  -22.9059   22.6197 N   0  0  0  0  0  0  0  0  0  0  0  0
   -4.3480  -21.8214   23.9954 H   0  0  0  0  0  0  0  0  0  0  0  0
   -3.2883  -23.1570   24.1458 H   0  0  0  0  0  0  0  0  0  0  0  0
   -2.4462  -20.9518   24.3630 H   0  0  0  0  0  0  0  0  0  0  0  0
   -1.4290  -22.0501   23.3538 H   0  0  0  0  0  0  0  0  0  0  0  0
   -0.5060  -18.2736   21.8652 H   0  0  0  0  0  0  0  0  0  0  0  0
   -2.0350  -17.6338   19.5221 H   0  0  0  0  0  0  0  0  0  0  0  0
   -3.5855  -21.5416   20.6382 H   0  0  0  0  0  0  0  0  0  0  0  0
   -5.1604  -21.2692   22.1408 H   0  0  0  0  0  0  0  0  0  0  0  0
   -6.1444  -21.7180   19.9135 H   0  0  0  0  0  0  0  0  0  0  0  0
   -6.1806  -23.4598   20.3505 H   0  0  0  0  0  0  0  0  0  0  0  0
  -11.7374  -22.2823   23.9692 H   0  0  0  0  0  0  0  0  0  0  0  0
  -14.0220  -21.0103   23.7035 H   0  0  0  0  0  0  0  0  0  0  0  0
  -13.9458  -19.3476   21.6450 H   0  0  0  0  0  0  0  0  0  0  0  0
   -9.5313  -23.2732   23.7478 H   0  0  0  0  0  0  0  0  0  0  0  0
   -7.1101  -23.5528   23.0298 H   0  0  0  0  0  0  0  0  0  0  0  0
  1  2  2  0
  2  3  1  0
  3  4  1  0
  4  5  1  0
  5  6  2  0
  6  7  1  0
  7  8  2  0
  8  9  1  0
  2 10  1  0
 10 11  1  0
 11 12  1  0
 12 13  2  0
 13 14  1  0
 14 15  1  0
 15 16  2  0
 16 17  1  0
 17 18  2  0
 18 19  1  0
 14 20  2  0
 20 21  1  0
  9  5  1  0
 21 12  1  0
 19 15  1  0
  3 22  1  0
  3 23  1  0
  4 24  1  0
  4 25  1  0
  6 26  1  0
  7 27  1  0
  9 28  1  0
 10 29  1  0
 11 30  1  0
 11 31  1  0
 16 32  1  0
 17 33  1  0
 18 34  1  0
 20 35  1  0
 21 36  1  0
M  END
>  <Energy>  (1082) 
199.99112729187812

>  <compound_id>  (1082) 
8178

>  <target_id>  (1082) 
1

>  <reference_id>  (1082) 
101

>  <inspiration_ids>  (1082) 
[101, 122]

>  <energy_score>  (1082) 
172.24832828461138

>  <distance_score>  (1082) 
17.18495896657907

>  <path>  (1082) 
/opt/xchem-fragalysis-2/maxwin/BulkDock/SCRATCH/511013/C8178-P101/C8178-P101.minimised.mol

>  <scratch_subdir>  (1082) 
/opt/xchem-fragalysis-2/maxwin/BulkDock/SCRATCH/511013/C8178-P101

>  <fragmenstein_runtime>  (1082) 
21.534828186035156

>  <fragmenstein_outcome>  (1082) 
too moved

>  <fragmenstein_mode>  (1082) 
expansion

>  <fragmenstein_error>  (1082) 


$$$$
C8178-P122
     RDKit          3D

 36 38  0  0  0  0  0  0  0  0999 V2000
   -1.8477  -15.7314   11.7479 O   0  0  0  0  0  0  0  0  0  0  0  0
   -1.8740  -15.5242   12.9323 C   0  0  0  0  0  0  0  0  0  0  0  0
   -0.9047  -14.3650   13.4624 C   0  0  0  0  0  0  0  0  0  0  0  0
    0.1464  -13.7273   12.4499 C   0  0  0  0  0  0  0  0  0  0  0  0
    1.2157  -12.7334   12.9417 C   0  0  0  0  0  0  0  0  0  0  0  0
    2.5365  -12.9075   13.3299 C   0  0  0  0  0  0  0  0  0  0  0  0
    3.0726  -11.6138   13.5093 C   0  0  0  0  0  0  0  0  0  0  0  0
    2.1595  -10.6685   13.2920 N   0  0  0  0  0  0  0  0  0  0  0  0
    1.0742  -11.3630   12.8779 N   0  0  0  0  0  0  0  0  0  0  0  0
   -2.6928  -16.1435   14.0009 N   0  0  0  0  0  0  0  0  0  0  0  0
   -3.6621  -17.2783   13.9551 C   0  0  0  0  0  0  0  0  0  0  0  0
   -4.3295  -17.8180   15.2713 C   0  0  0  0  0  0  0  0  0  0  0  0
   -3.8875  -18.7651   16.1128 N   0  0  0  0  0  0  0  0  0  0  0  0
   -4.9225  -19.0428   17.0094 C   0  0  0  0  0  0  0  0  0  0  0  0
   -4.8884  -20.1286   18.1607 C   0  0  0  0  0  0  0  0  0  0  0  0
   -3.7850  -20.8960   18.4660 C   0  0  0  0  0  0  0  0  0  0  0  0
   -4.0355  -21.8241   19.5173 C   0  0  0  0  0  0  0  0  0  0  0  0
   -5.3262  -21.7268   19.9845 C   0  0  0  0  0  0  0  0  0  0  0  0
   -6.2130  -20.5201   19.1613 S   0  0  0  0  0  0  0  0  0  0  0  0
   -6.0016  -18.2485   16.7121 C   0  0  0  0  0  0  0  0  0  0  0  0
   -5.6103  -17.4629   15.6556 N   0  0  0  0  0  0  0  0  0  0  0  0
   -0.3548  -14.7503   14.3178 H   0  0  0  0  0  0  0  0  0  0  0  0
   -1.5795  -13.5690   13.7785 H   0  0  0  0  0  0  0  0  0  0  0  0
    0.6798  -14.5600   11.9719 H   0  0  0  0  0  0  0  0  0  0  0  0
   -0.4225  -13.2438   11.6446 H   0  0  0  0  0  0  0  0  0  0  0  0
    3.0526  -13.8522   13.4381 H   0  0  0  0  0  0  0  0  0  0  0  0
    4.0782  -11.3309   13.7929 H   0  0  0  0  0  0  0  0  0  0  0  0
    0.2593  -10.8419   12.5714 H   0  0  0  0  0  0  0  0  0  0  0  0
   -2.3915  -15.7821   14.9058 H   0  0  0  0  0  0  0  0  0  0  0  0
   -4.4499  -16.9815   13.2534 H   0  0  0  0  0  0  0  0  0  0  0  0
   -3.1260  -18.1146   13.4916 H   0  0  0  0  0  0  0  0  0  0  0  0
   -2.8395  -20.7973   17.9466 H   0  0  0  0  0  0  0  0  0  0  0  0
   -3.3062  -22.5180   19.9141 H   0  0  0  0  0  0  0  0  0  0  0  0
   -5.7903  -22.2883   20.7834 H   0  0  0  0  0  0  0  0  0  0  0  0
   -6.9870  -18.1623   17.1417 H   0  0  0  0  0  0  0  0  0  0  0  0
   -6.1838  -16.7749   15.1885 H   0  0  0  0  0  0  0  0  0  0  0  0
  1  2  2  0
  2  3  1  0
  3  4  1  0
  4  5  1  0
  5  6  2  0
  6  7  1  0
  7  8  2  0
  8  9  1  0
  2 10  1  0
 10 11  1  0
 11 12  1  0
 12 13  2  0
 13 14  1  0
 14 15  1  0
 15 16  2  0
 16 17  1  0
 17 18  2  0
 18 19  1  0
 14 20  2  0
 20 21  1  0
  9  5  1  0
 21 12  1  0
 19 15  1  0
  3 22  1  0
  3 23  1  0
  4 24  1  0
  4 25  1  0
  6 26  1  0
  7 27  1  0
  9 28  1  0
 10 29  1  0
 11 30  1  0
 11 31  1  0
 16 32  1  0
 17 33  1  0
 18 34  1  0
 20 35  1  0
 21 36  1  0
M  END
>  <Energy>  (1083) 
18.483582092681388

>  <compound_id>  (1083) 
8178

>  <target_id>  (1083) 
1

>  <reference_id>  (1083) 
122

>  <inspiration_ids>  (1083) 
[101, 122]

>  <energy_score>  (1083) 
-9.259216914580406

>  <distance_score>  (1083) 
14.863468935371065

>  <path>  (1083) 
/opt/xchem-fragalysis-2/maxwin/BulkDock/SCRATCH/511013/C8178-P122/C8178-P122.minimised.mol

>  <scratch_subdir>  (1083) 
/opt/xchem-fragalysis-2/maxwin/BulkDock/SCRATCH/511013/C8178-P122

>  <fragmenstein_runtime>  (1083) 
36.02833080291748

>  <fragmenstein_outcome>  (1083) 
too moved

>  <fragmenstein_mode>  (1083) 
expansion

>  <fragmenstein_error>  (1083) 


$$$$
C35781-P97
     RDKit          3D

 55 58  0  0  0  0  0  0  0  0999 V2000
    3.8329    1.5025   27.0531 C   0  0  0  0  0  0  0  0  0  0  0  0
    3.0898    0.7003   25.9500 C   0  0  0  0  0  0  0  0  0  0  0  0
    2.4343    1.8432   25.0982 C   0  0  0  0  0  0  0  0  0  0  0  0
    3.6948   -0.6660   25.5685 N   0  0  0  0  0  0  0  0  0  0  0  0
    4.1027   -1.3668   26.7857 C   0  0  0  0  0  0  0  0  0  0  0  0
    5.5424   -1.0041   27.2082 C   0  0  0  0  0  0  0  0  0  0  0  0
    6.2539   -0.3209   26.1535 O   0  0  0  0  0  0  0  0  0  0  0  0
    6.9789   -1.2082   25.2367 C   0  0  0  0  0  0  0  0  0  0  0  0
    6.0301   -1.9973   23.5618 C   0  0  0  0  0  0  0  0  0  0  0  0
    5.5767   -2.8049   24.4818 C   0  0  0  0  0  0  0  0  0  0  0  0
    6.9249   -3.5670   24.2855 C   0  0  0  0  0  0  0  0  0  0  0  0
    7.4587   -3.9764   22.5187 C   0  0  0  0  0  0  0  0  0  0  0  0
    8.7825   -3.4567   21.1099 N   0  0  0  0  0  0  0  0  0  0  0  0
   10.9072   -3.6058   21.4433 C   0  0  0  0  0  0  0  0  0  0  0  0
   11.4566   -3.8650   22.4821 O   0  0  0  0  0  0  0  0  0  0  0  0
   12.2403   -3.5286   20.1174 C   0  0  0  0  0  0  0  0  0  0  0  0
   12.6372   -4.6328   19.3970 C   0  0  0  0  0  0  0  0  0  0  0  0
   13.3277   -4.4819   18.1739 C   0  0  0  0  0  0  0  0  0  0  0  0
   14.2205   -3.4290   18.1366 C   0  0  0  0  0  0  0  0  0  0  0  0
   15.0718   -2.9601   17.1720 N   0  0  0  0  0  0  0  0  0  0  0  0
   15.8965   -2.0103   17.7212 C   0  0  0  0  0  0  0  0  0  0  0  0
   15.5601   -1.8706   19.0534 C   0  0  0  0  0  0  0  0  0  0  0  0
   14.4492   -2.7162   19.3045 C   0  0  0  0  0  0  0  0  0  0  0  0
   13.5521   -2.9730   20.3871 C   0  0  0  0  0  0  0  0  0  0  0  0
    7.0679   -3.4893   22.3143 C   0  0  0  0  0  0  0  0  0  0  0  0
    4.3125   -1.2479   24.1064 C   0  0  0  0  0  0  0  0  0  0  0  0
    3.3075    2.4316   27.3090 H   0  0  0  0  0  0  0  0  0  0  0  0
    3.8769    0.9647   28.0028 H   0  0  0  0  0  0  0  0  0  0  0  0
    4.8436    1.7762   26.7386 H   0  0  0  0  0  0  0  0  0  0  0  0
    2.2158    0.3450   26.5197 H   0  0  0  0  0  0  0  0  0  0  0  0
    2.4340    1.6779   24.0323 H   0  0  0  0  0  0  0  0  0  0  0  0
    1.3999    2.0204   25.4221 H   0  0  0  0  0  0  0  0  0  0  0  0
    2.9006    2.8243   25.2549 H   0  0  0  0  0  0  0  0  0  0  0  0
    3.9487   -2.4416   26.6769 H   0  0  0  0  0  0  0  0  0  0  0  0
    3.4275   -1.1609   27.6275 H   0  0  0  0  0  0  0  0  0  0  0  0
    6.0965   -1.8772   27.5693 H   0  0  0  0  0  0  0  0  0  0  0  0
    5.5262   -0.3156   28.0574 H   0  0  0  0  0  0  0  0  0  0  0  0
    7.4663   -1.8881   25.9389 H   0  0  0  0  0  0  0  0  0  0  0  0
    7.8531   -0.6052   25.0040 H   0  0  0  0  0  0  0  0  0  0  0  0
    5.4410   -2.1737   25.3280 H   0  0  0  0  0  0  0  0  0  0  0  0
    4.5480   -3.2914   24.6027 H   0  0  0  0  0  0  0  0  0  0  0  0
    7.3722   -3.3605   25.2886 H   0  0  0  0  0  0  0  0  0  0  0  0
    7.9418   -3.2472   24.4752 H   0  0  0  0  0  0  0  0  0  0  0  0
    7.9719   -4.8755   23.1797 H   0  0  0  0  0  0  0  0  0  0  0  0
    7.3668   -5.2220   22.1825 H   0  0  0  0  0  0  0  0  0  0  0  0
   12.1531   -5.5272   19.7227 H   0  0  0  0  0  0  0  0  0  0  0  0
   13.2054   -5.1494   17.3373 H   0  0  0  0  0  0  0  0  0  0  0  0
   15.1233   -3.3042   16.2223 H   0  0  0  0  0  0  0  0  0  0  0  0
   16.6593   -1.5292   17.1241 H   0  0  0  0  0  0  0  0  0  0  0  0
   16.0224   -1.1881   19.7542 H   0  0  0  0  0  0  0  0  0  0  0  0
   13.8185   -2.5420   21.3475 H   0  0  0  0  0  0  0  0  0  0  0  0
    6.7158   -3.0509   21.1084 H   0  0  0  0  0  0  0  0  0  0  0  0
    5.9346   -2.9467   21.8304 H   0  0  0  0  0  0  0  0  0  0  0  0
    3.5285   -1.8978   23.7033 H   0  0  0  0  0  0  0  0  0  0  0  0
    4.4236   -0.2603   23.7610 H   0  0  0  0  0  0  0  0  0  0  0  0
  1  2  1  0
  2  3  1  0
  2  4  1  0
  4  5  1  0
  5  6  1  0
  6  7  1  0
  7  8  1  0
  8  9  1  0
  9 10  1  0
 10 11  1  0
 11 12  1  0
 12 13  1  0
 13 14  1  0
 14 15  2  0
 14 16  1  0
 16 17  2  0
 17 18  1  0
 18 19  2  0
 19 20  1  0
 20 21  1  0
 21 22  2  0
 22 23  1  0
 23 24  2  0
 13 25  1  0
  9 26  1  0
 26  4  1  0
 25  9  1  0
 24 16  1  0
 23 19  1  0
  1 27  1  0
  1 28  1  0
  1 29  1  0
  2 30  1  0
  3 31  1  0
  3 32  1  0
  3 33  1  0
  5 34  1  0
  5 35  1  0
  6 36  1  0
  6 37  1  0
  8 38  1  0
  8 39  1  0
 10 40  1  0
 10 41  1  0
 11 42  1  0
 11 43  1  0
 12 44  1  0
 12 45  1  0
 17 46  1  0
 18 47  1  0
 20 48  1  0
 21 49  1  0
 22 50  1  0
 24 51  1  0
 25 52  1  0
 25 53  1  0
 26 54  1  0
 26 55  1  0
M  END
>  <Energy>  (1084) 
1914.2415968297328

>  <compound_id>  (1084) 
35781

>  <target_id>  (1084) 
1

>  <reference_id>  (1084) 
97

>  <inspiration_ids>  (1084) 
[97, 70]

>  <energy_score>  (1084) 
1771.5354179323995

>  <distance_score>  (1084) 
6.405510569017334

>  <path>  (1084) 
/opt/xchem-fragalysis-2/maxwin/BulkDock/SCRATCH/511013/C35781-P97/C35781-P97.minimised.mol

>  <scratch_subdir>  (1084) 
/opt/xchem-fragalysis-2/maxwin/BulkDock/SCRATCH/511013/C35781-P97

>  <fragmenstein_runtime>  (1084) 
10.000895261764526

>  <fragmenstein_outcome>  (1084) 
too moved

>  <fragmenstein_mode>  (1084) 
expansion

>  <fragmenstein_error>  (1084) 


$$$$
C35781-P70
     RDKit          3D

 55 58  0  0  0  0  0  0  0  0999 V2000
    0.6970    3.7492   23.2214 C   0  0  0  0  0  0  0  0  0  0  0  0
    2.0457    3.6443   22.4650 C   0  0  0  0  0  0  0  0  0  0  0  0
    2.3858    5.0396   21.9329 C   0  0  0  0  0  0  0  0  0  0  0  0
    3.2532    3.1148   23.1948 N   0  0  0  0  0  0  0  0  0  0  0  0
    3.2095    3.4765   24.6366 C   0  0  0  0  0  0  0  0  0  0  0  0
    2.8838    2.3650   25.6415 C   0  0  0  0  0  0  0  0  0  0  0  0
    4.0092    1.5067   25.8111 O   0  0  0  0  0  0  0  0  0  0  0  0
    4.1832    0.2317   24.9958 C   0  0  0  0  0  0  0  0  0  0  0  0
    4.8664    0.0252   23.0951 C   0  0  0  0  0  0  0  0  0  0  0  0
    4.4411   -1.3742   24.1117 C   0  0  0  0  0  0  0  0  0  0  0  0
    4.5879   -2.3164   23.0915 C   0  0  0  0  0  0  0  0  0  0  0  0
    5.6061   -1.9440   21.3485 C   0  0  0  0  0  0  0  0  0  0  0  0
    7.5343   -1.7504   20.9824 N   0  0  0  0  0  0  0  0  0  0  0  0
    8.5670   -3.3959   20.6152 C   0  0  0  0  0  0  0  0  0  0  0  0
    8.2329   -4.4552   20.4998 O   0  0  0  0  0  0  0  0  0  0  0  0
   10.7870   -3.3675   20.6987 C   0  0  0  0  0  0  0  0  0  0  0  0
   11.7713   -4.5727   20.2060 C   0  0  0  0  0  0  0  0  0  0  0  0
   13.1618   -4.6237   19.9264 C   0  0  0  0  0  0  0  0  0  0  0  0
   13.8737   -3.8002   20.7337 C   0  0  0  0  0  0  0  0  0  0  0  0
   15.1966   -3.4701   20.7861 N   0  0  0  0  0  0  0  0  0  0  0  0
   15.4474   -2.8142   21.9612 C   0  0  0  0  0  0  0  0  0  0  0  0
   14.2620   -2.7420   22.6653 C   0  0  0  0  0  0  0  0  0  0  0  0
   13.2398   -3.3021   21.8520 C   0  0  0  0  0  0  0  0  0  0  0  0
   11.7722   -3.4017   21.9198 C   0  0  0  0  0  0  0  0  0  0  0  0
    5.5966   -1.2533   21.4705 C   0  0  0  0  0  0  0  0  0  0  0  0
    3.5357    1.5754   22.7917 C   0  0  0  0  0  0  0  0  0  0  0  0
    0.4978    2.8913   23.8646 H   0  0  0  0  0  0  0  0  0  0  0  0
    0.6431    4.6472   23.8466 H   0  0  0  0  0  0  0  0  0  0  0  0
   -0.1247    3.8147   22.4989 H   0  0  0  0  0  0  0  0  0  0  0  0
    1.8652    3.0292   21.5766 H   0  0  0  0  0  0  0  0  0  0  0  0
    1.5620    5.4357   21.3285 H   0  0  0  0  0  0  0  0  0  0  0  0
    2.5779    5.7497   22.7450 H   0  0  0  0  0  0  0  0  0  0  0  0
    3.2743    5.0142   21.2930 H   0  0  0  0  0  0  0  0  0  0  0  0
    2.5372    4.3211   24.8178 H   0  0  0  0  0  0  0  0  0  0  0  0
    4.1922    3.8964   24.8907 H   0  0  0  0  0  0  0  0  0  0  0  0
    1.9607    1.8369   25.4264 H   0  0  0  0  0  0  0  0  0  0  0  0
    2.7312    2.8429   26.6161 H   0  0  0  0  0  0  0  0  0  0  0  0
    4.8972   -0.1517   25.7445 H   0  0  0  0  0  0  0  0  0  0  0  0
    3.1703   -0.1349   25.1807 H   0  0  0  0  0  0  0  0  0  0  0  0
    5.1016   -1.6300   24.9819 H   0  0  0  0  0  0  0  0  0  0  0  0
    3.4196   -1.6493   24.4563 H   0  0  0  0  0  0  0  0  0  0  0  0
    3.6253   -2.8577   23.0376 H   0  0  0  0  0  0  0  0  0  0  0  0
    5.3852   -2.6517   23.8280 H   0  0  0  0  0  0  0  0  0  0  0  0
    5.3151   -2.7717   20.4340 H   0  0  0  0  0  0  0  0  0  0  0  0
    5.7822   -3.0531   21.5286 H   0  0  0  0  0  0  0  0  0  0  0  0
   11.2248   -5.3826   19.7357 H   0  0  0  0  0  0  0  0  0  0  0  0
   13.6078   -5.2740   19.1994 H   0  0  0  0  0  0  0  0  0  0  0  0
   15.8874   -3.7137   20.0904 H   0  0  0  0  0  0  0  0  0  0  0  0
   16.4416   -2.4660   22.2043 H   0  0  0  0  0  0  0  0  0  0  0  0
   14.1216   -2.2579   23.6224 H   0  0  0  0  0  0  0  0  0  0  0  0
   11.4634   -3.1024   22.9221 H   0  0  0  0  0  0  0  0  0  0  0  0
    5.9203   -1.5344   22.8402 H   0  0  0  0  0  0  0  0  0  0  0  0
    5.9387   -0.1449   20.9967 H   0  0  0  0  0  0  0  0  0  0  0  0
    3.1421    1.4593   21.7806 H   0  0  0  0  0  0  0  0  0  0  0  0
    2.7513    1.3832   23.5230 H   0  0  0  0  0  0  0  0  0  0  0  0
  1  2  1  0
  2  3  1  0
  2  4  1  0
  4  5  1  0
  5  6  1  0
  6  7  1  0
  7  8  1  0
  8  9  1  0
  9 10  1  0
 10 11  1  0
 11 12  1  0
 12 13  1  0
 13 14  1  0
 14 15  2  0
 14 16  1  0
 16 17  2  0
 17 18  1  0
 18 19  2  0
 19 20  1  0
 20 21  1  0
 21 22  2  0
 22 23  1  0
 23 24  2  0
 13 25  1  0
  9 26  1  0
 26  4  1  0
 25  9  1  0
 24 16  1  0
 23 19  1  0
  1 27  1  0
  1 28  1  0
  1 29  1  0
  2 30  1  0
  3 31  1  0
  3 32  1  0
  3 33  1  0
  5 34  1  0
  5 35  1  0
  6 36  1  0
  6 37  1  0
  8 38  1  0
  8 39  1  0
 10 40  1  0
 10 41  1  0
 11 42  1  0
 11 43  1  0
 12 44  1  0
 12 45  1  0
 17 46  1  0
 18 47  1  0
 20 48  1  0
 21 49  1  0
 22 50  1  0
 24 51  1  0
 25 52  1  0
 25 53  1  0
 26 54  1  0
 26 55  1  0
M  END
>  <Energy>  (1085) 
1880.4676768571214

>  <compound_id>  (1085) 
35781

>  <target_id>  (1085) 
1

>  <reference_id>  (1085) 
70

>  <inspiration_ids>  (1085) 
[97, 70]

>  <energy_score>  (1085) 
1737.7614979597854

>  <distance_score>  (1085) 
6.321651160750139

>  <path>  (1085) 
/opt/xchem-fragalysis-2/maxwin/BulkDock/SCRATCH/511013/C35781-P70/C35781-P70.minimised.mol

>  <scratch_subdir>  (1085) 
/opt/xchem-fragalysis-2/maxwin/BulkDock/SCRATCH/511013/C35781-P70

>  <fragmenstein_runtime>  (1085) 
15.1865873336792

>  <fragmenstein_outcome>  (1085) 
too moved

>  <fragmenstein_mode>  (1085) 
expansion

>  <fragmenstein_error>  (1085) 


$$$$
C35782-P97
     RDKit          3D

 55 58  0  0  0  0  0  0  0  0999 V2000
    0.1100    2.4489   24.4036 C   0  0  0  0  0  0  0  0  0  0  0  0
   -1.0058    1.5378   23.4544 C   0  0  0  0  0  0  0  0  0  0  0  0
   -1.4552    2.4845   22.3667 C   0  0  0  0  0  0  0  0  0  0  0  0
   -1.3565   -0.5015   23.5418 N   0  0  0  0  0  0  0  0  0  0  0  0
   -1.7732   -0.0629   25.4829 C   0  0  0  0  0  0  0  0  0  0  0  0
   -0.5656   -0.3460   26.7931 C   0  0  0  0  0  0  0  0  0  0  0  0
    0.8641    0.0369   26.6670 O   0  0  0  0  0  0  0  0  0  0  0  0
    1.9943   -0.8725   26.0195 C   0  0  0  0  0  0  0  0  0  0  0  0
    2.2700   -1.3381   24.1086 C   0  0  0  0  0  0  0  0  0  0  0  0
    3.0840   -2.3896   24.8116 C   0  0  0  0  0  0  0  0  0  0  0  0
    3.7062   -2.7875   23.5928 C   0  0  0  0  0  0  0  0  0  0  0  0
    5.3151   -2.2147   22.6061 C   0  0  0  0  0  0  0  0  0  0  0  0
    5.0182   -1.2096   21.7776 N   0  0  0  0  0  0  0  0  0  0  0  0
    6.2983   -0.2411   20.6259 C   0  0  0  0  0  0  0  0  0  0  0  0
    6.9223    0.7748   20.9624 O   0  0  0  0  0  0  0  0  0  0  0  0
    6.6567   -0.6419   18.6192 C   0  0  0  0  0  0  0  0  0  0  0  0
    6.0878   -0.9203   17.4166 C   0  0  0  0  0  0  0  0  0  0  0  0
    6.9326   -1.1747   15.8001 C   0  0  0  0  0  0  0  0  0  0  0  0
    8.1842   -0.7448   15.3346 C   0  0  0  0  0  0  0  0  0  0  0  0
    8.7828   -0.2311   14.1886 C   0  0  0  0  0  0  0  0  0  0  0  0
    9.9286    0.4769   14.4989 C   0  0  0  0  0  0  0  0  0  0  0  0
    9.8610    0.6450   15.8439 N   0  0  0  0  0  0  0  0  0  0  0  0
    8.8233   -0.1109   16.3083 C   0  0  0  0  0  0  0  0  0  0  0  0
    7.9134    0.0117   17.3727 C   0  0  0  0  0  0  0  0  0  0  0  0
    4.2898   -0.8083   23.6059 C   0  0  0  0  0  0  0  0  0  0  0  0
    0.3772   -1.6689   22.9571 C   0  0  0  0  0  0  0  0  0  0  0  0
    0.0338    2.1858   25.4639 H   0  0  0  0  0  0  0  0  0  0  0  0
   -0.1683    3.5101   24.3514 H   0  0  0  0  0  0  0  0  0  0  0  0
    1.1619    2.4071   24.1069 H   0  0  0  0  0  0  0  0  0  0  0  0
   -1.7041    1.9934   24.2145 H   0  0  0  0  0  0  0  0  0  0  0  0
   -0.7270    2.5640   21.5648 H   0  0  0  0  0  0  0  0  0  0  0  0
   -2.4736    2.2296   22.1093 H   0  0  0  0  0  0  0  0  0  0  0  0
   -1.5476    3.5146   22.7403 H   0  0  0  0  0  0  0  0  0  0  0  0
   -2.8047   -0.3656   25.7743 H   0  0  0  0  0  0  0  0  0  0  0  0
   -1.9387    1.0185   25.5896 H   0  0  0  0  0  0  0  0  0  0  0  0
   -0.6306   -1.3623   27.1968 H   0  0  0  0  0  0  0  0  0  0  0  0
   -0.9414    0.3068   27.5913 H   0  0  0  0  0  0  0  0  0  0  0  0
    1.9525   -1.7648   26.6602 H   0  0  0  0  0  0  0  0  0  0  0  0
    2.8934   -0.2848   26.2580 H   0  0  0  0  0  0  0  0  0  0  0  0
    2.6245   -3.2261   25.3445 H   0  0  0  0  0  0  0  0  0  0  0  0
    3.7905   -2.0482   25.5901 H   0  0  0  0  0  0  0  0  0  0  0  0
    2.9121   -3.0995   22.8999 H   0  0  0  0  0  0  0  0  0  0  0  0
    4.1207   -3.4940   24.3546 H   0  0  0  0  0  0  0  0  0  0  0  0
    5.6949   -2.8487   21.8306 H   0  0  0  0  0  0  0  0  0  0  0  0
    5.9850   -2.1695   23.4365 H   0  0  0  0  0  0  0  0  0  0  0  0
    5.0391   -1.2785   17.5228 H   0  0  0  0  0  0  0  0  0  0  0  0
    6.4097   -1.7158   14.9876 H   0  0  0  0  0  0  0  0  0  0  0  0
    8.3164   -0.2325   13.2176 H   0  0  0  0  0  0  0  0  0  0  0  0
   10.6249    1.0228   13.8783 H   0  0  0  0  0  0  0  0  0  0  0  0
   10.3730    1.3420   16.3675 H   0  0  0  0  0  0  0  0  0  0  0  0
    7.8676    1.1730   17.3199 H   0  0  0  0  0  0  0  0  0  0  0  0
    4.8535   -1.2861   24.4421 H   0  0  0  0  0  0  0  0  0  0  0  0
    4.3317    0.2194   23.9908 H   0  0  0  0  0  0  0  0  0  0  0  0
    0.1030   -2.0284   21.9682 H   0  0  0  0  0  0  0  0  0  0  0  0
    0.0511   -2.7376   23.0065 H   0  0  0  0  0  0  0  0  0  0  0  0
  1  2  1  0
  2  3  1  0
  2  4  1  0
  4  5  1  0
  5  6  1  0
  6  7  1  0
  7  8  1  0
  8  9  1  0
  9 10  1  0
 10 11  1  0
 11 12  1  0
 12 13  1  0
 13 14  1  0
 14 15  2  0
 14 16  1  0
 16 17  2  0
 17 18  1  0
 18 19  2  0
 19 20  1  0
 20 21  2  0
 21 22  1  0
 22 23  1  0
 23 24  2  0
 13 25  1  0
  9 26  1  0
 26  4  1  0
 25  9  1  0
 24 16  1  0
 23 19  1  0
  1 27  1  0
  1 28  1  0
  1 29  1  0
  2 30  1  0
  3 31  1  0
  3 32  1  0
  3 33  1  0
  5 34  1  0
  5 35  1  0
  6 36  1  0
  6 37  1  0
  8 38  1  0
  8 39  1  0
 10 40  1  0
 10 41  1  0
 11 42  1  0
 11 43  1  0
 12 44  1  0
 12 45  1  0
 17 46  1  0
 18 47  1  0
 20 48  1  0
 21 49  1  0
 22 50  1  0
 24 51  1  0
 25 52  1  0
 25 53  1  0
 26 54  1  0
 26 55  1  0
M  END
>  <Energy>  (1086) 
1715.1593119032673

>  <compound_id>  (1086) 
35782

>  <target_id>  (1086) 
1

>  <reference_id>  (1086) 
97

>  <inspiration_ids>  (1086) 
[97, 70]

>  <energy_score>  (1086) 
1560.8697316208827

>  <distance_score>  (1086) 
5.2714070741726795

>  <path>  (1086) 
/opt/xchem-fragalysis-2/maxwin/BulkDock/SCRATCH/511013/C35782-P97/C35782-P97.minimised.mol

>  <scratch_subdir>  (1086) 
/opt/xchem-fragalysis-2/maxwin/BulkDock/SCRATCH/511013/C35782-P97

>  <fragmenstein_runtime>  (1086) 
14.463895797729492

>  <fragmenstein_outcome>  (1086) 
too moved

>  <fragmenstein_mode>  (1086) 
expansion

>  <fragmenstein_error>  (1086) 


$$$$
C35782-P70
     RDKit          3D

 55 58  0  0  0  0  0  0  0  0999 V2000
   -0.4929    3.1969   25.6624 C   0  0  0  0  0  0  0  0  0  0  0  0
    0.8559    3.0878   24.9256 C   0  0  0  0  0  0  0  0  0  0  0  0
    1.5107    4.4703   24.8573 C   0  0  0  0  0  0  0  0  0  0  0  0
    1.7156    1.9766   25.4506 N   0  0  0  0  0  0  0  0  0  0  0  0
    2.0118    2.1313   26.8822 C   0  0  0  0  0  0  0  0  0  0  0  0
    3.0262    1.1285   27.4027 C   0  0  0  0  0  0  0  0  0  0  0  0
    4.2854    1.4954   26.8518 O   0  0  0  0  0  0  0  0  0  0  0  0
    4.8944    0.4554   26.0814 C   0  0  0  0  0  0  0  0  0  0  0  0
    4.1575    0.2258   24.4757 C   0  0  0  0  0  0  0  0  0  0  0  0
    3.6794   -1.2146   24.8766 C   0  0  0  0  0  0  0  0  0  0  0  0
    3.9513   -2.1534   23.7446 C   0  0  0  0  0  0  0  0  0  0  0  0
    5.1979   -1.6102   22.8653 C   0  0  0  0  0  0  0  0  0  0  0  0
    5.5673   -0.6315   21.3035 N   0  0  0  0  0  0  0  0  0  0  0  0
    7.2440   -0.2583   20.4428 C   0  0  0  0  0  0  0  0  0  0  0  0
    7.6873    0.7472   20.8492 O   0  0  0  0  0  0  0  0  0  0  0  0
    8.5240   -1.0479   19.2985 C   0  0  0  0  0  0  0  0  0  0  0  0
   10.0270   -2.4616   19.8500 C   0  0  0  0  0  0  0  0  0  0  0  0
   11.6237   -2.5156   18.4814 C   0  0  0  0  0  0  0  0  0  0  0  0
   11.3620   -1.4621   16.9741 C   0  0  0  0  0  0  0  0  0  0  0  0
   12.1884   -1.2750   15.8349 C   0  0  0  0  0  0  0  0  0  0  0  0
   11.6007   -0.3743   14.9694 C   0  0  0  0  0  0  0  0  0  0  0  0
   10.3949    0.1409   15.3982 N   0  0  0  0  0  0  0  0  0  0  0  0
   10.0050   -0.3488   16.6291 C   0  0  0  0  0  0  0  0  0  0  0  0
    8.5195    0.0310   17.6930 C   0  0  0  0  0  0  0  0  0  0  0  0
    4.6494    0.3040   22.4157 C   0  0  0  0  0  0  0  0  0  0  0  0
    2.9098    1.6661   24.5751 C   0  0  0  0  0  0  0  0  0  0  0  0
   -0.9850    2.2229   25.7412 H   0  0  0  0  0  0  0  0  0  0  0  0
   -1.1721    3.8622   25.1174 H   0  0  0  0  0  0  0  0  0  0  0  0
   -0.3740    3.6043   26.6719 H   0  0  0  0  0  0  0  0  0  0  0  0
    0.5846    2.8418   23.8956 H   0  0  0  0  0  0  0  0  0  0  0  0
    2.4121    4.4621   24.2369 H   0  0  0  0  0  0  0  0  0  0  0  0
    0.8232    5.1954   24.4064 H   0  0  0  0  0  0  0  0  0  0  0  0
    1.7779    4.8510   25.8475 H   0  0  0  0  0  0  0  0  0  0  0  0
    1.0898    1.9973   27.4579 H   0  0  0  0  0  0  0  0  0  0  0  0
    2.3967    3.1366   27.0863 H   0  0  0  0  0  0  0  0  0  0  0  0
    2.7350    0.0964   27.1838 H   0  0  0  0  0  0  0  0  0  0  0  0
    3.1073    1.2235   28.4907 H   0  0  0  0  0  0  0  0  0  0  0  0
    4.9165   -0.4293   26.7251 H   0  0  0  0  0  0  0  0  0  0  0  0
    5.9346    0.7590   26.0994 H   0  0  0  0  0  0  0  0  0  0  0  0
    4.2622   -1.6709   25.6825 H   0  0  0  0  0  0  0  0  0  0  0  0
    2.6873   -1.2354   25.2918 H   0  0  0  0  0  0  0  0  0  0  0  0
    4.2312   -3.0275   24.3376 H   0  0  0  0  0  0  0  0  0  0  0  0
    3.0807   -2.5212   23.2148 H   0  0  0  0  0  0  0  0  0  0  0  0
    5.4327   -2.4789   22.3030 H   0  0  0  0  0  0  0  0  0  0  0  0
    5.8024   -1.5221   23.7268 H   0  0  0  0  0  0  0  0  0  0  0  0
   10.6254   -3.1449   20.6899 H   0  0  0  0  0  0  0  0  0  0  0  0
   12.5379   -3.1102   18.6104 H   0  0  0  0  0  0  0  0  0  0  0  0
   13.1321   -1.7725   15.6538 H   0  0  0  0  0  0  0  0  0  0  0  0
   11.9602   -0.0474   14.0021 H   0  0  0  0  0  0  0  0  0  0  0  0
    9.8267    0.7673   14.8447 H   0  0  0  0  0  0  0  0  0  0  0  0
    8.0596    0.9715   17.4610 H   0  0  0  0  0  0  0  0  0  0  0  0
    5.4459    0.9877   22.3103 H   0  0  0  0  0  0  0  0  0  0  0  0
    3.9243    0.9440   21.8651 H   0  0  0  0  0  0  0  0  0  0  0  0
    3.4599    2.5941   24.7753 H   0  0  0  0  0  0  0  0  0  0  0  0
    2.6521    1.8624   23.5329 H   0  0  0  0  0  0  0  0  0  0  0  0
  1  2  1  0
  2  3  1  0
  2  4  1  0
  4  5  1  0
  5  6  1  0
  6  7  1  0
  7  8  1  0
  8  9  1  0
  9 10  1  0
 10 11  1  0
 11 12  1  0
 12 13  1  0
 13 14  1  0
 14 15  2  0
 14 16  1  0
 16 17  2  0
 17 18  1  0
 18 19  2  0
 19 20  1  0
 20 21  2  0
 21 22  1  0
 22 23  1  0
 23 24  2  0
 13 25  1  0
  9 26  1  0
 26  4  1  0
 25  9  1  0
 24 16  1  0
 23 19  1  0
  1 27  1  0
  1 28  1  0
  1 29  1  0
  2 30  1  0
  3 31  1  0
  3 32  1  0
  3 33  1  0
  5 34  1  0
  5 35  1  0
  6 36  1  0
  6 37  1  0
  8 38  1  0
  8 39  1  0
 10 40  1  0
 10 41  1  0
 11 42  1  0
 11 43  1  0
 12 44  1  0
 12 45  1  0
 17 46  1  0
 18 47  1  0
 20 48  1  0
 21 49  1  0
 22 50  1  0
 24 51  1  0
 25 52  1  0
 25 53  1  0
 26 54  1  0
 26 55  1  0
M  END
>  <Energy>  (1087) 
1303.5858750761822

>  <compound_id>  (1087) 
35782

>  <target_id>  (1087) 
1

>  <reference_id>  (1087) 
70

>  <inspiration_ids>  (1087) 
[97, 70]

>  <energy_score>  (1087) 
1149.2962947937863

>  <distance_score>  (1087) 
4.531876636917117

>  <path>  (1087) 
/opt/xchem-fragalysis-2/maxwin/BulkDock/SCRATCH/511013/C35782-P70/C35782-P70.minimised.mol

>  <scratch_subdir>  (1087) 
/opt/xchem-fragalysis-2/maxwin/BulkDock/SCRATCH/511013/C35782-P70

>  <fragmenstein_runtime>  (1087) 
12.292173862457275

>  <fragmenstein_outcome>  (1087) 
too moved

>  <fragmenstein_mode>  (1087) 
expansion

>  <fragmenstein_error>  (1087) 


$$$$
C4735-P97
     RDKit          3D

 41 43  0  0  0  0  0  0  0  0999 V2000
   10.4056   -1.5185   15.2509 C   0  0  0  0  0  0  0  0  0  0  0  0
   10.5364   -0.0291   15.2771 C   0  0  0  0  0  0  0  0  0  0  0  0
   11.7403    0.5075   14.7796 C   0  0  0  0  0  0  0  0  0  0  0  0
   11.9899    1.8711   14.7809 C   0  0  0  0  0  0  0  0  0  0  0  0
   11.0417    2.7557   15.2919 C   0  0  0  0  0  0  0  0  0  0  0  0
    9.8352    2.2624   15.8255 C   0  0  0  0  0  0  0  0  0  0  0  0
    8.7400    2.8884   16.4910 C   0  0  0  0  0  0  0  0  0  0  0  0
    7.9608    1.8892   17.0732 C   0  0  0  0  0  0  0  0  0  0  0  0
    6.9657    2.1197   18.5148 C   0  0  0  0  0  0  0  0  0  0  0  0
    6.8900    3.3230   18.7864 O   0  0  0  0  0  0  0  0  0  0  0  0
    6.1755    0.5620   19.4006 N   0  0  0  0  0  0  0  0  0  0  0  0
    4.8007    0.5270   21.0499 C   0  0  0  0  0  0  0  0  0  0  0  0
    2.9604    1.4826   21.4149 C   0  0  0  0  0  0  0  0  0  0  0  0
    2.4000    2.7801   22.5159 C   0  0  0  0  0  0  0  0  0  0  0  0
    2.8457    4.2661   22.4059 C   0  0  0  0  0  0  0  0  0  0  0  0
    1.8348    5.0291   23.2566 C   0  0  0  0  0  0  0  0  0  0  0  0
    0.5673    4.2244   23.1221 C   0  0  0  0  0  0  0  0  0  0  0  0
    0.9315    3.1139   22.2473 N   0  0  0  0  0  0  0  0  0  0  0  0
    8.3578    0.7216   16.4219 N   0  0  0  0  0  0  0  0  0  0  0  0
    9.5973    0.8859   15.8159 C   0  0  0  0  0  0  0  0  0  0  0  0
   10.8903   -1.9509   16.1240 H   0  0  0  0  0  0  0  0  0  0  0  0
   10.9272   -1.9507   14.3923 H   0  0  0  0  0  0  0  0  0  0  0  0
    9.3540   -1.8062   15.2070 H   0  0  0  0  0  0  0  0  0  0  0  0
   12.5007   -0.1583   14.3726 H   0  0  0  0  0  0  0  0  0  0  0  0
   12.9266    2.2545   14.3849 H   0  0  0  0  0  0  0  0  0  0  0  0
   11.2450    3.8230   15.3085 H   0  0  0  0  0  0  0  0  0  0  0  0
    8.6686    3.9363   16.7572 H   0  0  0  0  0  0  0  0  0  0  0  0
    6.3558   -0.3113   18.8786 H   0  0  0  0  0  0  0  0  0  0  0  0
    4.6235   -0.4627   21.5591 H   0  0  0  0  0  0  0  0  0  0  0  0
    5.4060    1.1795   21.6718 H   0  0  0  0  0  0  0  0  0  0  0  0
    2.6190    2.0863   20.5240 H   0  0  0  0  0  0  0  0  0  0  0  0
    2.0687    0.9720   21.2451 H   0  0  0  0  0  0  0  0  0  0  0  0
    2.4454    2.3998   23.5425 H   0  0  0  0  0  0  0  0  0  0  0  0
    3.8444    4.5289   22.7517 H   0  0  0  0  0  0  0  0  0  0  0  0
    2.7762    4.6158   21.3652 H   0  0  0  0  0  0  0  0  0  0  0  0
    1.7176    6.0578   22.9018 H   0  0  0  0  0  0  0  0  0  0  0  0
    2.1611    5.0588   24.3025 H   0  0  0  0  0  0  0  0  0  0  0  0
   -0.2505    4.8092   22.6900 H   0  0  0  0  0  0  0  0  0  0  0  0
    0.2341    3.8487   24.0954 H   0  0  0  0  0  0  0  0  0  0  0  0
    0.8648    3.3954   21.2655 H   0  0  0  0  0  0  0  0  0  0  0  0
    7.8895   -0.1569   16.5431 H   0  0  0  0  0  0  0  0  0  0  0  0
  1  2  1  0
  2  3  2  0
  3  4  1  0
  4  5  2  0
  5  6  1  0
  6  7  1  0
  7  8  2  0
  8  9  1  0
  9 10  2  0
  9 11  1  0
 11 12  1  0
 12 13  1  0
 13 14  1  0
 14 15  1  0
 15 16  1  0
 16 17  1  0
 17 18  1  0
  8 19  1  0
 19 20  1  0
 20  2  1  0
 20  6  2  0
 18 14  1  0
  1 21  1  0
  1 22  1  0
  1 23  1  0
  3 24  1  0
  4 25  1  0
  5 26  1  0
  7 27  1  0
 11 28  1  0
 12 29  1  0
 12 30  1  0
 13 31  1  0
 13 32  1  0
 14 33  1  0
 15 34  1  0
 15 35  1  0
 16 36  1  0
 16 37  1  0
 17 38  1  0
 17 39  1  0
 18 40  1  0
 19 41  1  0
M  END
>  <Energy>  (1088) 
419.92175011397796

>  <compound_id>  (1088) 
4735

>  <target_id>  (1088) 
1

>  <reference_id>  (1088) 
97

>  <inspiration_ids>  (1088) 
[97, 70]

>  <energy_score>  (1088) 
413.0095007227365

>  <distance_score>  (1088) 
5.971958332788968

>  <path>  (1088) 
/opt/xchem-fragalysis-2/maxwin/BulkDock/SCRATCH/511013/C4735-P97/C4735-P97.minimised.mol

>  <scratch_subdir>  (1088) 
/opt/xchem-fragalysis-2/maxwin/BulkDock/SCRATCH/511013/C4735-P97

>  <fragmenstein_runtime>  (1088) 
5.852375507354736

>  <fragmenstein_outcome>  (1088) 
too moved

>  <fragmenstein_mode>  (1088) 
expansion

>  <fragmenstein_error>  (1088) 


$$$$
C4735-P70
     RDKit          3D

 41 43  0  0  0  0  0  0  0  0999 V2000
   10.8532   -2.1908   14.8405 C   0  0  0  0  0  0  0  0  0  0  0  0
   10.7516   -0.7241   15.1317 C   0  0  0  0  0  0  0  0  0  0  0  0
   11.8263    0.1151   14.7905 C   0  0  0  0  0  0  0  0  0  0  0  0
   11.8215    1.4765   15.0927 C   0  0  0  0  0  0  0  0  0  0  0  0
   10.7681    2.0481   15.8146 C   0  0  0  0  0  0  0  0  0  0  0  0
    9.7265    1.2132   16.2499 C   0  0  0  0  0  0  0  0  0  0  0  0
    8.6353    1.3382   17.1662 C   0  0  0  0  0  0  0  0  0  0  0  0
    8.1688    0.0314   17.5728 C   0  0  0  0  0  0  0  0  0  0  0  0
    6.7901   -0.3580   18.5880 C   0  0  0  0  0  0  0  0  0  0  0  0
    5.9200   -0.9199   17.9040 O   0  0  0  0  0  0  0  0  0  0  0  0
    6.7320    0.1557   20.1138 N   0  0  0  0  0  0  0  0  0  0  0  0
    5.1701    0.2576   21.4272 C   0  0  0  0  0  0  0  0  0  0  0  0
    3.5265    1.4000   21.8397 C   0  0  0  0  0  0  0  0  0  0  0  0
    2.6248    2.9061   21.8554 C   0  0  0  0  0  0  0  0  0  0  0  0
    2.7174    3.7143   23.1599 C   0  0  0  0  0  0  0  0  0  0  0  0
    1.7722    4.8651   22.8871 C   0  0  0  0  0  0  0  0  0  0  0  0
    1.9454    5.1191   21.3955 C   0  0  0  0  0  0  0  0  0  0  0  0
    2.5773    3.9300   20.7983 N   0  0  0  0  0  0  0  0  0  0  0  0
    8.4346   -0.5037   16.2239 N   0  0  0  0  0  0  0  0  0  0  0  0
    9.6999   -0.1033   15.8294 C   0  0  0  0  0  0  0  0  0  0  0  0
   11.3403   -2.7026   15.6762 H   0  0  0  0  0  0  0  0  0  0  0  0
   11.4411   -2.3785   13.9359 H   0  0  0  0  0  0  0  0  0  0  0  0
    9.8647   -2.6240   14.6897 H   0  0  0  0  0  0  0  0  0  0  0  0
   12.6836   -0.2996   14.2624 H   0  0  0  0  0  0  0  0  0  0  0  0
   12.6644    2.0963   14.7969 H   0  0  0  0  0  0  0  0  0  0  0  0
   10.8101    3.0899   16.1180 H   0  0  0  0  0  0  0  0  0  0  0  0
    8.2899    2.2637   17.6064 H   0  0  0  0  0  0  0  0  0  0  0  0
    7.6259    0.4886   20.3834 H   0  0  0  0  0  0  0  0  0  0  0  0
    5.7111    0.9713   22.0439 H   0  0  0  0  0  0  0  0  0  0  0  0
    4.9028   -0.7349   21.8721 H   0  0  0  0  0  0  0  0  0  0  0  0
    2.6543    0.9848   21.4424 H   0  0  0  0  0  0  0  0  0  0  0  0
    3.5672    1.4896   22.9218 H   0  0  0  0  0  0  0  0  0  0  0  0
    1.5865    2.5660   21.8295 H   0  0  0  0  0  0  0  0  0  0  0  0
    2.4085    3.1434   24.0405 H   0  0  0  0  0  0  0  0  0  0  0  0
    3.7246    4.1100   23.3206 H   0  0  0  0  0  0  0  0  0  0  0  0
    2.0041    5.7455   23.4934 H   0  0  0  0  0  0  0  0  0  0  0  0
    0.7402    4.5613   23.1001 H   0  0  0  0  0  0  0  0  0  0  0  0
    2.5844    5.9927   21.2254 H   0  0  0  0  0  0  0  0  0  0  0  0
    0.9800    5.3182   20.9191 H   0  0  0  0  0  0  0  0  0  0  0  0
    3.5596    4.1293   20.5901 H   0  0  0  0  0  0  0  0  0  0  0  0
    7.9326   -1.2800   15.8175 H   0  0  0  0  0  0  0  0  0  0  0  0
  1  2  1  0
  2  3  2  0
  3  4  1  0
  4  5  2  0
  5  6  1  0
  6  7  1  0
  7  8  2  0
  8  9  1  0
  9 10  2  0
  9 11  1  0
 11 12  1  0
 12 13  1  0
 13 14  1  0
 14 15  1  0
 15 16  1  0
 16 17  1  0
 17 18  1  0
  8 19  1  0
 19 20  1  0
 20  2  1  0
 20  6  2  0
 18 14  1  0
  1 21  1  0
  1 22  1  0
  1 23  1  0
  3 24  1  0
  4 25  1  0
  5 26  1  0
  7 27  1  0
 11 28  1  0
 12 29  1  0
 12 30  1  0
 13 31  1  0
 13 32  1  0
 14 33  1  0
 15 34  1  0
 15 35  1  0
 16 36  1  0
 16 37  1  0
 17 38  1  0
 17 39  1  0
 18 40  1  0
 19 41  1  0
M  END
>  <Energy>  (1089) 
323.00412547092753

>  <compound_id>  (1089) 
4735

>  <target_id>  (1089) 
1

>  <reference_id>  (1089) 
70

>  <inspiration_ids>  (1089) 
[97, 70]

>  <energy_score>  (1089) 
316.09187607967

>  <distance_score>  (1089) 
6.328323150864593

>  <path>  (1089) 
/opt/xchem-fragalysis-2/maxwin/BulkDock/SCRATCH/511013/C4735-P70/C4735-P70.minimised.mol

>  <scratch_subdir>  (1089) 
/opt/xchem-fragalysis-2/maxwin/BulkDock/SCRATCH/511013/C4735-P70

>  <fragmenstein_runtime>  (1089) 
7.182399749755859

>  <fragmenstein_outcome>  (1089) 
too moved

>  <fragmenstein_mode>  (1089) 
expansion

>  <fragmenstein_error>  (1089) 


$$$$
C4736-P97
     RDKit          3D

 47 49  0  0  0  0  0  0  0  0999 V2000
   12.9689    0.0593   14.0831 C   0  0  0  0  0  0  0  0  0  0  0  0
   11.5188   -0.0443   14.5733 C   0  0  0  0  0  0  0  0  0  0  0  0
   11.3381   -1.3567   15.3345 C   0  0  0  0  0  0  0  0  0  0  0  0
   11.0037    1.1504   15.3693 C   0  0  0  0  0  0  0  0  0  0  0  0
   11.8565    2.1513   15.8459 C   0  0  0  0  0  0  0  0  0  0  0  0
   11.3536    3.3202   16.4390 C   0  0  0  0  0  0  0  0  0  0  0  0
    9.9626    3.5122   16.5553 C   0  0  0  0  0  0  0  0  0  0  0  0
    9.1339    4.5701   17.0505 C   0  0  0  0  0  0  0  0  0  0  0  0
    7.7985    4.1895   16.9623 C   0  0  0  0  0  0  0  0  0  0  0  0
    6.5607    4.9158   17.3420 C   0  0  0  0  0  0  0  0  0  0  0  0
    5.8519    5.3092   16.4649 O   0  0  0  0  0  0  0  0  0  0  0  0
    6.4571    5.0634   18.7680 N   0  0  0  0  0  0  0  0  0  0  0  0
    5.5000    5.8275   19.5985 C   0  0  0  0  0  0  0  0  0  0  0  0
    3.9915    5.4295   19.5670 C   0  0  0  0  0  0  0  0  0  0  0  0
    3.2945    5.4107   20.9573 C   0  0  0  0  0  0  0  0  0  0  0  0
    2.9969    6.7653   21.5855 C   0  0  0  0  0  0  0  0  0  0  0  0
    1.9541    6.4433   22.6564 C   0  0  0  0  0  0  0  0  0  0  0  0
    1.3381    5.1206   22.2231 C   0  0  0  0  0  0  0  0  0  0  0  0
    1.9410    4.8128   20.9229 N   0  0  0  0  0  0  0  0  0  0  0  0
    7.8215    2.9269   16.3861 N   0  0  0  0  0  0  0  0  0  0  0  0
    9.1169    2.4918   16.1339 C   0  0  0  0  0  0  0  0  0  0  0  0
    9.6117    1.2951   15.5705 C   0  0  0  0  0  0  0  0  0  0  0  0
   13.1273    0.9759   13.5044 H   0  0  0  0  0  0  0  0  0  0  0  0
   13.6809    0.0496   14.9157 H   0  0  0  0  0  0  0  0  0  0  0  0
   13.2146   -0.7865   13.4308 H   0  0  0  0  0  0  0  0  0  0  0  0
   10.9070   -0.0791   13.6649 H   0  0  0  0  0  0  0  0  0  0  0  0
   11.6579   -2.2097   14.7256 H   0  0  0  0  0  0  0  0  0  0  0  0
   11.9300   -1.3618   16.2554 H   0  0  0  0  0  0  0  0  0  0  0  0
   10.2897   -1.5215   15.5988 H   0  0  0  0  0  0  0  0  0  0  0  0
   12.9355    2.0718   15.7405 H   0  0  0  0  0  0  0  0  0  0  0  0
   12.0371    4.0932   16.7797 H   0  0  0  0  0  0  0  0  0  0  0  0
    9.4789    5.5132   17.4531 H   0  0  0  0  0  0  0  0  0  0  0  0
    7.2879    4.6677   19.2034 H   0  0  0  0  0  0  0  0  0  0  0  0
    5.8826    5.7485   20.6217 H   0  0  0  0  0  0  0  0  0  0  0  0
    5.5934    6.8748   19.2904 H   0  0  0  0  0  0  0  0  0  0  0  0
    3.4643    6.1280   18.9040 H   0  0  0  0  0  0  0  0  0  0  0  0
    3.8873    4.4512   19.0926 H   0  0  0  0  0  0  0  0  0  0  0  0
    3.9170    4.8481   21.6604 H   0  0  0  0  0  0  0  0  0  0  0  0
    2.5728    7.4579   20.8478 H   0  0  0  0  0  0  0  0  0  0  0  0
    3.8884    7.2327   22.0151 H   0  0  0  0  0  0  0  0  0  0  0  0
    2.4320    6.3370   23.6367 H   0  0  0  0  0  0  0  0  0  0  0  0
    1.2092    7.2425   22.7247 H   0  0  0  0  0  0  0  0  0  0  0  0
    0.2480    5.1810   22.1470 H   0  0  0  0  0  0  0  0  0  0  0  0
    1.5796    4.3291   22.9414 H   0  0  0  0  0  0  0  0  0  0  0  0
    1.4009    5.2595   20.1820 H   0  0  0  0  0  0  0  0  0  0  0  0
    6.9845    2.3710   16.2525 H   0  0  0  0  0  0  0  0  0  0  0  0
    8.9252    0.5245   15.2336 H   0  0  0  0  0  0  0  0  0  0  0  0
  1  2  1  0
  2  3  1  0
  2  4  1  0
  4  5  2  0
  5  6  1  0
  6  7  2  0
  7  8  1  0
  8  9  2  0
  9 10  1  0
 10 11  2  0
 10 12  1  0
 12 13  1  0
 13 14  1  0
 14 15  1  0
 15 16  1  0
 16 17  1  0
 17 18  1  0
 18 19  1  0
  9 20  1  0
 20 21  1  0
 21 22  2  0
 22  4  1  0
 21  7  1  0
 19 15  1  0
  1 23  1  0
  1 24  1  0
  1 25  1  0
  2 26  1  0
  3 27  1  0
  3 28  1  0
  3 29  1  0
  5 30  1  0
  6 31  1  0
  8 32  1  0
 12 33  1  0
 13 34  1  0
 13 35  1  0
 14 36  1  0
 14 37  1  0
 15 38  1  0
 16 39  1  0
 16 40  1  0
 17 41  1  0
 17 42  1  0
 18 43  1  0
 18 44  1  0
 19 45  1  0
 20 46  1  0
 22 47  1  0
M  END
>  <Energy>  (1090) 
7.6576358278416503

>  <compound_id>  (1090) 
4736

>  <target_id>  (1090) 
1

>  <reference_id>  (1090) 
97

>  <inspiration_ids>  (1090) 
[97, 70]

>  <energy_score>  (1090) 
-12.365392757001473

>  <distance_score>  (1090) 
7.101785330229391

>  <path>  (1090) 
/opt/xchem-fragalysis-2/maxwin/BulkDock/SCRATCH/511013/C4736-P97/C4736-P97.minimised.mol

>  <scratch_subdir>  (1090) 
/opt/xchem-fragalysis-2/maxwin/BulkDock/SCRATCH/511013/C4736-P97

>  <fragmenstein_runtime>  (1090) 
14.135462760925293

>  <fragmenstein_outcome>  (1090) 
too moved

>  <fragmenstein_mode>  (1090) 
expansion

>  <fragmenstein_error>  (1090) 


$$$$
C4736-P70
     RDKit          3D

 47 49  0  0  0  0  0  0  0  0999 V2000
   13.6805    0.1669   13.0559 C   0  0  0  0  0  0  0  0  0  0  0  0
   12.8842   -0.7344   14.0060 C   0  0  0  0  0  0  0  0  0  0  0  0
   13.8253   -1.3768   15.0292 C   0  0  0  0  0  0  0  0  0  0  0  0
   11.7462   -0.0301   14.7305 C   0  0  0  0  0  0  0  0  0  0  0  0
   11.8385    1.3135   15.1275 C   0  0  0  0  0  0  0  0  0  0  0  0
   10.8204    1.9409   15.8631 C   0  0  0  0  0  0  0  0  0  0  0  0
    9.7275    1.1661   16.2771 C   0  0  0  0  0  0  0  0  0  0  0  0
    8.6428    1.3210   17.1925 C   0  0  0  0  0  0  0  0  0  0  0  0
    8.1546    0.0181   17.6025 C   0  0  0  0  0  0  0  0  0  0  0  0
    6.7769   -0.3640   18.6045 C   0  0  0  0  0  0  0  0  0  0  0  0
    5.9037   -0.9124   17.9117 O   0  0  0  0  0  0  0  0  0  0  0  0
    6.7052    0.1436   20.1579 N   0  0  0  0  0  0  0  0  0  0  0  0
    5.1174    0.2502   21.4618 C   0  0  0  0  0  0  0  0  0  0  0  0
    3.4534    1.4399   21.7671 C   0  0  0  0  0  0  0  0  0  0  0  0
    2.9192    2.5927   22.9925 C   0  0  0  0  0  0  0  0  0  0  0  0
    3.4514    4.0471   23.1724 C   0  0  0  0  0  0  0  0  0  0  0  0
    2.3902    4.7465   24.0215 C   0  0  0  0  0  0  0  0  0  0  0  0
    1.1088    4.0532   23.6445 C   0  0  0  0  0  0  0  0  0  0  0  0
    1.5158    3.0759   22.6417 N   0  0  0  0  0  0  0  0  0  0  0  0
    8.3487   -0.4840   16.2263 N   0  0  0  0  0  0  0  0  0  0  0  0
    9.6088   -0.1224   15.8046 C   0  0  0  0  0  0  0  0  0  0  0  0
   10.5848   -0.7618   15.0411 C   0  0  0  0  0  0  0  0  0  0  0  0
   14.2981    0.8911   13.5982 H   0  0  0  0  0  0  0  0  0  0  0  0
   14.3551   -0.4356   12.4375 H   0  0  0  0  0  0  0  0  0  0  0  0
   13.0186    0.7253   12.3860 H   0  0  0  0  0  0  0  0  0  0  0  0
   12.4496   -1.5329   13.3895 H   0  0  0  0  0  0  0  0  0  0  0  0
   14.6469   -1.8998   14.5287 H   0  0  0  0  0  0  0  0  0  0  0  0
   14.2634   -0.6269   15.6978 H   0  0  0  0  0  0  0  0  0  0  0  0
   13.2939   -2.1052   15.6522 H   0  0  0  0  0  0  0  0  0  0  0  0
   12.7281    1.8975   14.9027 H   0  0  0  0  0  0  0  0  0  0  0  0
   10.9456    2.9612   16.2151 H   0  0  0  0  0  0  0  0  0  0  0  0
    8.3226    2.2512   17.6411 H   0  0  0  0  0  0  0  0  0  0  0  0
    7.6015    0.4677   20.4410 H   0  0  0  0  0  0  0  0  0  0  0  0
    5.6405    0.9572   22.0819 H   0  0  0  0  0  0  0  0  0  0  0  0
    4.8668   -0.7359   21.9192 H   0  0  0  0  0  0  0  0  0  0  0  0
    2.5250    0.9965   21.5442 H   0  0  0  0  0  0  0  0  0  0  0  0
    3.1135    2.0679   20.9062 H   0  0  0  0  0  0  0  0  0  0  0  0
    2.8434    2.0633   23.9495 H   0  0  0  0  0  0  0  0  0  0  0  0
    3.5284    4.5635   22.2055 H   0  0  0  0  0  0  0  0  0  0  0  0
    4.4036    4.1916   23.6829 H   0  0  0  0  0  0  0  0  0  0  0  0
    2.6017    4.6085   25.0880 H   0  0  0  0  0  0  0  0  0  0  0  0
    2.3639    5.8203   23.8111 H   0  0  0  0  0  0  0  0  0  0  0  0
    0.3653    4.7458   23.2385 H   0  0  0  0  0  0  0  0  0  0  0  0
    0.6630    3.5496   24.5089 H   0  0  0  0  0  0  0  0  0  0  0  0
    1.5604    3.5094   21.7154 H   0  0  0  0  0  0  0  0  0  0  0  0
    7.7945   -1.2255   15.8202 H   0  0  0  0  0  0  0  0  0  0  0  0
   10.4642   -1.7915   14.7182 H   0  0  0  0  0  0  0  0  0  0  0  0
  1  2  1  0
  2  3  1  0
  2  4  1  0
  4  5  2  0
  5  6  1  0
  6  7  2  0
  7  8  1  0
  8  9  2  0
  9 10  1  0
 10 11  2  0
 10 12  1  0
 12 13  1  0
 13 14  1  0
 14 15  1  0
 15 16  1  0
 16 17  1  0
 17 18  1  0
 18 19  1  0
  9 20  1  0
 20 21  1  0
 21 22  2  0
 22  4  1  0
 21  7  1  0
 19 15  1  0
  1 23  1  0
  1 24  1  0
  1 25  1  0
  2 26  1  0
  3 27  1  0
  3 28  1  0
  3 29  1  0
  5 30  1  0
  6 31  1  0
  8 32  1  0
 12 33  1  0
 13 34  1  0
 13 35  1  0
 14 36  1  0
 14 37  1  0
 15 38  1  0
 16 39  1  0
 16 40  1  0
 17 41  1  0
 17 42  1  0
 18 43  1  0
 18 44  1  0
 19 45  1  0
 20 46  1  0
 22 47  1  0
M  END
>  <Energy>  (1091) 
324.32692566159244

>  <compound_id>  (1091) 
4736

>  <target_id>  (1091) 
1

>  <reference_id>  (1091) 
70

>  <inspiration_ids>  (1091) 
[97, 70]

>  <energy_score>  (1091) 
304.3038970767422

>  <distance_score>  (1091) 
5.77519933868539

>  <path>  (1091) 
/opt/xchem-fragalysis-2/maxwin/BulkDock/SCRATCH/511013/C4736-P70/C4736-P70.minimised.mol

>  <scratch_subdir>  (1091) 
/opt/xchem-fragalysis-2/maxwin/BulkDock/SCRATCH/511013/C4736-P70

>  <fragmenstein_runtime>  (1091) 
7.655704021453857

>  <fragmenstein_outcome>  (1091) 
too moved

>  <fragmenstein_mode>  (1091) 
expansion

>  <fragmenstein_error>  (1091) 


$$$$
C4737-P97
     RDKit          3D

 38 40  0  0  0  0  0  0  0  0999 V2000
    5.3604   -1.0991   17.7248 O   0  0  0  0  0  0  0  0  0  0  0  0
    6.2977   -0.5303   18.2478 C   0  0  0  0  0  0  0  0  0  0  0  0
    6.2998    0.1814   19.9483 N   0  0  0  0  0  0  0  0  0  0  0  0
    4.7479    0.3963   21.3376 C   0  0  0  0  0  0  0  0  0  0  0  0
    3.1022    1.5358   21.9430 C   0  0  0  0  0  0  0  0  0  0  0  0
    2.4327    3.1406   22.2023 C   0  0  0  0  0  0  0  0  0  0  0  0
    1.5713    3.7445   21.1004 C   0  0  0  0  0  0  0  0  0  0  0  0
    1.2792    5.1515   21.6173 C   0  0  0  0  0  0  0  0  0  0  0  0
    2.2731    5.3919   22.7464 C   0  0  0  0  0  0  0  0  0  0  0  0
    3.2457    4.2939   22.6694 N   0  0  0  0  0  0  0  0  0  0  0  0
    7.6756   -0.2960   16.9969 C   0  0  0  0  0  0  0  0  0  0  0  0
    8.1056   -1.0358   15.8606 C   0  0  0  0  0  0  0  0  0  0  0  0
    9.4465   -0.6240   15.6149 C   0  0  0  0  0  0  0  0  0  0  0  0
   10.6122   -1.2476   15.1309 C   0  0  0  0  0  0  0  0  0  0  0  0
   11.7970   -0.5150   15.0883 C   0  0  0  0  0  0  0  0  0  0  0  0
   13.4115   -1.4034   14.6663 Br  0  0  0  0  0  0  0  0  0  0  0  0
   11.8072    0.8409   15.4066 C   0  0  0  0  0  0  0  0  0  0  0  0
   10.6465    1.4849   15.8640 C   0  0  0  0  0  0  0  0  0  0  0  0
    9.5089    0.6912   16.0385 C   0  0  0  0  0  0  0  0  0  0  0  0
    8.2885    0.9422   16.6315 N   0  0  0  0  0  0  0  0  0  0  0  0
    7.2212    0.5207   20.1716 H   0  0  0  0  0  0  0  0  0  0  0  0
    4.4881   -0.6052   21.7472 H   0  0  0  0  0  0  0  0  0  0  0  0
    4.1522    0.9061   20.8037 H   0  0  0  0  0  0  0  0  0  0  0  0
    2.2737    1.2779   21.3024 H   0  0  0  0  0  0  0  0  0  0  0  0
    3.0247    1.5456   23.0408 H   0  0  0  0  0  0  0  0  0  0  0  0
    1.7320    2.9714   23.0375 H   0  0  0  0  0  0  0  0  0  0  0  0
    0.6367    3.2026   20.9493 H   0  0  0  0  0  0  0  0  0  0  0  0
    2.1047    3.7963   20.1461 H   0  0  0  0  0  0  0  0  0  0  0  0
    1.4006    5.8831   20.8113 H   0  0  0  0  0  0  0  0  0  0  0  0
    0.2511    5.2266   21.9885 H   0  0  0  0  0  0  0  0  0  0  0  0
    2.7680    6.3637   22.6545 H   0  0  0  0  0  0  0  0  0  0  0  0
    1.7656    5.3684   23.7176 H   0  0  0  0  0  0  0  0  0  0  0  0
    3.8758    4.4880   21.8820 H   0  0  0  0  0  0  0  0  0  0  0  0
    7.6804   -1.9596   15.4942 H   0  0  0  0  0  0  0  0  0  0  0  0
   10.5958   -2.2953   14.8444 H   0  0  0  0  0  0  0  0  0  0  0  0
   12.7312    1.4111   15.3375 H   0  0  0  0  0  0  0  0  0  0  0  0
   10.6659    2.5287   16.1627 H   0  0  0  0  0  0  0  0  0  0  0  0
    7.9881    1.8339   17.0110 H   0  0  0  0  0  0  0  0  0  0  0  0
  1  2  2  0
  2  3  1  0
  3  4  1  0
  4  5  1  0
  5  6  1  0
  6  7  1  0
  7  8  1  0
  8  9  1  0
  9 10  1  0
  2 11  1  0
 11 12  2  0
 12 13  1  0
 13 14  2  0
 14 15  1  0
 15 16  1  0
 15 17  2  0
 17 18  1  0
 18 19  2  0
 19 20  1  0
 10  6  1  0
 20 11  1  0
 19 13  1  0
  3 21  1  0
  4 22  1  0
  4 23  1  0
  5 24  1  0
  5 25  1  0
  6 26  1  0
  7 27  1  0
  7 28  1  0
  8 29  1  0
  8 30  1  0
  9 31  1  0
  9 32  1  0
 10 33  1  0
 12 34  1  0
 14 35  1  0
 17 36  1  0
 18 37  1  0
 20 38  1  0
M  END
>  <Energy>  (1092) 
469.15278954632868

>  <compound_id>  (1092) 
4737

>  <target_id>  (1092) 
1

>  <reference_id>  (1092) 
97

>  <inspiration_ids>  (1092) 
[97, 70]

>  <energy_score>  (1092) 
463.1746428509641

>  <distance_score>  (1092) 
6.139475294680375

>  <path>  (1092) 
/opt/xchem-fragalysis-2/maxwin/BulkDock/SCRATCH/511013/C4737-P97/C4737-P97.minimised.mol

>  <scratch_subdir>  (1092) 
/opt/xchem-fragalysis-2/maxwin/BulkDock/SCRATCH/511013/C4737-P97

>  <fragmenstein_runtime>  (1092) 
6.191943407058716

>  <fragmenstein_outcome>  (1092) 
too moved

>  <fragmenstein_mode>  (1092) 
expansion

>  <fragmenstein_error>  (1092) 


$$$$
C4737-P70
     RDKit          3D

 38 40  0  0  0  0  0  0  0  0999 V2000
    8.1093   -1.0172   19.9810 O   0  0  0  0  0  0  0  0  0  0  0  0
    7.4799   -0.3017   19.3404 C   0  0  0  0  0  0  0  0  0  0  0  0
    6.3554    0.2884   19.5925 N   0  0  0  0  0  0  0  0  0  0  0  0
    5.1546    0.3784   21.3191 C   0  0  0  0  0  0  0  0  0  0  0  0
    3.4248    1.4458   21.7259 C   0  0  0  0  0  0  0  0  0  0  0  0
    2.9416    2.6145   22.9243 C   0  0  0  0  0  0  0  0  0  0  0  0
    1.7383    3.4927   22.4635 C   0  0  0  0  0  0  0  0  0  0  0  0
    1.0437    3.9473   23.7542 C   0  0  0  0  0  0  0  0  0  0  0  0
    1.8610    3.3431   24.8822 C   0  0  0  0  0  0  0  0  0  0  0  0
    2.4511    2.1861   24.2401 N   0  0  0  0  0  0  0  0  0  0  0  0
    8.1002    0.2619   17.6888 C   0  0  0  0  0  0  0  0  0  0  0  0
    8.6633    1.4890   17.1746 C   0  0  0  0  0  0  0  0  0  0  0  0
    9.6860    1.0921   16.2369 C   0  0  0  0  0  0  0  0  0  0  0  0
   10.9490    1.5811   15.8411 C   0  0  0  0  0  0  0  0  0  0  0  0
   11.8216    0.6798   15.2048 C   0  0  0  0  0  0  0  0  0  0  0  0
   13.6462    1.1260   14.9822 Br  0  0  0  0  0  0  0  0  0  0  0  0
   11.4126   -0.5948   14.8219 C   0  0  0  0  0  0  0  0  0  0  0  0
   10.1183   -1.0302   15.0927 C   0  0  0  0  0  0  0  0  0  0  0  0
    9.3086   -0.1677   15.8232 C   0  0  0  0  0  0  0  0  0  0  0  0
    8.0448   -0.2994   16.3550 N   0  0  0  0  0  0  0  0  0  0  0  0
    6.1615    0.8673   18.8834 H   0  0  0  0  0  0  0  0  0  0  0  0
    4.9227   -0.6115   21.7866 H   0  0  0  0  0  0  0  0  0  0  0  0
    5.7796    1.0343   21.9494 H   0  0  0  0  0  0  0  0  0  0  0  0
    3.0866    2.0938   20.8771 H   0  0  0  0  0  0  0  0  0  0  0  0
    2.4939    1.0008   21.5188 H   0  0  0  0  0  0  0  0  0  0  0  0
    3.6868    3.4032   23.0506 H   0  0  0  0  0  0  0  0  0  0  0  0
    1.0304    2.9631   21.8221 H   0  0  0  0  0  0  0  0  0  0  0  0
    2.0938    4.3588   21.8926 H   0  0  0  0  0  0  0  0  0  0  0  0
    0.9972    5.0384   23.8271 H   0  0  0  0  0  0  0  0  0  0  0  0
    0.0164    3.5637   23.7708 H   0  0  0  0  0  0  0  0  0  0  0  0
    2.6359    4.0375   25.2256 H   0  0  0  0  0  0  0  0  0  0  0  0
    1.2358    3.0656   25.7353 H   0  0  0  0  0  0  0  0  0  0  0  0
    3.1464    1.6798   24.7719 H   0  0  0  0  0  0  0  0  0  0  0  0
    8.6241    2.4494   17.6560 H   0  0  0  0  0  0  0  0  0  0  0  0
   11.2992    2.5475   16.1914 H   0  0  0  0  0  0  0  0  0  0  0  0
   12.0965   -1.2685   14.3110 H   0  0  0  0  0  0  0  0  0  0  0  0
    9.7988   -2.0207   14.7902 H   0  0  0  0  0  0  0  0  0  0  0  0
    7.3965   -1.0016   16.0376 H   0  0  0  0  0  0  0  0  0  0  0  0
  1  2  2  0
  2  3  1  0
  3  4  1  0
  4  5  1  0
  5  6  1  0
  6  7  1  0
  7  8  1  0
  8  9  1  0
  9 10  1  0
  2 11  1  0
 11 12  2  0
 12 13  1  0
 13 14  2  0
 14 15  1  0
 15 16  1  0
 15 17  2  0
 17 18  1  0
 18 19  2  0
 19 20  1  0
 10  6  1  0
 20 11  1  0
 19 13  1  0
  3 21  1  0
  4 22  1  0
  4 23  1  0
  5 24  1  0
  5 25  1  0
  6 26  1  0
  7 27  1  0
  7 28  1  0
  8 29  1  0
  8 30  1  0
  9 31  1  0
  9 32  1  0
 10 33  1  0
 12 34  1  0
 14 35  1  0
 17 36  1  0
 18 37  1  0
 20 38  1  0
M  END
>  <Energy>  (1093) 
325.05760392763437

>  <compound_id>  (1093) 
4737

>  <target_id>  (1093) 
1

>  <reference_id>  (1093) 
70

>  <inspiration_ids>  (1093) 
[97, 70]

>  <energy_score>  (1093) 
319.07945723225504

>  <distance_score>  (1093) 
5.612591088931316

>  <path>  (1093) 
/opt/xchem-fragalysis-2/maxwin/BulkDock/SCRATCH/511013/C4737-P70/C4737-P70.minimised.mol

>  <scratch_subdir>  (1093) 
/opt/xchem-fragalysis-2/maxwin/BulkDock/SCRATCH/511013/C4737-P70

>  <fragmenstein_runtime>  (1093) 
5.9216086864471436

>  <fragmenstein_outcome>  (1093) 
too moved

>  <fragmenstein_mode>  (1093) 
expansion

>  <fragmenstein_error>  (1093) 


$$$$
C4738-P97
     RDKit          3D

 38 40  0  0  0  0  0  0  0  0999 V2000
    5.3955   -1.1071   17.6596 O   0  0  0  0  0  0  0  0  0  0  0  0
    6.3087   -0.5244   18.1906 C   0  0  0  0  0  0  0  0  0  0  0  0
    6.2847    0.1960   19.8436 N   0  0  0  0  0  0  0  0  0  0  0  0
    4.7261    0.4106   21.2032 C   0  0  0  0  0  0  0  0  0  0  0  0
    2.9466    1.4673   21.4865 C   0  0  0  0  0  0  0  0  0  0  0  0
    2.4394    2.7841   22.6068 C   0  0  0  0  0  0  0  0  0  0  0  0
    1.1020    3.4745   22.2033 C   0  0  0  0  0  0  0  0  0  0  0  0
    0.2568    3.5893   23.4681 C   0  0  0  0  0  0  0  0  0  0  0  0
    1.2131    3.3276   24.6087 C   0  0  0  0  0  0  0  0  0  0  0  0
    2.3056    2.5592   24.0546 N   0  0  0  0  0  0  0  0  0  0  0  0
    7.7054   -0.2862   16.9741 C   0  0  0  0  0  0  0  0  0  0  0  0
    8.3535    0.9222   16.5762 C   0  0  0  0  0  0  0  0  0  0  0  0
    9.5511    0.6018   15.8959 C   0  0  0  0  0  0  0  0  0  0  0  0
   10.7206    1.3068   15.5651 C   0  0  0  0  0  0  0  0  0  0  0  0
   11.8061    0.5995   15.0429 C   0  0  0  0  0  0  0  0  0  0  0  0
   11.7138   -0.7729   14.8325 C   0  0  0  0  0  0  0  0  0  0  0  0
   13.2111   -1.6713   14.1189 Br  0  0  0  0  0  0  0  0  0  0  0  0
   10.5382   -1.4814   15.1028 C   0  0  0  0  0  0  0  0  0  0  0  0
    9.4545   -0.7462   15.6018 C   0  0  0  0  0  0  0  0  0  0  0  0
    8.1333   -1.0790   15.8783 N   0  0  0  0  0  0  0  0  0  0  0  0
    7.2015    0.5468   20.0746 H   0  0  0  0  0  0  0  0  0  0  0  0
    4.5248   -0.5612   21.7359 H   0  0  0  0  0  0  0  0  0  0  0  0
    5.2879    1.1477   21.7120 H   0  0  0  0  0  0  0  0  0  0  0  0
    2.0326    1.0044   21.2732 H   0  0  0  0  0  0  0  0  0  0  0  0
    2.6364    2.0666   20.5849 H   0  0  0  0  0  0  0  0  0  0  0  0
    3.1178    3.6369   22.4913 H   0  0  0  0  0  0  0  0  0  0  0  0
    0.5547    2.9592   21.4152 H   0  0  0  0  0  0  0  0  0  0  0  0
    1.3125    4.4822   21.8215 H   0  0  0  0  0  0  0  0  0  0  0  0
   -0.2174    4.5729   23.5477 H   0  0  0  0  0  0  0  0  0  0  0  0
   -0.5461    2.8439   23.4559 H   0  0  0  0  0  0  0  0  0  0  0  0
    1.6033    4.2757   24.9951 H   0  0  0  0  0  0  0  0  0  0  0  0
    0.7271    2.8085   25.4402 H   0  0  0  0  0  0  0  0  0  0  0  0
    2.3857    1.5734   24.2822 H   0  0  0  0  0  0  0  0  0  0  0  0
    8.0942    1.9165   16.9236 H   0  0  0  0  0  0  0  0  0  0  0  0
   10.8022    2.3708   15.7689 H   0  0  0  0  0  0  0  0  0  0  0  0
   12.7227    1.1354   14.8091 H   0  0  0  0  0  0  0  0  0  0  0  0
   10.4569   -2.5406   14.8830 H   0  0  0  0  0  0  0  0  0  0  0  0
    7.7002   -1.9426   15.5839 H   0  0  0  0  0  0  0  0  0  0  0  0
  1  2  2  0
  2  3  1  0
  3  4  1  0
  4  5  1  0
  5  6  1  0
  6  7  1  0
  7  8  1  0
  8  9  1  0
  9 10  1  0
  2 11  1  0
 11 12  2  0
 12 13  1  0
 13 14  2  0
 14 15  1  0
 15 16  2  0
 16 17  1  0
 16 18  1  0
 18 19  2  0
 19 20  1  0
 10  6  1  0
 20 11  1  0
 19 13  1  0
  3 21  1  0
  4 22  1  0
  4 23  1  0
  5 24  1  0
  5 25  1  0
  6 26  1  0
  7 27  1  0
  7 28  1  0
  8 29  1  0
  8 30  1  0
  9 31  1  0
  9 32  1  0
 10 33  1  0
 12 34  1  0
 14 35  1  0
 15 36  1  0
 18 37  1  0
 20 38  1  0
M  END
>  <Energy>  (1094) 
369.79234346892605

>  <compound_id>  (1094) 
4738

>  <target_id>  (1094) 
1

>  <reference_id>  (1094) 
97

>  <inspiration_ids>  (1094) 
[97, 70]

>  <energy_score>  (1094) 
364.77075220289726

>  <distance_score>  (1094) 
5.470630780434577

>  <path>  (1094) 
/opt/xchem-fragalysis-2/maxwin/BulkDock/SCRATCH/511013/C4738-P97/C4738-P97.minimised.mol

>  <scratch_subdir>  (1094) 
/opt/xchem-fragalysis-2/maxwin/BulkDock/SCRATCH/511013/C4738-P97

>  <fragmenstein_runtime>  (1094) 
5.437047958374023

>  <fragmenstein_outcome>  (1094) 
too moved

>  <fragmenstein_mode>  (1094) 
expansion

>  <fragmenstein_error>  (1094) 


$$$$
C4738-P70
     RDKit          3D

 38 40  0  0  0  0  0  0  0  0999 V2000
    7.2754    2.4505   18.8019 O   0  0  0  0  0  0  0  0  0  0  0  0
    7.4224    1.2556   18.8521 C   0  0  0  0  0  0  0  0  0  0  0  0
    6.6320    0.1177   20.0101 N   0  0  0  0  0  0  0  0  0  0  0  0
    5.1601    0.4616   21.4483 C   0  0  0  0  0  0  0  0  0  0  0  0
    3.4219    1.5050   21.7707 C   0  0  0  0  0  0  0  0  0  0  0  0
    2.8790    2.5791   23.0134 C   0  0  0  0  0  0  0  0  0  0  0  0
    1.6917    3.4098   22.4210 C   0  0  0  0  0  0  0  0  0  0  0  0
    1.2568    4.2977   23.5597 C   0  0  0  0  0  0  0  0  0  0  0  0
    2.5751    4.6659   24.1888 C   0  0  0  0  0  0  0  0  0  0  0  0
    3.5848    3.7389   23.6351 N   0  0  0  0  0  0  0  0  0  0  0  0
    8.4025    0.7564   17.5302 C   0  0  0  0  0  0  0  0  0  0  0  0
    9.1455    1.8013   16.8954 C   0  0  0  0  0  0  0  0  0  0  0  0
   10.0559    1.2346   15.9979 C   0  0  0  0  0  0  0  0  0  0  0  0
   11.2539    1.6800   15.4252 C   0  0  0  0  0  0  0  0  0  0  0  0
   12.0210    0.7625   14.7254 C   0  0  0  0  0  0  0  0  0  0  0  0
   11.5645   -0.5410   14.5681 C   0  0  0  0  0  0  0  0  0  0  0  0
   12.6767   -1.7131   13.6198 Br  0  0  0  0  0  0  0  0  0  0  0  0
   10.3258   -0.9818   15.0619 C   0  0  0  0  0  0  0  0  0  0  0  0
    9.5836   -0.0503   15.7854 C   0  0  0  0  0  0  0  0  0  0  0  0
    8.3353   -0.0682   16.4037 N   0  0  0  0  0  0  0  0  0  0  0  0
    6.8703   -0.8309   19.7704 H   0  0  0  0  0  0  0  0  0  0  0  0
    5.8086    1.0935   22.0545 H   0  0  0  0  0  0  0  0  0  0  0  0
    4.8651   -0.5167   21.8850 H   0  0  0  0  0  0  0  0  0  0  0  0
    3.0813    2.1371   20.9111 H   0  0  0  0  0  0  0  0  0  0  0  0
    2.5240    1.0139   21.5342 H   0  0  0  0  0  0  0  0  0  0  0  0
    2.5525    1.9654   23.8593 H   0  0  0  0  0  0  0  0  0  0  0  0
    0.8470    2.8438   22.0317 H   0  0  0  0  0  0  0  0  0  0  0  0
    2.0486    4.0306   21.5859 H   0  0  0  0  0  0  0  0  0  0  0  0
    0.6938    5.1696   23.2147 H   0  0  0  0  0  0  0  0  0  0  0  0
    0.6345    3.7336   24.2639 H   0  0  0  0  0  0  0  0  0  0  0  0
    2.8633    5.6929   23.9427 H   0  0  0  0  0  0  0  0  0  0  0  0
    2.5195    4.5843   25.2800 H   0  0  0  0  0  0  0  0  0  0  0  0
    4.1119    3.4390   24.4510 H   0  0  0  0  0  0  0  0  0  0  0  0
    9.1758    2.8257   17.2449 H   0  0  0  0  0  0  0  0  0  0  0  0
   11.6124    2.6905   15.5973 H   0  0  0  0  0  0  0  0  0  0  0  0
   12.9775    1.0746   14.3150 H   0  0  0  0  0  0  0  0  0  0  0  0
    9.9771   -1.9900   14.8764 H   0  0  0  0  0  0  0  0  0  0  0  0
    7.5533   -0.6456   16.1390 H   0  0  0  0  0  0  0  0  0  0  0  0
  1  2  2  0
  2  3  1  0
  3  4  1  0
  4  5  1  0
  5  6  1  0
  6  7  1  0
  7  8  1  0
  8  9  1  0
  9 10  1  0
  2 11  1  0
 11 12  2  0
 12 13  1  0
 13 14  2  0
 14 15  1  0
 15 16  2  0
 16 17  1  0
 16 18  1  0
 18 19  2  0
 19 20  1  0
 10  6  1  0
 20 11  1  0
 19 13  1  0
  3 21  1  0
  4 22  1  0
  4 23  1  0
  5 24  1  0
  5 25  1  0
  6 26  1  0
  7 27  1  0
  7 28  1  0
  8 29  1  0
  8 30  1  0
  9 31  1  0
  9 32  1  0
 10 33  1  0
 12 34  1  0
 14 35  1  0
 15 36  1  0
 18 37  1  0
 20 38  1  0
M  END
>  <Energy>  (1095) 
347.86415055850119

>  <compound_id>  (1095) 
4738

>  <target_id>  (1095) 
1

>  <reference_id>  (1095) 
70

>  <inspiration_ids>  (1095) 
[97, 70]

>  <energy_score>  (1095) 
342.8425592924625

>  <distance_score>  (1095) 
5.82379719777372

>  <path>  (1095) 
/opt/xchem-fragalysis-2/maxwin/BulkDock/SCRATCH/511013/C4738-P70/C4738-P70.minimised.mol

>  <scratch_subdir>  (1095) 
/opt/xchem-fragalysis-2/maxwin/BulkDock/SCRATCH/511013/C4738-P70

>  <fragmenstein_runtime>  (1095) 
6.222009897232056

>  <fragmenstein_outcome>  (1095) 
too moved

>  <fragmenstein_mode>  (1095) 
expansion

>  <fragmenstein_error>  (1095) 


$$$$
C4739-P97
     RDKit          3D

 42 44  0  0  0  0  0  0  0  0999 V2000
   10.1641    0.9285   13.0175 N   0  0  0  0  0  0  0  0  0  0  0  0
    9.5538    0.2241   13.7210 C   0  0  0  0  0  0  0  0  0  0  0  0
    8.5844   -0.5792   14.5767 C   0  0  0  0  0  0  0  0  0  0  0  0
    8.7992   -0.8314   16.0379 N   0  0  0  0  0  0  0  0  0  0  0  0
    7.9067   -0.1937   17.0896 C   0  0  0  0  0  0  0  0  0  0  0  0
    6.4073   -0.5044   18.2714 C   0  0  0  0  0  0  0  0  0  0  0  0
    5.5046   -1.0646   17.6905 O   0  0  0  0  0  0  0  0  0  0  0  0
    6.3368    0.1650   19.9966 N   0  0  0  0  0  0  0  0  0  0  0  0
    4.7268    0.3327   21.3316 C   0  0  0  0  0  0  0  0  0  0  0  0
    2.9917    1.4567   21.6908 C   0  0  0  0  0  0  0  0  0  0  0  0
    2.4455    2.8101   22.6940 C   0  0  0  0  0  0  0  0  0  0  0  0
    2.2065    2.7402   24.2224 C   0  0  0  0  0  0  0  0  0  0  0  0
    0.8444    3.3696   24.5055 C   0  0  0  0  0  0  0  0  0  0  0  0
    0.5631    4.1700   23.2572 C   0  0  0  0  0  0  0  0  0  0  0  0
    1.1020    3.3055   22.2164 N   0  0  0  0  0  0  0  0  0  0  0  0
    8.4388    1.1467   16.7629 C   0  0  0  0  0  0  0  0  0  0  0  0
    9.8430    1.0718   16.4175 C   0  0  0  0  0  0  0  0  0  0  0  0
   10.9027    1.9853   16.2444 C   0  0  0  0  0  0  0  0  0  0  0  0
   12.1802    1.4911   15.9121 C   0  0  0  0  0  0  0  0  0  0  0  0
   12.4116    0.1232   15.7292 C   0  0  0  0  0  0  0  0  0  0  0  0
   11.3718   -0.7999   15.8506 C   0  0  0  0  0  0  0  0  0  0  0  0
   10.1090   -0.2826   16.2134 C   0  0  0  0  0  0  0  0  0  0  0  0
    7.9756   -1.3887   14.1756 H   0  0  0  0  0  0  0  0  0  0  0  0
    8.0206    0.2941   14.7452 H   0  0  0  0  0  0  0  0  0  0  0  0
    7.2441    0.5055   20.2655 H   0  0  0  0  0  0  0  0  0  0  0  0
    4.4893   -0.6570   21.7660 H   0  0  0  0  0  0  0  0  0  0  0  0
    4.2776    0.8823   20.7404 H   0  0  0  0  0  0  0  0  0  0  0  0
    2.6740    2.0089   20.7512 H   0  0  0  0  0  0  0  0  0  0  0  0
    2.0831    1.0335   21.3455 H   0  0  0  0  0  0  0  0  0  0  0  0
    3.0714    3.6906   22.5004 H   0  0  0  0  0  0  0  0  0  0  0  0
    2.9332    3.3836   24.7344 H   0  0  0  0  0  0  0  0  0  0  0  0
    2.3041    1.7448   24.6476 H   0  0  0  0  0  0  0  0  0  0  0  0
    0.0816    2.5992   24.6496 H   0  0  0  0  0  0  0  0  0  0  0  0
    0.8582    3.9940   25.4043 H   0  0  0  0  0  0  0  0  0  0  0  0
    1.0878    5.1319   23.2740 H   0  0  0  0  0  0  0  0  0  0  0  0
   -0.5057    4.3538   23.1178 H   0  0  0  0  0  0  0  0  0  0  0  0
    1.2237    3.7967   21.3305 H   0  0  0  0  0  0  0  0  0  0  0  0
    7.9407    2.0829   17.0018 H   0  0  0  0  0  0  0  0  0  0  0  0
   10.7440    3.0516   16.3815 H   0  0  0  0  0  0  0  0  0  0  0  0
   13.0014    2.1937   15.7818 H   0  0  0  0  0  0  0  0  0  0  0  0
   13.4037   -0.2183   15.4403 H   0  0  0  0  0  0  0  0  0  0  0  0
   11.5174   -1.8482   15.6065 H   0  0  0  0  0  0  0  0  0  0  0  0
  1  2  3  0
  2  3  1  0
  3  4  1  0
  4  5  1  0
  5  6  1  0
  6  7  2  0
  6  8  1  0
  8  9  1  0
  9 10  1  0
 10 11  1  0
 11 12  1  0
 12 13  1  0
 13 14  1  0
 14 15  1  0
  5 16  2  0
 16 17  1  0
 17 18  2  0
 18 19  1  0
 19 20  2  0
 20 21  1  0
 21 22  2  0
 22  4  1  0
 15 11  1  0
 22 17  1  0
  3 23  1  0
  3 24  1  0
  8 25  1  0
  9 26  1  0
  9 27  1  0
 10 28  1  0
 10 29  1  0
 11 30  1  0
 12 31  1  0
 12 32  1  0
 13 33  1  0
 13 34  1  0
 14 35  1  0
 14 36  1  0
 15 37  1  0
 16 38  1  0
 18 39  1  0
 19 40  1  0
 20 41  1  0
 21 42  1  0
M  END
>  <Energy>  (1096) 
587.77733585085161

>  <compound_id>  (1096) 
4739

>  <target_id>  (1096) 
1

>  <reference_id>  (1096) 
97

>  <inspiration_ids>  (1096) 
[97, 70]

>  <energy_score>  (1096) 
582.8353964153146

>  <distance_score>  (1096) 
5.581199090534253

>  <path>  (1096) 
/opt/xchem-fragalysis-2/maxwin/BulkDock/SCRATCH/511013/C4739-P97/C4739-P97.minimised.mol

>  <scratch_subdir>  (1096) 
/opt/xchem-fragalysis-2/maxwin/BulkDock/SCRATCH/511013/C4739-P97

>  <fragmenstein_runtime>  (1096) 
6.838021993637085

>  <fragmenstein_outcome>  (1096) 
too moved

>  <fragmenstein_mode>  (1096) 
expansion

>  <fragmenstein_error>  (1096) 


$$$$
C4739-P70
     RDKit          3D

 42 44  0  0  0  0  0  0  0  0999 V2000
    6.8991   -1.7482   14.4905 N   0  0  0  0  0  0  0  0  0  0  0  0
    7.8977   -1.3651   14.9360 C   0  0  0  0  0  0  0  0  0  0  0  0
    9.1767   -0.8666   15.3721 C   0  0  0  0  0  0  0  0  0  0  0  0
    9.2183    0.2544   16.3249 N   0  0  0  0  0  0  0  0  0  0  0  0
    8.3806    0.5942   17.4670 C   0  0  0  0  0  0  0  0  0  0  0  0
    7.4155    1.1744   18.8688 C   0  0  0  0  0  0  0  0  0  0  0  0
    7.3166    2.3739   18.8165 O   0  0  0  0  0  0  0  0  0  0  0  0
    6.6238    0.0909   20.0230 N   0  0  0  0  0  0  0  0  0  0  0  0
    5.2055    0.4849   21.4795 C   0  0  0  0  0  0  0  0  0  0  0  0
    3.4711    1.5017   21.8915 C   0  0  0  0  0  0  0  0  0  0  0  0
    2.7143    3.1124   21.8451 C   0  0  0  0  0  0  0  0  0  0  0  0
    3.0391    4.0170   23.0507 C   0  0  0  0  0  0  0  0  0  0  0  0
    1.8412    4.9470   23.2296 C   0  0  0  0  0  0  0  0  0  0  0  0
    0.8062    4.4466   22.2466 C   0  0  0  0  0  0  0  0  0  0  0  0
    1.2310    3.0840   21.9722 N   0  0  0  0  0  0  0  0  0  0  0  0
    8.5545    1.9797   16.7504 C   0  0  0  0  0  0  0  0  0  0  0  0
    9.8729    2.2530   16.3031 C   0  0  0  0  0  0  0  0  0  0  0  0
   10.6830    3.3470   15.9833 C   0  0  0  0  0  0  0  0  0  0  0  0
   12.0058    3.0970   15.5785 C   0  0  0  0  0  0  0  0  0  0  0  0
   12.4922    1.7954   15.4453 C   0  0  0  0  0  0  0  0  0  0  0  0
   11.6682    0.7049   15.7054 C   0  0  0  0  0  0  0  0  0  0  0  0
   10.3720    1.0035   16.1592 C   0  0  0  0  0  0  0  0  0  0  0  0
    9.8714   -1.6270   15.7284 H   0  0  0  0  0  0  0  0  0  0  0  0
    9.6450   -0.4592   14.4710 H   0  0  0  0  0  0  0  0  0  0  0  0
    6.8206   -0.8673   19.7779 H   0  0  0  0  0  0  0  0  0  0  0  0
    4.8615   -0.4965   21.8579 H   0  0  0  0  0  0  0  0  0  0  0  0
    5.8972    1.0972   22.0597 H   0  0  0  0  0  0  0  0  0  0  0  0
    3.4344    1.5447   22.9815 H   0  0  0  0  0  0  0  0  0  0  0  0
    2.6168    1.0911   21.4381 H   0  0  0  0  0  0  0  0  0  0  0  0
    2.8878    3.6155   20.8820 H   0  0  0  0  0  0  0  0  0  0  0  0
    3.9596    4.5885   22.8955 H   0  0  0  0  0  0  0  0  0  0  0  0
    3.1490    3.4384   23.9740 H   0  0  0  0  0  0  0  0  0  0  0  0
    1.4724    4.8905   24.2601 H   0  0  0  0  0  0  0  0  0  0  0  0
    2.1097    5.9886   23.0252 H   0  0  0  0  0  0  0  0  0  0  0  0
    0.8232    5.0454   21.3287 H   0  0  0  0  0  0  0  0  0  0  0  0
   -0.2059    4.4802   22.6594 H   0  0  0  0  0  0  0  0  0  0  0  0
    0.8492    2.7404   21.0847 H   0  0  0  0  0  0  0  0  0  0  0  0
    7.8575    2.7996   16.9033 H   0  0  0  0  0  0  0  0  0  0  0  0
   10.3208    4.3637   16.0977 H   0  0  0  0  0  0  0  0  0  0  0  0
   12.6627    3.9394   15.3711 H   0  0  0  0  0  0  0  0  0  0  0  0
   13.5181    1.6352   15.1219 H   0  0  0  0  0  0  0  0  0  0  0  0
   12.0222   -0.3104   15.5650 H   0  0  0  0  0  0  0  0  0  0  0  0
  1  2  3  0
  2  3  1  0
  3  4  1  0
  4  5  1  0
  5  6  1  0
  6  7  2  0
  6  8  1  0
  8  9  1  0
  9 10  1  0
 10 11  1  0
 11 12  1  0
 12 13  1  0
 13 14  1  0
 14 15  1  0
  5 16  2  0
 16 17  1  0
 17 18  2  0
 18 19  1  0
 19 20  2  0
 20 21  1  0
 21 22  2  0
 22  4  1  0
 15 11  1  0
 22 17  1  0
  3 23  1  0
  3 24  1  0
  8 25  1  0
  9 26  1  0
  9 27  1  0
 10 28  1  0
 10 29  1  0
 11 30  1  0
 12 31  1  0
 12 32  1  0
 13 33  1  0
 13 34  1  0
 14 35  1  0
 14 36  1  0
 15 37  1  0
 16 38  1  0
 18 39  1  0
 19 40  1  0
 20 41  1  0
 21 42  1  0
M  END
>  <Energy>  (1097) 
454.02540319262647

>  <compound_id>  (1097) 
4739

>  <target_id>  (1097) 
1

>  <reference_id>  (1097) 
70

>  <inspiration_ids>  (1097) 
[97, 70]

>  <energy_score>  (1097) 
449.0834637570783

>  <distance_score>  (1097) 
6.3391432693221486

>  <path>  (1097) 
/opt/xchem-fragalysis-2/maxwin/BulkDock/SCRATCH/511013/C4739-P70/C4739-P70.minimised.mol

>  <scratch_subdir>  (1097) 
/opt/xchem-fragalysis-2/maxwin/BulkDock/SCRATCH/511013/C4739-P70

>  <fragmenstein_runtime>  (1097) 
8.379502058029175

>  <fragmenstein_outcome>  (1097) 
too moved

>  <fragmenstein_mode>  (1097) 
expansion

>  <fragmenstein_error>  (1097) 


$$$$
C4740-P97
     RDKit          3D

 39 41  0  0  0  0  0  0  0  0999 V2000
    8.5359    3.3856   16.3925 N   0  0  0  0  0  0  0  0  0  0  0  0
    8.4214    2.2380   16.5229 C   0  0  0  0  0  0  0  0  0  0  0  0
    8.5324    0.8124   16.4591 C   0  0  0  0  0  0  0  0  0  0  0  0
    7.7414   -0.2914   16.9527 C   0  0  0  0  0  0  0  0  0  0  0  0
    6.3330   -0.5191   18.1795 C   0  0  0  0  0  0  0  0  0  0  0  0
    5.4166   -1.0927   17.6494 O   0  0  0  0  0  0  0  0  0  0  0  0
    6.2993    0.1955   19.8428 N   0  0  0  0  0  0  0  0  0  0  0  0
    4.7347    0.4085   21.1946 C   0  0  0  0  0  0  0  0  0  0  0  0
    2.9566    1.4639   21.4640 C   0  0  0  0  0  0  0  0  0  0  0  0
    2.4339    2.6927   22.6248 C   0  0  0  0  0  0  0  0  0  0  0  0
    1.1332    3.4083   22.1259 C   0  0  0  0  0  0  0  0  0  0  0  0
    0.8860    4.4876   23.1638 C   0  0  0  0  0  0  0  0  0  0  0  0
    2.2786    4.8491   23.6285 C   0  0  0  0  0  0  0  0  0  0  0  0
    3.1857    3.9650   22.8911 N   0  0  0  0  0  0  0  0  0  0  0  0
    8.0762   -1.1579   15.8509 N   0  0  0  0  0  0  0  0  0  0  0  0
    9.4385   -1.0424   15.5960 C   0  0  0  0  0  0  0  0  0  0  0  0
   10.4187   -1.9387   15.1392 C   0  0  0  0  0  0  0  0  0  0  0  0
   11.7008   -1.4438   14.8889 C   0  0  0  0  0  0  0  0  0  0  0  0
   11.9758   -0.0905   15.0340 C   0  0  0  0  0  0  0  0  0  0  0  0
   10.9836    0.7910   15.4793 C   0  0  0  0  0  0  0  0  0  0  0  0
    9.7147    0.2824   15.8407 C   0  0  0  0  0  0  0  0  0  0  0  0
    7.2163    0.5415   20.0816 H   0  0  0  0  0  0  0  0  0  0  0  0
    4.5299   -0.5620   21.7304 H   0  0  0  0  0  0  0  0  0  0  0  0
    5.2910    1.1473   21.7093 H   0  0  0  0  0  0  0  0  0  0  0  0
    2.6415    2.0751   20.5723 H   0  0  0  0  0  0  0  0  0  0  0  0
    2.0469    0.9916   21.2547 H   0  0  0  0  0  0  0  0  0  0  0  0
    2.2743    2.2047   23.5940 H   0  0  0  0  0  0  0  0  0  0  0  0
    1.3126    3.8718   21.1450 H   0  0  0  0  0  0  0  0  0  0  0  0
    0.2356    2.8039   22.0065 H   0  0  0  0  0  0  0  0  0  0  0  0
    0.3522    5.3406   22.7339 H   0  0  0  0  0  0  0  0  0  0  0  0
    0.2949    4.0898   23.9964 H   0  0  0  0  0  0  0  0  0  0  0  0
    2.3846    4.6848   24.7063 H   0  0  0  0  0  0  0  0  0  0  0  0
    2.5176    5.8981   23.4270 H   0  0  0  0  0  0  0  0  0  0  0  0
    3.3989    4.3573   21.9666 H   0  0  0  0  0  0  0  0  0  0  0  0
    7.5388   -1.9663   15.5751 H   0  0  0  0  0  0  0  0  0  0  0  0
   10.2031   -2.9807   14.9309 H   0  0  0  0  0  0  0  0  0  0  0  0
   12.4715   -2.1164   14.5191 H   0  0  0  0  0  0  0  0  0  0  0  0
   12.9652    0.2904   14.7917 H   0  0  0  0  0  0  0  0  0  0  0  0
   11.2189    1.8453   15.6098 H   0  0  0  0  0  0  0  0  0  0  0  0
  1  2  3  0
  2  3  1  0
  3  4  2  0
  4  5  1  0
  5  6  2  0
  5  7  1  0
  7  8  1  0
  8  9  1  0
  9 10  1  0
 10 11  1  0
 11 12  1  0
 12 13  1  0
 13 14  1  0
  4 15  1  0
 15 16  1  0
 16 17  2  0
 17 18  1  0
 18 19  2  0
 19 20  1  0
 20 21  2  0
 21  3  1  0
 14 10  1  0
 21 16  1  0
  7 22  1  0
  8 23  1  0
  8 24  1  0
  9 25  1  0
  9 26  1  0
 10 27  1  0
 11 28  1  0
 11 29  1  0
 12 30  1  0
 12 31  1  0
 13 32  1  0
 13 33  1  0
 14 34  1  0
 15 35  1  0
 17 36  1  0
 18 37  1  0
 19 38  1  0
 20 39  1  0
M  END
>  <Energy>  (1098) 
385.38147130628278

>  <compound_id>  (1098) 
4740

>  <target_id>  (1098) 
1

>  <reference_id>  (1098) 
97

>  <inspiration_ids>  (1098) 
[97, 70]

>  <energy_score>  (1098) 
386.5000361777126

>  <distance_score>  (1098) 
5.8736437232081515

>  <path>  (1098) 
/opt/xchem-fragalysis-2/maxwin/BulkDock/SCRATCH/511013/C4740-P97/C4740-P97.minimised.mol

>  <scratch_subdir>  (1098) 
/opt/xchem-fragalysis-2/maxwin/BulkDock/SCRATCH/511013/C4740-P97

>  <fragmenstein_runtime>  (1098) 
6.925612688064575

>  <fragmenstein_outcome>  (1098) 
too moved

>  <fragmenstein_mode>  (1098) 
expansion

>  <fragmenstein_error>  (1098) 


$$$$
C4740-P70
     RDKit          3D

 39 41  0  0  0  0  0  0  0  0999 V2000
   12.2439    4.8161   16.1453 N   0  0  0  0  0  0  0  0  0  0  0  0
   11.3014    4.1410   16.2234 C   0  0  0  0  0  0  0  0  0  0  0  0
   10.2654    3.1487   16.2370 C   0  0  0  0  0  0  0  0  0  0  0  0
    8.9042    3.2754   16.5720 C   0  0  0  0  0  0  0  0  0  0  0  0
    8.1152    4.5058   16.9336 C   0  0  0  0  0  0  0  0  0  0  0  0
    8.5893    5.5475   16.5911 O   0  0  0  0  0  0  0  0  0  0  0  0
    6.8469    4.2111   17.5773 N   0  0  0  0  0  0  0  0  0  0  0  0
    5.7000    5.0937   17.9230 C   0  0  0  0  0  0  0  0  0  0  0  0
    5.5272    5.5131   19.4206 C   0  0  0  0  0  0  0  0  0  0  0  0
    4.1040    5.3631   20.0274 C   0  0  0  0  0  0  0  0  0  0  0  0
    3.0287    6.3367   19.5722 C   0  0  0  0  0  0  0  0  0  0  0  0
    1.9538    6.2168   20.6579 C   0  0  0  0  0  0  0  0  0  0  0  0
    2.6650    5.6062   21.8570 C   0  0  0  0  0  0  0  0  0  0  0  0
    4.0873    5.6005   21.4921 N   0  0  0  0  0  0  0  0  0  0  0  0
    8.4067    1.9852   16.4267 N   0  0  0  0  0  0  0  0  0  0  0  0
    9.3581    1.0999   15.9565 C   0  0  0  0  0  0  0  0  0  0  0  0
    9.2561   -0.2468   15.5871 C   0  0  0  0  0  0  0  0  0  0  0  0
   10.4314   -0.9200   15.2276 C   0  0  0  0  0  0  0  0  0  0  0  0
   11.6552   -0.2643   15.1945 C   0  0  0  0  0  0  0  0  0  0  0  0
   11.7270    1.0967   15.4987 C   0  0  0  0  0  0  0  0  0  0  0  0
   10.5550    1.7940   15.8804 C   0  0  0  0  0  0  0  0  0  0  0  0
    6.7369    3.2100   17.6465 H   0  0  0  0  0  0  0  0  0  0  0  0
    5.7989    5.9966   17.3109 H   0  0  0  0  0  0  0  0  0  0  0  0
    4.8086    4.5558   17.5834 H   0  0  0  0  0  0  0  0  0  0  0  0
    6.2331    4.9417   20.0327 H   0  0  0  0  0  0  0  0  0  0  0  0
    5.8457    6.5598   19.5152 H   0  0  0  0  0  0  0  0  0  0  0  0
    3.7405    4.3558   19.8176 H   0  0  0  0  0  0  0  0  0  0  0  0
    3.4136    7.3634   19.5378 H   0  0  0  0  0  0  0  0  0  0  0  0
    2.6333    6.0903   18.5819 H   0  0  0  0  0  0  0  0  0  0  0  0
    1.5314    7.2003   20.8884 H   0  0  0  0  0  0  0  0  0  0  0  0
    1.1390    5.5648   20.3242 H   0  0  0  0  0  0  0  0  0  0  0  0
    2.3208    4.5804   22.0309 H   0  0  0  0  0  0  0  0  0  0  0  0
    2.4931    6.1784   22.7737 H   0  0  0  0  0  0  0  0  0  0  0  0
    4.4788    6.5242   21.6780 H   0  0  0  0  0  0  0  0  0  0  0  0
    7.4436    1.7133   16.5920 H   0  0  0  0  0  0  0  0  0  0  0  0
    8.3032   -0.7619   15.5755 H   0  0  0  0  0  0  0  0  0  0  0  0
   10.3851   -1.9652   14.9261 H   0  0  0  0  0  0  0  0  0  0  0  0
   12.5518   -0.8002   14.8929 H   0  0  0  0  0  0  0  0  0  0  0  0
   12.6827    1.6134   15.4406 H   0  0  0  0  0  0  0  0  0  0  0  0
  1  2  3  0
  2  3  1  0
  3  4  2  0
  4  5  1  0
  5  6  2  0
  5  7  1  0
  7  8  1  0
  8  9  1  0
  9 10  1  0
 10 11  1  0
 11 12  1  0
 12 13  1  0
 13 14  1  0
  4 15  1  0
 15 16  1  0
 16 17  2  0
 17 18  1  0
 18 19  2  0
 19 20  1  0
 20 21  2  0
 21  3  1  0
 14 10  1  0
 21 16  1  0
  7 22  1  0
  8 23  1  0
  8 24  1  0
  9 25  1  0
  9 26  1  0
 10 27  1  0
 11 28  1  0
 11 29  1  0
 12 30  1  0
 12 31  1  0
 13 32  1  0
 13 33  1  0
 14 34  1  0
 15 35  1  0
 17 36  1  0
 18 37  1  0
 19 38  1  0
 20 39  1  0
M  END
>  <Energy>  (1099) 
9.3169989692922712

>  <compound_id>  (1099) 
4740

>  <target_id>  (1099) 
1

>  <reference_id>  (1099) 
70

>  <inspiration_ids>  (1099) 
[97, 70]

>  <energy_score>  (1099) 
10.435563840706209

>  <distance_score>  (1099) 
7.084258184917426

>  <path>  (1099) 
/opt/xchem-fragalysis-2/maxwin/BulkDock/SCRATCH/511013/C4740-P70/C4740-P70.minimised.mol

>  <scratch_subdir>  (1099) 
/opt/xchem-fragalysis-2/maxwin/BulkDock/SCRATCH/511013/C4740-P70

>  <fragmenstein_runtime>  (1099) 
5.653326511383057

>  <fragmenstein_outcome>  (1099) 
too moved

>  <fragmenstein_mode>  (1099) 
expansion

>  <fragmenstein_error>  (1099) 


$$$$
C4741-P97
     RDKit          3D

 38 40  0  0  0  0  0  0  0  0999 V2000
    7.5909    5.5870   15.8481 O   0  0  0  0  0  0  0  0  0  0  0  0
    7.6840    4.7934   16.7371 C   0  0  0  0  0  0  0  0  0  0  0  0
    6.9525    4.6785   17.9757 N   0  0  0  0  0  0  0  0  0  0  0  0
    5.7948    5.4419   18.4923 C   0  0  0  0  0  0  0  0  0  0  0  0
    5.6099    5.4906   20.0326 C   0  0  0  0  0  0  0  0  0  0  0  0
    4.2105    5.8968   20.5891 C   0  0  0  0  0  0  0  0  0  0  0  0
    2.9605    5.4046   19.8607 C   0  0  0  0  0  0  0  0  0  0  0  0
    1.8802    5.2651   20.9381 C   0  0  0  0  0  0  0  0  0  0  0  0
    2.5828    5.5739   22.2459 C   0  0  0  0  0  0  0  0  0  0  0  0
    4.0043    5.3446   21.9533 N   0  0  0  0  0  0  0  0  0  0  0  0
    8.6289    3.6718   16.5237 C   0  0  0  0  0  0  0  0  0  0  0  0
   10.0061    3.6709   16.3153 C   0  0  0  0  0  0  0  0  0  0  0  0
   10.4439    2.3371   16.0244 C   0  0  0  0  0  0  0  0  0  0  0  0
   11.6933    1.7268   15.7604 C   0  0  0  0  0  0  0  0  0  0  0  0
   11.7382    0.3533   15.4880 C   0  0  0  0  0  0  0  0  0  0  0  0
   12.9222   -0.2569   15.3265 F   0  0  0  0  0  0  0  0  0  0  0  0
   10.5808   -0.4099   15.4273 C   0  0  0  0  0  0  0  0  0  0  0  0
    9.3366    0.1699   15.6957 C   0  0  0  0  0  0  0  0  0  0  0  0
    9.3015    1.5392   16.0111 C   0  0  0  0  0  0  0  0  0  0  0  0
    8.2339    2.3593   16.3358 N   0  0  0  0  0  0  0  0  0  0  0  0
    7.2443    3.8286   18.4558 H   0  0  0  0  0  0  0  0  0  0  0  0
    5.8602    6.4569   18.0860 H   0  0  0  0  0  0  0  0  0  0  0  0
    4.9265    4.9683   18.0243 H   0  0  0  0  0  0  0  0  0  0  0  0
    5.9367    4.5487   20.4769 H   0  0  0  0  0  0  0  0  0  0  0  0
    6.3435    6.2080   20.4279 H   0  0  0  0  0  0  0  0  0  0  0  0
    4.1787    6.9930   20.6479 H   0  0  0  0  0  0  0  0  0  0  0  0
    2.6522    6.1097   19.0815 H   0  0  0  0  0  0  0  0  0  0  0  0
    3.1208    4.4356   19.3808 H   0  0  0  0  0  0  0  0  0  0  0  0
    1.0453    5.9506   20.7615 H   0  0  0  0  0  0  0  0  0  0  0  0
    1.4849    4.2426   20.9349 H   0  0  0  0  0  0  0  0  0  0  0  0
    2.2329    4.9376   23.0642 H   0  0  0  0  0  0  0  0  0  0  0  0
    2.4288    6.6190   22.5369 H   0  0  0  0  0  0  0  0  0  0  0  0
    4.0966    4.3296   21.8223 H   0  0  0  0  0  0  0  0  0  0  0  0
   10.6304    4.5543   16.3619 H   0  0  0  0  0  0  0  0  0  0  0  0
   12.6115    2.3042   15.7817 H   0  0  0  0  0  0  0  0  0  0  0  0
   10.6547   -1.4627   15.1671 H   0  0  0  0  0  0  0  0  0  0  0  0
    8.4308   -0.4228   15.6515 H   0  0  0  0  0  0  0  0  0  0  0  0
    7.2695    2.0507   16.4043 H   0  0  0  0  0  0  0  0  0  0  0  0
  1  2  2  0
  2  3  1  0
  3  4  1  0
  4  5  1  0
  5  6  1  0
  6  7  1  0
  7  8  1  0
  8  9  1  0
  9 10  1  0
  2 11  1  0
 11 12  2  0
 12 13  1  0
 13 14  2  0
 14 15  1  0
 15 16  1  0
 15 17  2  0
 17 18  1  0
 18 19  2  0
 19 20  1  0
 10  6  1  0
 20 11  1  0
 19 13  1  0
  3 21  1  0
  4 22  1  0
  4 23  1  0
  5 24  1  0
  5 25  1  0
  6 26  1  0
  7 27  1  0
  7 28  1  0
  8 29  1  0
  8 30  1  0
  9 31  1  0
  9 32  1  0
 10 33  1  0
 12 34  1  0
 14 35  1  0
 17 36  1  0
 18 37  1  0
 20 38  1  0
M  END
>  <Energy>  (1100) 
-1.5709363134788736

>  <compound_id>  (1100) 
4741

>  <target_id>  (1100) 
1

>  <reference_id>  (1100) 
97

>  <inspiration_ids>  (1100) 
[97, 70]

>  <energy_score>  (1100) 
-2.7420870984392423

>  <distance_score>  (1100) 
7.088502036527521

>  <path>  (1100) 
/opt/xchem-fragalysis-2/maxwin/BulkDock/SCRATCH/511013/C4741-P97/C4741-P97.minimised.mol

>  <scratch_subdir>  (1100) 
/opt/xchem-fragalysis-2/maxwin/BulkDock/SCRATCH/511013/C4741-P97

>  <fragmenstein_runtime>  (1100) 
5.723268985748291

>  <fragmenstein_outcome>  (1100) 
too moved

>  <fragmenstein_mode>  (1100) 
expansion

>  <fragmenstein_error>  (1100) 


$$$$
C4741-P70
     RDKit          3D

 38 40  0  0  0  0  0  0  0  0999 V2000
    8.1229   -1.0242   19.9558 O   0  0  0  0  0  0  0  0  0  0  0  0
    7.4902   -0.3032   19.3250 C   0  0  0  0  0  0  0  0  0  0  0  0
    6.3702    0.2891   19.5904 N   0  0  0  0  0  0  0  0  0  0  0  0
    5.1878    0.3729   21.3239 C   0  0  0  0  0  0  0  0  0  0  0  0
    3.4579    1.4486   21.7288 C   0  0  0  0  0  0  0  0  0  0  0  0
    2.9304    2.6107   22.9525 C   0  0  0  0  0  0  0  0  0  0  0  0
    3.4565    4.0700   23.1042 C   0  0  0  0  0  0  0  0  0  0  0  0
    2.4149    4.7641   23.9804 C   0  0  0  0  0  0  0  0  0  0  0  0
    1.1278    4.0619   23.6371 C   0  0  0  0  0  0  0  0  0  0  0  0
    1.5140    3.0786   22.6304 N   0  0  0  0  0  0  0  0  0  0  0  0
    8.1065    0.2668   17.6760 C   0  0  0  0  0  0  0  0  0  0  0  0
    8.6543    1.5020   17.1703 C   0  0  0  0  0  0  0  0  0  0  0  0
    9.6865    1.1279   16.2343 C   0  0  0  0  0  0  0  0  0  0  0  0
   10.9305    1.6511   15.8285 C   0  0  0  0  0  0  0  0  0  0  0  0
   11.8168    0.7797   15.1771 C   0  0  0  0  0  0  0  0  0  0  0  0
   13.0823    1.1634   14.9632 F   0  0  0  0  0  0  0  0  0  0  0  0
   11.4543   -0.5086   14.8078 C   0  0  0  0  0  0  0  0  0  0  0  0
   10.1799   -0.9886   15.0957 C   0  0  0  0  0  0  0  0  0  0  0  0
    9.3452   -0.1447   15.8241 C   0  0  0  0  0  0  0  0  0  0  0  0
    8.0817   -0.3089   16.3488 N   0  0  0  0  0  0  0  0  0  0  0  0
    6.1715    0.8734   18.8851 H   0  0  0  0  0  0  0  0  0  0  0  0
    5.8374    1.0141   21.9465 H   0  0  0  0  0  0  0  0  0  0  0  0
    4.9243   -0.6184   21.7601 H   0  0  0  0  0  0  0  0  0  0  0  0
    2.5401    0.9822   21.5264 H   0  0  0  0  0  0  0  0  0  0  0  0
    3.0952    2.0916   20.8825 H   0  0  0  0  0  0  0  0  0  0  0  0
    2.8754    2.0890   23.9148 H   0  0  0  0  0  0  0  0  0  0  0  0
    4.4269    4.2252   23.5759 H   0  0  0  0  0  0  0  0  0  0  0  0
    3.4953    4.5795   22.1309 H   0  0  0  0  0  0  0  0  0  0  0  0
    2.6555    4.6279   25.0409 H   0  0  0  0  0  0  0  0  0  0  0  0
    2.3761    5.8375   23.7700 H   0  0  0  0  0  0  0  0  0  0  0  0
    0.3722    4.7487   23.2438 H   0  0  0  0  0  0  0  0  0  0  0  0
    0.7042    3.5624   24.5149 H   0  0  0  0  0  0  0  0  0  0  0  0
    1.5366    3.5076   21.7016 H   0  0  0  0  0  0  0  0  0  0  0  0
    8.5929    2.4601   17.6547 H   0  0  0  0  0  0  0  0  0  0  0  0
   11.2718    2.6260   16.1598 H   0  0  0  0  0  0  0  0  0  0  0  0
   12.1704   -1.1397   14.2903 H   0  0  0  0  0  0  0  0  0  0  0  0
    9.8889   -1.9910   14.8024 H   0  0  0  0  0  0  0  0  0  0  0  0
    7.4576   -1.0314   16.0268 H   0  0  0  0  0  0  0  0  0  0  0  0
  1  2  2  0
  2  3  1  0
  3  4  1  0
  4  5  1  0
  5  6  1  0
  6  7  1  0
  7  8  1  0
  8  9  1  0
  9 10  1  0
  2 11  1  0
 11 12  2  0
 12 13  1  0
 13 14  2  0
 14 15  1  0
 15 16  1  0
 15 17  2  0
 17 18  1  0
 18 19  2  0
 19 20  1  0
 10  6  1  0
 20 11  1  0
 19 13  1  0
  3 21  1  0
  4 22  1  0
  4 23  1  0
  5 24  1  0
  5 25  1  0
  6 26  1  0
  7 27  1  0
  7 28  1  0
  8 29  1  0
  8 30  1  0
  9 31  1  0
  9 32  1  0
 10 33  1  0
 12 34  1  0
 14 35  1  0
 17 36  1  0
 18 37  1  0
 20 38  1  0
M  END
>  <Energy>  (1101) 
325.60341371466274

>  <compound_id>  (1101) 
4741

>  <target_id>  (1101) 
1

>  <reference_id>  (1101) 
70

>  <inspiration_ids>  (1101) 
[97, 70]

>  <energy_score>  (1101) 
324.43226292970036

>  <distance_score>  (1101) 
5.714873941301414

>  <path>  (1101) 
/opt/xchem-fragalysis-2/maxwin/BulkDock/SCRATCH/511013/C4741-P70/C4741-P70.minimised.mol

>  <scratch_subdir>  (1101) 
/opt/xchem-fragalysis-2/maxwin/BulkDock/SCRATCH/511013/C4741-P70

>  <fragmenstein_runtime>  (1101) 
6.108987092971802

>  <fragmenstein_outcome>  (1101) 
too moved

>  <fragmenstein_mode>  (1101) 
expansion

>  <fragmenstein_error>  (1101) 


$$$$
C4742-P97
     RDKit          3D

 41 43  0  0  0  0  0  0  0  0999 V2000
   12.8785   -2.1118   14.7744 C   0  0  0  0  0  0  0  0  0  0  0  0
   11.6396   -1.3298   15.0801 C   0  0  0  0  0  0  0  0  0  0  0  0
   11.7109    0.0476   15.2757 C   0  0  0  0  0  0  0  0  0  0  0  0
   10.5616    0.7840   15.5729 C   0  0  0  0  0  0  0  0  0  0  0  0
    9.3261    0.1198   15.6707 C   0  0  0  0  0  0  0  0  0  0  0  0
    8.0627    0.4711   16.1856 C   0  0  0  0  0  0  0  0  0  0  0  0
    7.1978   -0.6557   16.2480 C   0  0  0  0  0  0  0  0  0  0  0  0
    6.0176   -0.9029   17.5235 C   0  0  0  0  0  0  0  0  0  0  0  0
    6.4233   -0.4164   18.5550 O   0  0  0  0  0  0  0  0  0  0  0  0
    4.4950   -1.6684   17.2067 N   0  0  0  0  0  0  0  0  0  0  0  0
    3.3007   -1.8254   18.0623 C   0  0  0  0  0  0  0  0  0  0  0  0
    1.4762   -1.4469   17.8523 C   0  0  0  0  0  0  0  0  0  0  0  0
    0.7928   -0.1635   17.3348 C   0  0  0  0  0  0  0  0  0  0  0  0
   -0.0703   -0.1049   16.0928 C   0  0  0  0  0  0  0  0  0  0  0  0
   -0.5748    1.3310   16.1400 C   0  0  0  0  0  0  0  0  0  0  0  0
    0.6066    2.1021   16.7008 C   0  0  0  0  0  0  0  0  0  0  0  0
    1.3773    1.1520   17.5171 N   0  0  0  0  0  0  0  0  0  0  0  0
    7.8742   -1.5597   15.4065 N   0  0  0  0  0  0  0  0  0  0  0  0
    9.2358   -1.2221   15.3682 C   0  0  0  0  0  0  0  0  0  0  0  0
   10.3947   -1.9795   15.1015 C   0  0  0  0  0  0  0  0  0  0  0  0
   12.8827   -3.0435   15.3488 H   0  0  0  0  0  0  0  0  0  0  0  0
   13.7822   -1.5574   15.0483 H   0  0  0  0  0  0  0  0  0  0  0  0
   12.9196   -2.3362   13.7043 H   0  0  0  0  0  0  0  0  0  0  0  0
   12.6674    0.5630   15.2276 H   0  0  0  0  0  0  0  0  0  0  0  0
   10.6342    1.8443   15.7997 H   0  0  0  0  0  0  0  0  0  0  0  0
    7.8797    1.4373   16.6399 H   0  0  0  0  0  0  0  0  0  0  0  0
    4.4899   -2.0444   16.2768 H   0  0  0  0  0  0  0  0  0  0  0  0
    3.0754   -2.8276   17.6573 H   0  0  0  0  0  0  0  0  0  0  0  0
    3.1600   -0.8199   18.1150 H   0  0  0  0  0  0  0  0  0  0  0  0
    1.0003   -2.3345   17.4054 H   0  0  0  0  0  0  0  0  0  0  0  0
    1.1358   -1.4126   18.8875 H   0  0  0  0  0  0  0  0  0  0  0  0
    0.0256   -0.1336   18.0651 H   0  0  0  0  0  0  0  0  0  0  0  0
   -0.8983   -0.8208   16.1147 H   0  0  0  0  0  0  0  0  0  0  0  0
    0.4810   -0.2462   15.1661 H   0  0  0  0  0  0  0  0  0  0  0  0
   -1.4416    1.4047   16.8045 H   0  0  0  0  0  0  0  0  0  0  0  0
   -0.8763    1.6923   15.1522 H   0  0  0  0  0  0  0  0  0  0  0  0
    0.2879    2.9740   17.2804 H   0  0  0  0  0  0  0  0  0  0  0  0
    1.2480    2.4567   15.8866 H   0  0  0  0  0  0  0  0  0  0  0  0
    1.2308    1.4322   18.5001 H   0  0  0  0  0  0  0  0  0  0  0  0
    7.5513   -2.4853   15.1706 H   0  0  0  0  0  0  0  0  0  0  0  0
   10.3359   -3.0408   14.8832 H   0  0  0  0  0  0  0  0  0  0  0  0
  1  2  1  0
  2  3  2  0
  3  4  1  0
  4  5  2  0
  5  6  1  0
  6  7  2  0
  7  8  1  0
  8  9  2  0
  8 10  1  0
 10 11  1  0
 11 12  1  0
 12 13  1  0
 13 14  1  0
 14 15  1  0
 15 16  1  0
 16 17  1  0
  7 18  1  0
 18 19  1  0
 19 20  2  0
 20  2  1  0
 19  5  1  0
 17 13  1  0
  1 21  1  0
  1 22  1  0
  1 23  1  0
  3 24  1  0
  4 25  1  0
  6 26  1  0
 10 27  1  0
 11 28  1  0
 11 29  1  0
 12 30  1  0
 12 31  1  0
 13 32  1  0
 14 33  1  0
 14 34  1  0
 15 35  1  0
 15 36  1  0
 16 37  1  0
 16 38  1  0
 17 39  1  0
 18 40  1  0
 20 41  1  0
M  END
>  <Energy>  (1102) 
196.77908553019293

>  <compound_id>  (1102) 
4742

>  <target_id>  (1102) 
1

>  <reference_id>  (1102) 
97

>  <inspiration_ids>  (1102) 
[97, 70]

>  <energy_score>  (1102) 
187.32384042898946

>  <distance_score>  (1102) 
7.910242350948414

>  <path>  (1102) 
/opt/xchem-fragalysis-2/maxwin/BulkDock/SCRATCH/511013/C4742-P97/C4742-P97.minimised.mol

>  <scratch_subdir>  (1102) 
/opt/xchem-fragalysis-2/maxwin/BulkDock/SCRATCH/511013/C4742-P97

>  <fragmenstein_runtime>  (1102) 
7.357748985290527

>  <fragmenstein_outcome>  (1102) 
too moved

>  <fragmenstein_mode>  (1102) 
expansion

>  <fragmenstein_error>  (1102) 


$$$$
C4742-P70
     RDKit          3D

 41 43  0  0  0  0  0  0  0  0999 V2000
   11.0413   -0.9055   15.1358 C   0  0  0  0  0  0  0  0  0  0  0  0
   10.6351    0.4977   15.4815 C   0  0  0  0  0  0  0  0  0  0  0  0
   11.5931    1.5159   15.4496 C   0  0  0  0  0  0  0  0  0  0  0  0
   11.2625    2.8364   15.7965 C   0  0  0  0  0  0  0  0  0  0  0  0
    9.9459    3.1467   16.1949 C   0  0  0  0  0  0  0  0  0  0  0  0
    9.2750    4.3246   16.6574 C   0  0  0  0  0  0  0  0  0  0  0  0
    7.9611    4.0140   17.0199 C   0  0  0  0  0  0  0  0  0  0  0  0
    6.9857    4.8541   17.7842 C   0  0  0  0  0  0  0  0  0  0  0  0
    7.4624    5.6460   18.5451 O   0  0  0  0  0  0  0  0  0  0  0  0
    5.6072    4.5267   17.5095 N   0  0  0  0  0  0  0  0  0  0  0  0
    4.3462    5.1296   18.0051 C   0  0  0  0  0  0  0  0  0  0  0  0
    4.1850    5.3595   19.5382 C   0  0  0  0  0  0  0  0  0  0  0  0
    2.8257    4.9151   20.1464 C   0  0  0  0  0  0  0  0  0  0  0  0
    1.6662    5.8949   20.0297 C   0  0  0  0  0  0  0  0  0  0  0  0
    0.7074    5.4871   21.1553 C   0  0  0  0  0  0  0  0  0  0  0  0
    1.5143    4.5625   22.0534 C   0  0  0  0  0  0  0  0  0  0  0  0
    2.8915    4.7640   21.6125 N   0  0  0  0  0  0  0  0  0  0  0  0
    7.8341    2.6799   16.6873 N   0  0  0  0  0  0  0  0  0  0  0  0
    9.0151    2.1209   16.2363 C   0  0  0  0  0  0  0  0  0  0  0  0
    9.3211    0.7940   15.8784 C   0  0  0  0  0  0  0  0  0  0  0  0
   11.6958   -1.3076   15.9156 H   0  0  0  0  0  0  0  0  0  0  0  0
   11.5739   -0.9248   14.1796 H   0  0  0  0  0  0  0  0  0  0  0  0
   10.1715   -1.5635   15.0513 H   0  0  0  0  0  0  0  0  0  0  0  0
   12.6180    1.2930   15.1597 H   0  0  0  0  0  0  0  0  0  0  0  0
   12.0241    3.6106   15.7843 H   0  0  0  0  0  0  0  0  0  0  0  0
    9.7372    5.2916   16.8143 H   0  0  0  0  0  0  0  0  0  0  0  0
    5.5712    3.8638   16.7407 H   0  0  0  0  0  0  0  0  0  0  0  0
    3.5474    4.4788   17.6347 H   0  0  0  0  0  0  0  0  0  0  0  0
    4.2491    6.0920   17.4909 H   0  0  0  0  0  0  0  0  0  0  0  0
    4.3411    6.4266   19.7445 H   0  0  0  0  0  0  0  0  0  0  0  0
    5.0067    4.8551   20.0519 H   0  0  0  0  0  0  0  0  0  0  0  0
    2.5235    3.9574   19.7106 H   0  0  0  0  0  0  0  0  0  0  0  0
    1.1821    5.8452   19.0492 H   0  0  0  0  0  0  0  0  0  0  0  0
    2.0006    6.9278   20.1876 H   0  0  0  0  0  0  0  0  0  0  0  0
   -0.1693    4.9684   20.7533 H   0  0  0  0  0  0  0  0  0  0  0  0
    0.3593    6.3746   21.6947 H   0  0  0  0  0  0  0  0  0  0  0  0
    1.2115    3.5205   21.8998 H   0  0  0  0  0  0  0  0  0  0  0  0
    1.3916    4.8046   23.1127 H   0  0  0  0  0  0  0  0  0  0  0  0
    3.4665    3.9354   21.8077 H   0  0  0  0  0  0  0  0  0  0  0  0
    7.0287    2.1161   16.9172 H   0  0  0  0  0  0  0  0  0  0  0  0
    8.5547    0.0277   15.9082 H   0  0  0  0  0  0  0  0  0  0  0  0
  1  2  1  0
  2  3  2  0
  3  4  1  0
  4  5  2  0
  5  6  1  0
  6  7  2  0
  7  8  1  0
  8  9  2  0
  8 10  1  0
 10 11  1  0
 11 12  1  0
 12 13  1  0
 13 14  1  0
 14 15  1  0
 15 16  1  0
 16 17  1  0
  7 18  1  0
 18 19  1  0
 19 20  2  0
 20  2  1  0
 19  5  1  0
 17 13  1  0
  1 21  1  0
  1 22  1  0
  1 23  1  0
  3 24  1  0
  4 25  1  0
  6 26  1  0
 10 27  1  0
 11 28  1  0
 11 29  1  0
 12 30  1  0
 12 31  1  0
 13 32  1  0
 14 33  1  0
 14 34  1  0
 15 35  1  0
 15 36  1  0
 16 37  1  0
 16 38  1  0
 17 39  1  0
 18 40  1  0
 20 41  1  0
M  END
>  <Energy>  (1103) 
4.5452022536617989

>  <compound_id>  (1103) 
4742

>  <target_id>  (1103) 
1

>  <reference_id>  (1103) 
70

>  <inspiration_ids>  (1103) 
[97, 70]

>  <energy_score>  (1103) 
-4.910042847549448

>  <distance_score>  (1103) 
7.008955832386789

>  <path>  (1103) 
/opt/xchem-fragalysis-2/maxwin/BulkDock/SCRATCH/511013/C4742-P70/C4742-P70.minimised.mol

>  <scratch_subdir>  (1103) 
/opt/xchem-fragalysis-2/maxwin/BulkDock/SCRATCH/511013/C4742-P70

>  <fragmenstein_runtime>  (1103) 
6.527935981750488

>  <fragmenstein_outcome>  (1103) 
too moved

>  <fragmenstein_mode>  (1103) 
expansion

>  <fragmenstein_error>  (1103) 


$$$$
C4743-P97
     RDKit          3D

 43 46  0  0  0  0  0  0  0  0999 V2000
    5.1434    7.5318   20.2581 O   0  0  0  0  0  0  0  0  0  0  0  0
    5.0854    6.3493   20.0951 C   0  0  0  0  0  0  0  0  0  0  0  0
    4.2191    5.3604   20.6894 N   0  0  0  0  0  0  0  0  0  0  0  0
    3.2007    5.4776   21.7551 C   0  0  0  0  0  0  0  0  0  0  0  0
    1.8974    4.6786   21.5304 C   0  0  0  0  0  0  0  0  0  0  0  0
    1.1315    4.2840   22.7638 C   0  0  0  0  0  0  0  0  0  0  0  0
    1.4811    4.1557   24.0288 N   0  0  0  0  0  0  0  0  0  0  0  0
    0.3372    3.6357   24.6178 C   0  0  0  0  0  0  0  0  0  0  0  0
    0.2312    3.3367   26.0905 C   0  0  0  0  0  0  0  0  0  0  0  0
    1.4372    2.6000   26.6738 C   0  0  0  0  0  0  0  0  0  0  0  0
    0.8666    1.6291   27.7046 C   0  0  0  0  0  0  0  0  0  0  0  0
   -0.6141    1.9486   27.7641 C   0  0  0  0  0  0  0  0  0  0  0  0
   -0.9046    2.4380   26.4201 N   0  0  0  0  0  0  0  0  0  0  0  0
   -0.6841    3.4594   23.7634 N   0  0  0  0  0  0  0  0  0  0  0  0
   -0.1637    3.8882   22.5423 O   0  0  0  0  0  0  0  0  0  0  0  0
    6.1318    5.7540   19.2100 C   0  0  0  0  0  0  0  0  0  0  0  0
    7.5054    6.0075   19.2492 C   0  0  0  0  0  0  0  0  0  0  0  0
    8.1716    5.2755   18.2223 C   0  0  0  0  0  0  0  0  0  0  0  0
    9.5231    5.1076   17.8343 C   0  0  0  0  0  0  0  0  0  0  0  0
    9.8455    4.2196   16.7989 C   0  0  0  0  0  0  0  0  0  0  0  0
    8.8385    3.5248   16.1369 C   0  0  0  0  0  0  0  0  0  0  0  0
    7.4889    3.7148   16.4731 C   0  0  0  0  0  0  0  0  0  0  0  0
    7.1808    4.5894   17.5285 C   0  0  0  0  0  0  0  0  0  0  0  0
    5.9641    4.9431   18.0955 N   0  0  0  0  0  0  0  0  0  0  0  0
    4.5069    4.4409   20.3804 H   0  0  0  0  0  0  0  0  0  0  0  0
    2.9770    6.5411   21.8933 H   0  0  0  0  0  0  0  0  0  0  0  0
    3.7021    5.1365   22.6674 H   0  0  0  0  0  0  0  0  0  0  0  0
    1.2423    5.2722   20.8803 H   0  0  0  0  0  0  0  0  0  0  0  0
    2.1069    3.7602   20.9732 H   0  0  0  0  0  0  0  0  0  0  0  0
    0.0933    4.2880   26.6218 H   0  0  0  0  0  0  0  0  0  0  0  0
    2.0101    2.0513   25.9177 H   0  0  0  0  0  0  0  0  0  0  0  0
    2.1253    3.3083   27.1496 H   0  0  0  0  0  0  0  0  0  0  0  0
    1.3480    1.7406   28.6812 H   0  0  0  0  0  0  0  0  0  0  0  0
    1.0247    0.5974   27.3691 H   0  0  0  0  0  0  0  0  0  0  0  0
   -1.2160    1.0704   28.0144 H   0  0  0  0  0  0  0  0  0  0  0  0
   -0.8119    2.7296   28.5071 H   0  0  0  0  0  0  0  0  0  0  0  0
   -1.7662    2.9870   26.4084 H   0  0  0  0  0  0  0  0  0  0  0  0
    7.9808    6.6528   19.9770 H   0  0  0  0  0  0  0  0  0  0  0  0
   10.3082    5.6331   18.3683 H   0  0  0  0  0  0  0  0  0  0  0  0
   10.8852    4.0701   16.5241 H   0  0  0  0  0  0  0  0  0  0  0  0
    9.1073    2.8286   15.3504 H   0  0  0  0  0  0  0  0  0  0  0  0
    6.7026    3.1765   15.9594 H   0  0  0  0  0  0  0  0  0  0  0  0
    5.0711    4.6380   17.7377 H   0  0  0  0  0  0  0  0  0  0  0  0
  1  2  2  0
  2  3  1  0
  3  4  1  0
  4  5  1  0
  5  6  1  0
  6  7  2  0
  7  8  1  0
  8  9  1  0
  9 10  1  0
 10 11  1  0
 11 12  1  0
 12 13  1  0
  8 14  2  0
 14 15  1  0
  2 16  1  0
 16 17  2  0
 17 18  1  0
 18 19  2  0
 19 20  1  0
 20 21  2  0
 21 22  1  0
 22 23  2  0
 23 24  1  0
 15  6  1  0
 24 16  1  0
 13  9  1  0
 23 18  1  0
  3 25  1  0
  4 26  1  0
  4 27  1  0
  5 28  1  0
  5 29  1  0
  9 30  1  0
 10 31  1  0
 10 32  1  0
 11 33  1  0
 11 34  1  0
 12 35  1  0
 12 36  1  0
 13 37  1  0
 17 38  1  0
 19 39  1  0
 20 40  1  0
 21 41  1  0
 22 42  1  0
 24 43  1  0
M  END
>  <Energy>  (1104) 
37.71566731396824

>  <compound_id>  (1104) 
4743

>  <target_id>  (1104) 
1

>  <reference_id>  (1104) 
97

>  <inspiration_ids>  (1104) 
[97, 70]

>  <energy_score>  (1104) 
-13.199541693018887

>  <distance_score>  (1104) 
7.050403693522579

>  <path>  (1104) 
/opt/xchem-fragalysis-2/maxwin/BulkDock/SCRATCH/511013/C4743-P97/C4743-P97.minimised.mol

>  <scratch_subdir>  (1104) 
/opt/xchem-fragalysis-2/maxwin/BulkDock/SCRATCH/511013/C4743-P97

>  <fragmenstein_runtime>  (1104) 
10.309605598449707

>  <fragmenstein_outcome>  (1104) 
too moved

>  <fragmenstein_mode>  (1104) 
expansion

>  <fragmenstein_error>  (1104) 


$$$$
C4743-P70
     RDKit          3D

 43 46  0  0  0  0  0  0  0  0999 V2000
    7.2836    2.4505   18.7831 O   0  0  0  0  0  0  0  0  0  0  0  0
    7.4269    1.2513   18.8457 C   0  0  0  0  0  0  0  0  0  0  0  0
    6.6501    0.1145   20.0108 N   0  0  0  0  0  0  0  0  0  0  0  0
    5.1929    0.4562   21.4553 C   0  0  0  0  0  0  0  0  0  0  0  0
    3.4429    1.4634   21.7901 C   0  0  0  0  0  0  0  0  0  0  0  0
    2.9728    2.3043   23.1375 C   0  0  0  0  0  0  0  0  0  0  0  0
    2.7442    1.9124   24.3865 N   0  0  0  0  0  0  0  0  0  0  0  0
    1.9818    2.9183   24.9326 C   0  0  0  0  0  0  0  0  0  0  0  0
    1.2686    2.7490   26.2480 C   0  0  0  0  0  0  0  0  0  0  0  0
    1.9529    1.8309   27.2532 C   0  0  0  0  0  0  0  0  0  0  0  0
    1.3425    2.2264   28.5943 C   0  0  0  0  0  0  0  0  0  0  0  0
    0.6752    3.5731   28.3450 C   0  0  0  0  0  0  0  0  0  0  0  0
    1.1636    3.9886   27.0325 N   0  0  0  0  0  0  0  0  0  0  0  0
    1.7166    3.9128   24.0734 N   0  0  0  0  0  0  0  0  0  0  0  0
    2.3834    3.5285   22.8972 O   0  0  0  0  0  0  0  0  0  0  0  0
    8.4034    0.7270   17.5167 C   0  0  0  0  0  0  0  0  0  0  0  0
    9.2735    1.6579   16.8637 C   0  0  0  0  0  0  0  0  0  0  0  0
   10.1228    0.9266   16.0010 C   0  0  0  0  0  0  0  0  0  0  0  0
   11.4092    1.1226   15.4657 C   0  0  0  0  0  0  0  0  0  0  0  0
   12.0343    0.0561   14.8151 C   0  0  0  0  0  0  0  0  0  0  0  0
   11.3603   -1.1459   14.6359 C   0  0  0  0  0  0  0  0  0  0  0  0
   10.0344   -1.3047   15.0650 C   0  0  0  0  0  0  0  0  0  0  0  0
    9.4466   -0.2591   15.7738 C   0  0  0  0  0  0  0  0  0  0  0  0
    8.2127   -0.0788   16.3861 N   0  0  0  0  0  0  0  0  0  0  0  0
    6.8890   -0.8340   19.7728 H   0  0  0  0  0  0  0  0  0  0  0  0
    5.8527    1.0777   22.0567 H   0  0  0  0  0  0  0  0  0  0  0  0
    4.8678   -0.5267   21.8515 H   0  0  0  0  0  0  0  0  0  0  0  0
    2.5380    1.0008   21.5148 H   0  0  0  0  0  0  0  0  0  0  0  0
    3.0669    2.1872   21.0117 H   0  0  0  0  0  0  0  0  0  0  0  0
    0.2583    2.3734   26.0344 H   0  0  0  0  0  0  0  0  0  0  0  0
    1.7925    0.7697   27.0449 H   0  0  0  0  0  0  0  0  0  0  0  0
    3.0375    2.0009   27.2756 H   0  0  0  0  0  0  0  0  0  0  0  0
    2.1197    2.2943   29.3629 H   0  0  0  0  0  0  0  0  0  0  0  0
    0.6035    1.4872   28.9222 H   0  0  0  0  0  0  0  0  0  0  0  0
   -0.4152    3.4609   28.3287 H   0  0  0  0  0  0  0  0  0  0  0  0
    0.9316    4.3056   29.1158 H   0  0  0  0  0  0  0  0  0  0  0  0
    0.5257    4.6433   26.5812 H   0  0  0  0  0  0  0  0  0  0  0  0
    9.4507    2.6697   17.2035 H   0  0  0  0  0  0  0  0  0  0  0  0
   11.9423    2.0533   15.6358 H   0  0  0  0  0  0  0  0  0  0  0  0
   13.0469    0.1719   14.4382 H   0  0  0  0  0  0  0  0  0  0  0  0
   11.8399   -1.9560   14.0906 H   0  0  0  0  0  0  0  0  0  0  0  0
    9.5040   -2.2135   14.8123 H   0  0  0  0  0  0  0  0  0  0  0  0
    7.3582   -0.5677   16.1748 H   0  0  0  0  0  0  0  0  0  0  0  0
  1  2  2  0
  2  3  1  0
  3  4  1  0
  4  5  1  0
  5  6  1  0
  6  7  2  0
  7  8  1  0
  8  9  1  0
  9 10  1  0
 10 11  1  0
 11 12  1  0
 12 13  1  0
  8 14  2  0
 14 15  1  0
  2 16  1  0
 16 17  2  0
 17 18  1  0
 18 19  2  0
 19 20  1  0
 20 21  2  0
 21 22  1  0
 22 23  2  0
 23 24  1  0
 15  6  1  0
 24 16  1  0
 13  9  1  0
 23 18  1  0
  3 25  1  0
  4 26  1  0
  4 27  1  0
  5 28  1  0
  5 29  1  0
  9 30  1  0
 10 31  1  0
 10 32  1  0
 11 33  1  0
 11 34  1  0
 12 35  1  0
 12 36  1  0
 13 37  1  0
 17 38  1  0
 19 39  1  0
 20 40  1  0
 21 41  1  0
 22 42  1  0
 24 43  1  0
M  END
>  <Energy>  (1105) 
366.35154937462721

>  <compound_id>  (1105) 
4743

>  <target_id>  (1105) 
1

>  <reference_id>  (1105) 
70

>  <inspiration_ids>  (1105) 
[97, 70]

>  <energy_score>  (1105) 
315.43634036763814

>  <distance_score>  (1105) 
5.09302058969656

>  <path>  (1105) 
/opt/xchem-fragalysis-2/maxwin/BulkDock/SCRATCH/511013/C4743-P70/C4743-P70.minimised.mol

>  <scratch_subdir>  (1105) 
/opt/xchem-fragalysis-2/maxwin/BulkDock/SCRATCH/511013/C4743-P70

>  <fragmenstein_runtime>  (1105) 
9.316340208053589

>  <fragmenstein_outcome>  (1105) 
too moved

>  <fragmenstein_mode>  (1105) 
expansion

>  <fragmenstein_error>  (1105) 


$$$$
C4744-P97
     RDKit          3D

 45 48  0  0  0  0  0  0  0  0999 V2000
    6.5945    1.6564   19.1761 O   0  0  0  0  0  0  0  0  0  0  0  0
    6.2896    0.4615   19.4150 C   0  0  0  0  0  0  0  0  0  0  0  0
    5.2617   -0.0014   20.9206 N   0  0  0  0  0  0  0  0  0  0  0  0
    4.4171    0.9481   22.0936 C   0  0  0  0  0  0  0  0  0  0  0  0
    2.7667    2.0889   22.3223 C   0  0  0  0  0  0  0  0  0  0  0  0
    2.2835    2.8552   23.6581 C   0  0  0  0  0  0  0  0  0  0  0  0
    0.9812    3.6762   23.4531 C   0  0  0  0  0  0  0  0  0  0  0  0
    0.2803    3.6858   24.8117 C   0  0  0  0  0  0  0  0  0  0  0  0
    1.2799    3.0595   25.7622 C   0  0  0  0  0  0  0  0  0  0  0  0
    1.9956    2.1386   24.8917 N   0  0  0  0  0  0  0  0  0  0  0  0
    6.8133   -0.5351   17.9860 C   0  0  0  0  0  0  0  0  0  0  0  0
    7.9363    0.5580   17.0277 C   0  0  0  0  0  0  0  0  0  0  0  0
    8.9444    0.0587   16.2256 C   0  0  0  0  0  0  0  0  0  0  0  0
   10.1757    0.3709   15.6315 C   0  0  0  0  0  0  0  0  0  0  0  0
   10.6423    1.7815   15.4448 C   0  0  0  0  0  0  0  0  0  0  0  0
   10.8640    2.7849   16.5380 C   0  0  0  0  0  0  0  0  0  0  0  0
   12.0455    2.1748   15.8490 C   0  0  0  0  0  0  0  0  0  0  0  0
   10.8584   -0.7515   15.1599 C   0  0  0  0  0  0  0  0  0  0  0  0
   10.1777   -1.9516   14.9807 C   0  0  0  0  0  0  0  0  0  0  0  0
    8.7645   -1.9907   15.0783 C   0  0  0  0  0  0  0  0  0  0  0  0
    8.2216   -1.0247   15.8854 C   0  0  0  0  0  0  0  0  0  0  0  0
    6.9379   -0.6453   16.3662 N   0  0  0  0  0  0  0  0  0  0  0  0
    5.2130   -1.0227   20.9828 H   0  0  0  0  0  0  0  0  0  0  0  0
    3.6641    0.5915   21.4629 H   0  0  0  0  0  0  0  0  0  0  0  0
    4.4446    0.3934   23.0692 H   0  0  0  0  0  0  0  0  0  0  0  0
    2.0207    1.6522   21.6660 H   0  0  0  0  0  0  0  0  0  0  0  0
    2.7043    3.0318   21.7374 H   0  0  0  0  0  0  0  0  0  0  0  0
    3.0219    3.6351   23.8899 H   0  0  0  0  0  0  0  0  0  0  0  0
    0.3175    3.2611   22.6878 H   0  0  0  0  0  0  0  0  0  0  0  0
    1.2265    4.6993   23.1439 H   0  0  0  0  0  0  0  0  0  0  0  0
   -0.6313    3.0784   24.7576 H   0  0  0  0  0  0  0  0  0  0  0  0
   -0.0056    4.6961   25.1197 H   0  0  0  0  0  0  0  0  0  0  0  0
    0.7885    2.5403   26.5896 H   0  0  0  0  0  0  0  0  0  0  0  0
    1.9604    3.8132   26.1743 H   0  0  0  0  0  0  0  0  0  0  0  0
    2.8292    1.7451   25.3182 H   0  0  0  0  0  0  0  0  0  0  0  0
    7.9637    1.6358   17.2614 H   0  0  0  0  0  0  0  0  0  0  0  0
   10.2999    2.2163   14.5047 H   0  0  0  0  0  0  0  0  0  0  0  0
   10.6245    3.8214   16.3226 H   0  0  0  0  0  0  0  0  0  0  0  0
   10.6894    2.5246   17.5671 H   0  0  0  0  0  0  0  0  0  0  0  0
   12.6120    2.7956   15.1641 H   0  0  0  0  0  0  0  0  0  0  0  0
   12.6512    1.4748   16.4119 H   0  0  0  0  0  0  0  0  0  0  0  0
   11.8799   -0.6624   14.7993 H   0  0  0  0  0  0  0  0  0  0  0  0
   10.7050   -2.7889   14.5253 H   0  0  0  0  0  0  0  0  0  0  0  0
    8.1789   -2.8049   14.6896 H   0  0  0  0  0  0  0  0  0  0  0  0
    6.4985    0.1781   15.9813 H   0  0  0  0  0  0  0  0  0  0  0  0
  1  2  2  0
  2  3  1  0
  3  4  1  0
  4  5  1  0
  5  6  1  0
  6  7  1  0
  7  8  1  0
  8  9  1  0
  9 10  1  0
  2 11  1  0
 11 12  2  0
 12 13  1  0
 13 14  2  0
 14 15  1  0
 15 16  1  0
 16 17  1  0
 14 18  1  0
 18 19  2  0
 19 20  1  0
 20 21  2  0
 21 22  1  0
 10  6  1  0
 22 11  1  0
 21 13  1  0
 17 15  1  0
  3 23  1  0
  4 24  1  0
  4 25  1  0
  5 26  1  0
  5 27  1  0
  6 28  1  0
  7 29  1  0
  7 30  1  0
  8 31  1  0
  8 32  1  0
  9 33  1  0
  9 34  1  0
 10 35  1  0
 12 36  1  0
 15 37  1  0
 16 38  1  0
 16 39  1  0
 17 40  1  0
 17 41  1  0
 18 42  1  0
 19 43  1  0
 20 44  1  0
 22 45  1  0
M  END
>  <Energy>  (1106) 
487.05492899945125

>  <compound_id>  (1106) 
4744

>  <target_id>  (1106) 
1

>  <reference_id>  (1106) 
97

>  <inspiration_ids>  (1106) 
[97, 70]

>  <energy_score>  (1106) 
462.75974936787077

>  <distance_score>  (1106) 
5.272566068018746

>  <path>  (1106) 
/opt/xchem-fragalysis-2/maxwin/BulkDock/SCRATCH/511013/C4744-P97/C4744-P97.minimised.mol

>  <scratch_subdir>  (1106) 
/opt/xchem-fragalysis-2/maxwin/BulkDock/SCRATCH/511013/C4744-P97

>  <fragmenstein_runtime>  (1106) 
7.064527750015259

>  <fragmenstein_outcome>  (1106) 
too moved

>  <fragmenstein_mode>  (1106) 
expansion

>  <fragmenstein_error>  (1106) 


$$$$
C4744-P70
     RDKit          3D

 45 48  0  0  0  0  0  0  0  0999 V2000
    7.2825    2.4462   18.7844 O   0  0  0  0  0  0  0  0  0  0  0  0
    7.4240    1.2472   18.8490 C   0  0  0  0  0  0  0  0  0  0  0  0
    6.6348    0.1151   20.0152 N   0  0  0  0  0  0  0  0  0  0  0  0
    5.1647    0.4677   21.4533 C   0  0  0  0  0  0  0  0  0  0  0  0
    3.4251    1.4943   21.8082 C   0  0  0  0  0  0  0  0  0  0  0  0
    2.9452    2.6558   23.0007 C   0  0  0  0  0  0  0  0  0  0  0  0
    2.4767    2.3483   24.4438 C   0  0  0  0  0  0  0  0  0  0  0  0
    2.8035    3.5896   25.2759 C   0  0  0  0  0  0  0  0  0  0  0  0
    3.0976    4.6509   24.2404 C   0  0  0  0  0  0  0  0  0  0  0  0
    3.7602    3.8778   23.1971 N   0  0  0  0  0  0  0  0  0  0  0  0
    8.4086    0.7204   17.5225 C   0  0  0  0  0  0  0  0  0  0  0  0
    9.2668    1.6602   16.8623 C   0  0  0  0  0  0  0  0  0  0  0  0
   10.1244    0.9492   15.9813 C   0  0  0  0  0  0  0  0  0  0  0  0
   11.3932    1.1856   15.3933 C   0  0  0  0  0  0  0  0  0  0  0  0
   11.9938    2.5561   15.5363 C   0  0  0  0  0  0  0  0  0  0  0  0
   12.6979    2.9436   16.8148 C   0  0  0  0  0  0  0  0  0  0  0  0
   13.4899    2.7750   15.5562 C   0  0  0  0  0  0  0  0  0  0  0  0
   12.0014    0.1069   14.7295 C   0  0  0  0  0  0  0  0  0  0  0  0
   11.3585   -1.1189   14.6026 C   0  0  0  0  0  0  0  0  0  0  0  0
   10.0524   -1.2970   15.0697 C   0  0  0  0  0  0  0  0  0  0  0  0
    9.4641   -0.2520   15.7769 C   0  0  0  0  0  0  0  0  0  0  0  0
    8.2279   -0.0845   16.3910 N   0  0  0  0  0  0  0  0  0  0  0  0
    6.8722   -0.8351   19.7816 H   0  0  0  0  0  0  0  0  0  0  0  0
    5.8194    1.0986   22.0556 H   0  0  0  0  0  0  0  0  0  0  0  0
    4.8680   -0.5130   21.8844 H   0  0  0  0  0  0  0  0  0  0  0  0
    3.0836    2.1230   20.9426 H   0  0  0  0  0  0  0  0  0  0  0  0
    2.5133    1.0294   21.5624 H   0  0  0  0  0  0  0  0  0  0  0  0
    2.0339    3.0488   22.5149 H   0  0  0  0  0  0  0  0  0  0  0  0
    2.9212    1.4571   24.8870 H   0  0  0  0  0  0  0  0  0  0  0  0
    1.3886    2.2611   24.4957 H   0  0  0  0  0  0  0  0  0  0  0  0
    3.6846    3.4044   25.9014 H   0  0  0  0  0  0  0  0  0  0  0  0
    1.9794    3.8734   25.9380 H   0  0  0  0  0  0  0  0  0  0  0  0
    3.7452    5.4395   24.6330 H   0  0  0  0  0  0  0  0  0  0  0  0
    2.1753    5.1079   23.8637 H   0  0  0  0  0  0  0  0  0  0  0  0
    3.8221    4.3785   22.3065 H   0  0  0  0  0  0  0  0  0  0  0  0
    9.4274    2.6765   17.1976 H   0  0  0  0  0  0  0  0  0  0  0  0
   11.4206    3.3493   15.0571 H   0  0  0  0  0  0  0  0  0  0  0  0
   12.5303    3.9450   17.1953 H   0  0  0  0  0  0  0  0  0  0  0  0
   12.8270    2.2012   17.5932 H   0  0  0  0  0  0  0  0  0  0  0  0
   13.8745    3.6680   15.0768 H   0  0  0  0  0  0  0  0  0  0  0  0
   14.1620    1.9270   15.5071 H   0  0  0  0  0  0  0  0  0  0  0  0
   12.9839    0.2337   14.2829 H   0  0  0  0  0  0  0  0  0  0  0  0
   11.8382   -1.9237   14.0500 H   0  0  0  0  0  0  0  0  0  0  0  0
    9.5319   -2.2167   14.8358 H   0  0  0  0  0  0  0  0  0  0  0  0
    7.3781   -0.5784   16.1722 H   0  0  0  0  0  0  0  0  0  0  0  0
  1  2  2  0
  2  3  1  0
  3  4  1  0
  4  5  1  0
  5  6  1  0
  6  7  1  0
  7  8  1  0
  8  9  1  0
  9 10  1  0
  2 11  1  0
 11 12  2  0
 12 13  1  0
 13 14  2  0
 14 15  1  0
 15 16  1  0
 16 17  1  0
 14 18  1  0
 18 19  2  0
 19 20  1  0
 20 21  2  0
 21 22  1  0
 10  6  1  0
 22 11  1  0
 21 13  1  0
 17 15  1  0
  3 23  1  0
  4 24  1  0
  4 25  1  0
  5 26  1  0
  5 27  1  0
  6 28  1  0
  7 29  1  0
  7 30  1  0
  8 31  1  0
  8 32  1  0
  9 33  1  0
  9 34  1  0
 10 35  1  0
 12 36  1  0
 15 37  1  0
 16 38  1  0
 16 39  1  0
 17 40  1  0
 17 41  1  0
 18 42  1  0
 19 43  1  0
 20 44  1  0
 22 45  1  0
M  END
>  <Energy>  (1107) 
362.10461660181841

>  <compound_id>  (1107) 
4744

>  <target_id>  (1107) 
1

>  <reference_id>  (1107) 
70

>  <inspiration_ids>  (1107) 
[97, 70]

>  <energy_score>  (1107) 
337.80943697022695

>  <distance_score>  (1107) 
5.682732219966294

>  <path>  (1107) 
/opt/xchem-fragalysis-2/maxwin/BulkDock/SCRATCH/511013/C4744-P70/C4744-P70.minimised.mol

>  <scratch_subdir>  (1107) 
/opt/xchem-fragalysis-2/maxwin/BulkDock/SCRATCH/511013/C4744-P70

>  <fragmenstein_runtime>  (1107) 
6.5530383586883545

>  <fragmenstein_outcome>  (1107) 
too moved

>  <fragmenstein_mode>  (1107) 
expansion

>  <fragmenstein_error>  (1107) 


$$$$
C4755-P97
     RDKit          3D

 42 44  0  0  0  0  0  0  0  0999 V2000
   12.3183    2.4512   14.7077 C   0  0  0  0  0  0  0  0  0  0  0  0
   11.1481    1.6329   15.1046 C   0  0  0  0  0  0  0  0  0  0  0  0
   10.8009    0.3334   14.7898 C   0  0  0  0  0  0  0  0  0  0  0  0
    9.5695    0.0605   15.4310 C   0  0  0  0  0  0  0  0  0  0  0  0
    8.6111   -0.9360   15.4153 C   0  0  0  0  0  0  0  0  0  0  0  0
    7.3977   -0.8781   16.2250 C   0  0  0  0  0  0  0  0  0  0  0  0
    7.1546   -0.1135   17.4292 C   0  0  0  0  0  0  0  0  0  0  0  0
    6.1826    0.1636   19.3393 C   0  0  0  0  0  0  0  0  0  0  0  0
    4.8086    0.4724   20.9815 N   0  0  0  0  0  0  0  0  0  0  0  0
    3.0661    1.4429   21.4288 C   0  0  0  0  0  0  0  0  0  0  0  0
    2.1371    2.7205   20.3950 C   0  0  0  0  0  0  0  0  0  0  0  0
    2.5117    2.5530   22.8645 C   0  0  0  0  0  0  0  0  0  0  0  0
    2.7908    4.0959   22.9752 C   0  0  0  0  0  0  0  0  0  0  0  0
    2.8158    4.3880   24.4750 C   0  0  0  0  0  0  0  0  0  0  0  0
    2.0899    3.2302   25.1269 C   0  0  0  0  0  0  0  0  0  0  0  0
    2.2692    2.0824   24.2566 N   0  0  0  0  0  0  0  0  0  0  0  0
    8.0408    1.1576   16.9510 C   0  0  0  0  0  0  0  0  0  0  0  0
    9.2025    1.1720   16.1404 C   0  0  0  0  0  0  0  0  0  0  0  0
   10.1374    2.1452   15.8882 N   0  0  0  0  0  0  0  0  0  0  0  0
   12.0015    3.3059   14.1016 H   0  0  0  0  0  0  0  0  0  0  0  0
   13.0277    1.8613   14.1186 H   0  0  0  0  0  0  0  0  0  0  0  0
   12.8426    2.8275   15.5919 H   0  0  0  0  0  0  0  0  0  0  0  0
   11.3467   -0.3319   14.1325 H   0  0  0  0  0  0  0  0  0  0  0  0
    8.7096   -1.7623   14.7168 H   0  0  0  0  0  0  0  0  0  0  0  0
    6.8030   -1.5916   15.6930 H   0  0  0  0  0  0  0  0  0  0  0  0
    6.8580   -0.4753   19.9930 H   0  0  0  0  0  0  0  0  0  0  0  0
    5.7120   -0.4850   18.4526 H   0  0  0  0  0  0  0  0  0  0  0  0
    4.6487   -0.4106   21.4869 H   0  0  0  0  0  0  0  0  0  0  0  0
    2.2200    0.8860   21.2305 H   0  0  0  0  0  0  0  0  0  0  0  0
    1.2038    3.0235   20.8807 H   0  0  0  0  0  0  0  0  0  0  0  0
    1.7363    2.3403   19.4545 H   0  0  0  0  0  0  0  0  0  0  0  0
    2.6766    3.6606   20.2168 H   0  0  0  0  0  0  0  0  0  0  0  0
    1.4713    2.7092   22.5910 H   0  0  0  0  0  0  0  0  0  0  0  0
    3.6920    4.4724   22.4860 H   0  0  0  0  0  0  0  0  0  0  0  0
    1.9592    4.6623   22.5322 H   0  0  0  0  0  0  0  0  0  0  0  0
    3.8518    4.4355   24.8292 H   0  0  0  0  0  0  0  0  0  0  0  0
    2.3478    5.3499   24.7074 H   0  0  0  0  0  0  0  0  0  0  0  0
    2.4544    3.0331   26.1394 H   0  0  0  0  0  0  0  0  0  0  0  0
    1.0197    3.4550   25.1991 H   0  0  0  0  0  0  0  0  0  0  0  0
    3.0237    1.4325   24.4822 H   0  0  0  0  0  0  0  0  0  0  0  0
    7.7708    2.1421   17.3566 H   0  0  0  0  0  0  0  0  0  0  0  0
   10.1054    3.0794   16.2761 H   0  0  0  0  0  0  0  0  0  0  0  0
  1  2  1  0
  2  3  2  0
  3  4  1  0
  4  5  2  0
  5  6  1  0
  6  7  2  0
  7  8  1  0
  8  9  1  0
  9 10  1  0
 10 11  1  0
 10 12  1  0
 12 13  1  0
 13 14  1  0
 14 15  1  0
 15 16  1  0
  7 17  1  0
 17 18  2  0
 18 19  1  0
 19  2  1  0
 18  4  1  0
 16 12  1  0
  1 20  1  0
  1 21  1  0
  1 22  1  0
  3 23  1  0
  5 24  1  0
  6 25  1  0
  8 26  1  0
  8 27  1  0
  9 28  1  0
 10 29  1  0
 11 30  1  0
 11 31  1  0
 11 32  1  0
 12 33  1  0
 13 34  1  0
 13 35  1  0
 14 36  1  0
 14 37  1  0
 15 38  1  0
 15 39  1  0
 16 40  1  0
 17 41  1  0
 19 42  1  0
M  END
>  <Energy>  (1108) 
791.79427019976799

>  <compound_id>  (1108) 
4755

>  <target_id>  (1108) 
1

>  <reference_id>  (1108) 
97

>  <inspiration_ids>  (1108) 
[97, 70]

>  <energy_score>  (1108) 
727.2307375912503

>  <distance_score>  (1108) 
5.59036068358899

>  <path>  (1108) 
/opt/xchem-fragalysis-2/maxwin/BulkDock/SCRATCH/511013/C4755-P97/C4755-P97.minimised.mol

>  <scratch_subdir>  (1108) 
/opt/xchem-fragalysis-2/maxwin/BulkDock/SCRATCH/511013/C4755-P97

>  <fragmenstein_runtime>  (1108) 
7.365190267562866

>  <fragmenstein_outcome>  (1108) 
too moved

>  <fragmenstein_mode>  (1108) 
expansion

>  <fragmenstein_error>  (1108) 


$$$$
C4755-P70
     RDKit          3D

 42 44  0  0  0  0  0  0  0  0999 V2000
   10.0868    4.9476   14.9288 C   0  0  0  0  0  0  0  0  0  0  0  0
    9.5742    3.7379   15.6136 C   0  0  0  0  0  0  0  0  0  0  0  0
    9.8760    2.4029   15.4469 C   0  0  0  0  0  0  0  0  0  0  0  0
    9.0736    1.6826   16.3620 C   0  0  0  0  0  0  0  0  0  0  0  0
    8.8016    0.3682   16.6240 C   0  0  0  0  0  0  0  0  0  0  0  0
    7.9054    0.0181   17.8104 C   0  0  0  0  0  0  0  0  0  0  0  0
    7.2996    0.6930   19.0216 C   0  0  0  0  0  0  0  0  0  0  0  0
    6.5926    0.0255   20.6217 C   0  0  0  0  0  0  0  0  0  0  0  0
    4.9621    0.6372   21.6917 N   0  0  0  0  0  0  0  0  0  0  0  0
    3.3342    1.7038   21.9724 C   0  0  0  0  0  0  0  0  0  0  0  0
    2.5134    2.9326   21.0584 C   0  0  0  0  0  0  0  0  0  0  0  0
    2.8755    2.5048   23.5403 C   0  0  0  0  0  0  0  0  0  0  0  0
    1.5340    3.3050   23.7498 C   0  0  0  0  0  0  0  0  0  0  0  0
    1.1029    3.1076   25.2004 C   0  0  0  0  0  0  0  0  0  0  0  0
    2.2709    2.4444   25.8809 C   0  0  0  0  0  0  0  0  0  0  0  0
    3.0288    1.8186   24.8278 N   0  0  0  0  0  0  0  0  0  0  0  0
    7.6047    2.1841   18.3825 C   0  0  0  0  0  0  0  0  0  0  0  0
    8.3515    2.5674   17.1264 C   0  0  0  0  0  0  0  0  0  0  0  0
    8.6029    3.8155   16.5886 N   0  0  0  0  0  0  0  0  0  0  0  0
   10.4693    5.6708   15.6560 H   0  0  0  0  0  0  0  0  0  0  0  0
    9.2908    5.4254   14.3487 H   0  0  0  0  0  0  0  0  0  0  0  0
   10.9012    4.6941   14.2426 H   0  0  0  0  0  0  0  0  0  0  0  0
   10.5659    1.9907   14.7222 H   0  0  0  0  0  0  0  0  0  0  0  0
    9.0624   -0.3989   15.8964 H   0  0  0  0  0  0  0  0  0  0  0  0
    7.0819   -0.3338   17.0943 H   0  0  0  0  0  0  0  0  0  0  0  0
    7.3111    0.7720   21.0294 H   0  0  0  0  0  0  0  0  0  0  0  0
    6.9330   -0.9917   20.7382 H   0  0  0  0  0  0  0  0  0  0  0  0
    4.6475   -0.1645   22.2628 H   0  0  0  0  0  0  0  0  0  0  0  0
    2.5777    1.0789   21.6197 H   0  0  0  0  0  0  0  0  0  0  0  0
    1.4914    3.0333   21.4160 H   0  0  0  0  0  0  0  0  0  0  0  0
    2.2980    2.6816   20.0307 H   0  0  0  0  0  0  0  0  0  0  0  0
    2.9647    3.9283   21.1424 H   0  0  0  0  0  0  0  0  0  0  0  0
    3.5589    3.3651   23.5513 H   0  0  0  0  0  0  0  0  0  0  0  0
    1.7168    4.3738   23.5740 H   0  0  0  0  0  0  0  0  0  0  0  0
    0.6816    3.0349   23.1255 H   0  0  0  0  0  0  0  0  0  0  0  0
    0.8359    4.0573   25.6751 H   0  0  0  0  0  0  0  0  0  0  0  0
    0.2182    2.4638   25.2404 H   0  0  0  0  0  0  0  0  0  0  0  0
    2.8954    3.1970   26.3751 H   0  0  0  0  0  0  0  0  0  0  0  0
    1.9537    1.7300   26.6463 H   0  0  0  0  0  0  0  0  0  0  0  0
    3.0557    0.8047   24.7218 H   0  0  0  0  0  0  0  0  0  0  0  0
    7.1998    3.1163   18.7244 H   0  0  0  0  0  0  0  0  0  0  0  0
    8.2085    4.6686   16.9598 H   0  0  0  0  0  0  0  0  0  0  0  0
  1  2  1  0
  2  3  2  0
  3  4  1  0
  4  5  2  0
  5  6  1  0
  6  7  2  0
  7  8  1  0
  8  9  1  0
  9 10  1  0
 10 11  1  0
 10 12  1  0
 12 13  1  0
 13 14  1  0
 14 15  1  0
 15 16  1  0
  7 17  1  0
 17 18  2  0
 18 19  1  0
 19  2  1  0
 18  4  1  0
 16 12  1  0
  1 20  1  0
  1 21  1  0
  1 22  1  0
  3 23  1  0
  5 24  1  0
  6 25  1  0
  8 26  1  0
  8 27  1  0
  9 28  1  0
 10 29  1  0
 11 30  1  0
 11 31  1  0
 11 32  1  0
 12 33  1  0
 13 34  1  0
 13 35  1  0
 14 36  1  0
 14 37  1  0
 15 38  1  0
 15 39  1  0
 16 40  1  0
 17 41  1  0
 19 42  1  0
M  END
>  <Energy>  (1109) 
529.95666903429617

>  <compound_id>  (1109) 
4755

>  <target_id>  (1109) 
1

>  <reference_id>  (1109) 
70

>  <inspiration_ids>  (1109) 
[97, 70]

>  <energy_score>  (1109) 
465.39313642576747

>  <distance_score>  (1109) 
6.02167670256658

>  <path>  (1109) 
/opt/xchem-fragalysis-2/maxwin/BulkDock/SCRATCH/511013/C4755-P70/C4755-P70.minimised.mol

>  <scratch_subdir>  (1109) 
/opt/xchem-fragalysis-2/maxwin/BulkDock/SCRATCH/511013/C4755-P70

>  <fragmenstein_runtime>  (1109) 
8.246739149093628

>  <fragmenstein_outcome>  (1109) 
too moved

>  <fragmenstein_mode>  (1109) 
expansion

>  <fragmenstein_error>  (1109) 


$$$$
C4756-P97
     RDKit          3D

 42 44  0  0  0  0  0  0  0  0999 V2000
    5.2246   -3.4965   15.3662 C   0  0  0  0  0  0  0  0  0  0  0  0
    4.7620   -2.3343   15.6336 N   0  0  0  0  0  0  0  0  0  0  0  0
    3.9351   -2.3664   17.1482 C   0  0  0  0  0  0  0  0  0  0  0  0
    4.3996   -2.1440   18.2026 O   0  0  0  0  0  0  0  0  0  0  0  0
    2.0057   -2.8765   17.2987 C   0  0  0  0  0  0  0  0  0  0  0  0
    1.1294   -1.5706   17.3270 N   0  0  0  0  0  0  0  0  0  0  0  0
   -0.0334   -1.1872   16.5445 C   0  0  0  0  0  0  0  0  0  0  0  0
   -0.6719   -1.8044   15.7375 O   0  0  0  0  0  0  0  0  0  0  0  0
   -0.3722    0.3181   16.7785 C   0  0  0  0  0  0  0  0  0  0  0  0
   -0.3820    1.1454   15.5061 C   0  0  0  0  0  0  0  0  0  0  0  0
   -0.2391    2.5567   16.0412 C   0  0  0  0  0  0  0  0  0  0  0  0
    0.7582    2.4016   17.1649 C   0  0  0  0  0  0  0  0  0  0  0  0
    0.6979    0.9913   17.5754 N   0  0  0  0  0  0  0  0  0  0  0  0
    6.5723   -1.8044   15.2180 C   0  0  0  0  0  0  0  0  0  0  0  0
    7.6918   -2.3188   14.6099 C   0  0  0  0  0  0  0  0  0  0  0  0
    9.0982   -2.0049   14.8877 C   0  0  0  0  0  0  0  0  0  0  0  0
    9.4449   -0.7509   15.3477 C   0  0  0  0  0  0  0  0  0  0  0  0
   10.5949    0.0659   15.4081 C   0  0  0  0  0  0  0  0  0  0  0  0
   10.1913    1.2671   15.9497 C   0  0  0  0  0  0  0  0  0  0  0  0
    8.8690    1.1464   16.3093 N   0  0  0  0  0  0  0  0  0  0  0  0
    8.4034   -0.0827   15.9225 C   0  0  0  0  0  0  0  0  0  0  0  0
    7.1467   -0.7346   16.0289 C   0  0  0  0  0  0  0  0  0  0  0  0
    4.2776   -3.8127   14.9408 H   0  0  0  0  0  0  0  0  0  0  0  0
    5.9630   -3.5052   14.6335 H   0  0  0  0  0  0  0  0  0  0  0  0
    4.9493   -4.1444   16.2257 H   0  0  0  0  0  0  0  0  0  0  0  0
    1.6565   -3.6076   17.9814 H   0  0  0  0  0  0  0  0  0  0  0  0
    1.6336   -3.3683   16.3829 H   0  0  0  0  0  0  0  0  0  0  0  0
    1.3574   -0.8194   17.9722 H   0  0  0  0  0  0  0  0  0  0  0  0
   -1.3872    0.4255   17.1499 H   0  0  0  0  0  0  0  0  0  0  0  0
    0.4501    0.8904   14.8427 H   0  0  0  0  0  0  0  0  0  0  0  0
   -1.3082    1.0208   14.9352 H   0  0  0  0  0  0  0  0  0  0  0  0
   -1.2021    2.9107   16.4283 H   0  0  0  0  0  0  0  0  0  0  0  0
    0.0997    3.2567   15.2720 H   0  0  0  0  0  0  0  0  0  0  0  0
    0.5416    3.0820   17.9944 H   0  0  0  0  0  0  0  0  0  0  0  0
    1.7698    2.6211   16.8085 H   0  0  0  0  0  0  0  0  0  0  0  0
    0.4654    0.9955   18.5720 H   0  0  0  0  0  0  0  0  0  0  0  0
    7.6032   -3.0177   13.8439 H   0  0  0  0  0  0  0  0  0  0  0  0
    9.8931   -2.6479   14.5160 H   0  0  0  0  0  0  0  0  0  0  0  0
   11.5823   -0.1672   15.0317 H   0  0  0  0  0  0  0  0  0  0  0  0
   10.7260    2.1903   16.1316 H   0  0  0  0  0  0  0  0  0  0  0  0
    8.2972    1.8754   16.7260 H   0  0  0  0  0  0  0  0  0  0  0  0
    6.5369   -0.4413   16.8499 H   0  0  0  0  0  0  0  0  0  0  0  0
  1  2  1  0
  2  3  1  0
  3  4  2  0
  3  5  1  0
  5  6  1  0
  6  7  1  0
  7  8  2  0
  7  9  1  0
  9 10  1  0
 10 11  1  0
 11 12  1  0
 12 13  1  0
  2 14  1  0
 14 15  2  0
 15 16  1  0
 16 17  2  0
 17 18  1  0
 18 19  2  0
 19 20  1  0
 20 21  1  0
 21 22  2  0
 13  9  1  0
 22 14  1  0
 21 17  1  0
  1 23  1  0
  1 24  1  0
  1 25  1  0
  5 26  1  0
  5 27  1  0
  6 28  1  0
  9 29  1  0
 10 30  1  0
 10 31  1  0
 11 32  1  0
 11 33  1  0
 12 34  1  0
 12 35  1  0
 13 36  1  0
 15 37  1  0
 16 38  1  0
 18 39  1  0
 19 40  1  0
 20 41  1  0
 22 42  1  0
M  END
>  <Energy>  (1110) 
389.61004287143282

>  <compound_id>  (1110) 
4756

>  <target_id>  (1110) 
1

>  <reference_id>  (1110) 
97

>  <inspiration_ids>  (1110) 
[97, 70]

>  <energy_score>  (1110) 
269.8864308155279

>  <distance_score>  (1110) 
7.986692463392775

>  <path>  (1110) 
/opt/xchem-fragalysis-2/maxwin/BulkDock/SCRATCH/511013/C4756-P97/C4756-P97.minimised.mol

>  <scratch_subdir>  (1110) 
/opt/xchem-fragalysis-2/maxwin/BulkDock/SCRATCH/511013/C4756-P97

>  <fragmenstein_runtime>  (1110) 
9.462949275970459

>  <fragmenstein_outcome>  (1110) 
too moved

>  <fragmenstein_mode>  (1110) 
expansion

>  <fragmenstein_error>  (1110) 


$$$$
C4756-P70
     RDKit          3D

 42 44  0  0  0  0  0  0  0  0999 V2000
    1.4622   -1.4636   17.8679 C   0  0  0  0  0  0  0  0  0  0  0  0
    2.1551   -0.2998   17.3306 N   0  0  0  0  0  0  0  0  0  0  0  0
    1.6320    0.9473   17.9800 C   0  0  0  0  0  0  0  0  0  0  0  0
    2.0016    1.5253   18.9560 O   0  0  0  0  0  0  0  0  0  0  0  0
    0.4986    1.6254   17.1690 C   0  0  0  0  0  0  0  0  0  0  0  0
    0.3898    2.8752   17.9221 N   0  0  0  0  0  0  0  0  0  0  0  0
   -0.2642    4.1045   17.6127 C   0  0  0  0  0  0  0  0  0  0  0  0
   -0.8287    4.4613   16.6194 O   0  0  0  0  0  0  0  0  0  0  0  0
   -0.2493    5.0061   18.9140 C   0  0  0  0  0  0  0  0  0  0  0  0
    0.4717    6.3288   18.8175 C   0  0  0  0  0  0  0  0  0  0  0  0
    0.7666    6.7052   20.2723 C   0  0  0  0  0  0  0  0  0  0  0  0
    0.5852    5.4282   21.0755 C   0  0  0  0  0  0  0  0  0  0  0  0
    0.4726    4.3842   20.0648 N   0  0  0  0  0  0  0  0  0  0  0  0
    3.7576   -1.4096   17.7305 C   0  0  0  0  0  0  0  0  0  0  0  0
    5.3258   -1.0079   17.5267 C   0  0  0  0  0  0  0  0  0  0  0  0
    6.7003   -0.7084   16.4631 C   0  0  0  0  0  0  0  0  0  0  0  0
    6.8011   -1.4834   15.3547 C   0  0  0  0  0  0  0  0  0  0  0  0
    7.8220   -1.5446   14.4459 C   0  0  0  0  0  0  0  0  0  0  0  0
    7.0176   -1.6420   13.3747 C   0  0  0  0  0  0  0  0  0  0  0  0
    5.9069   -2.3588   13.7734 N   0  0  0  0  0  0  0  0  0  0  0  0
    5.5065   -2.1707   15.0657 C   0  0  0  0  0  0  0  0  0  0  0  0
    4.2226   -2.3368   16.4337 C   0  0  0  0  0  0  0  0  0  0  0  0
    1.2727   -1.2092   18.9029 H   0  0  0  0  0  0  0  0  0  0  0  0
    1.6416   -2.4712   17.4665 H   0  0  0  0  0  0  0  0  0  0  0  0
    0.4423   -1.3268   17.4636 H   0  0  0  0  0  0  0  0  0  0  0  0
   -0.4393    1.0770   17.2096 H   0  0  0  0  0  0  0  0  0  0  0  0
    0.8064    1.8440   16.1455 H   0  0  0  0  0  0  0  0  0  0  0  0
    0.8382    2.9575   18.8456 H   0  0  0  0  0  0  0  0  0  0  0  0
   -1.2978    5.1624   19.1993 H   0  0  0  0  0  0  0  0  0  0  0  0
    1.4077    6.2279   18.2541 H   0  0  0  0  0  0  0  0  0  0  0  0
   -0.1313    7.0936   18.3176 H   0  0  0  0  0  0  0  0  0  0  0  0
    0.0737    7.4792   20.6203 H   0  0  0  0  0  0  0  0  0  0  0  0
    1.7845    7.0997   20.3617 H   0  0  0  0  0  0  0  0  0  0  0  0
   -0.3308    5.4807   21.6750 H   0  0  0  0  0  0  0  0  0  0  0  0
    1.4270    5.2427   21.7486 H   0  0  0  0  0  0  0  0  0  0  0  0
   -0.0108    3.5780   20.4489 H   0  0  0  0  0  0  0  0  0  0  0  0
    5.9879   -0.7276   18.3341 H   0  0  0  0  0  0  0  0  0  0  0  0
    7.5462   -0.0858   16.7824 H   0  0  0  0  0  0  0  0  0  0  0  0
    8.7988   -1.0865   14.5234 H   0  0  0  0  0  0  0  0  0  0  0  0
    7.1304   -1.3619   12.3359 H   0  0  0  0  0  0  0  0  0  0  0  0
    5.3013   -2.5614   13.0001 H   0  0  0  0  0  0  0  0  0  0  0  0
    3.7900   -3.3469   16.3842 H   0  0  0  0  0  0  0  0  0  0  0  0
  1  2  1  0
  2  3  1  0
  3  4  2  0
  3  5  1  0
  5  6  1  0
  6  7  1  0
  7  8  2  0
  7  9  1  0
  9 10  1  0
 10 11  1  0
 11 12  1  0
 12 13  1  0
  2 14  1  0
 14 15  2  0
 15 16  1  0
 16 17  2  0
 17 18  1  0
 18 19  2  0
 19 20  1  0
 20 21  1  0
 21 22  2  0
 13  9  1  0
 22 14  1  0
 21 17  1  0
  1 23  1  0
  1 24  1  0
  1 25  1  0
  5 26  1  0
  5 27  1  0
  6 28  1  0
  9 29  1  0
 10 30  1  0
 10 31  1  0
 11 32  1  0
 11 33  1  0
 12 34  1  0
 12 35  1  0
 13 36  1  0
 15 37  1  0
 16 38  1  0
 18 39  1  0
 19 40  1  0
 20 41  1  0
 22 42  1  0
M  END
>  <Energy>  (1111) 
518.85487735816412

>  <compound_id>  (1111) 
4756

>  <target_id>  (1111) 
1

>  <reference_id>  (1111) 
70

>  <inspiration_ids>  (1111) 
[97, 70]

>  <energy_score>  (1111) 
399.13126530224474

>  <distance_score>  (1111) 
7.582467092442188

>  <path>  (1111) 
/opt/xchem-fragalysis-2/maxwin/BulkDock/SCRATCH/511013/C4756-P70/C4756-P70.minimised.mol

>  <scratch_subdir>  (1111) 
/opt/xchem-fragalysis-2/maxwin/BulkDock/SCRATCH/511013/C4756-P70

>  <fragmenstein_runtime>  (1111) 
11.091172218322754

>  <fragmenstein_outcome>  (1111) 
too moved

>  <fragmenstein_mode>  (1111) 
expansion

>  <fragmenstein_error>  (1111) 


$$$$
C4772-P97
     RDKit          3D

 44 46  0  0  0  0  0  0  0  0999 V2000
   12.4565    2.5513   14.1859 C   0  0  0  0  0  0  0  0  0  0  0  0
   11.3027    1.8788   14.8279 C   0  0  0  0  0  0  0  0  0  0  0  0
   10.3359    2.3587   15.6930 C   0  0  0  0  0  0  0  0  0  0  0  0
    9.4477    1.2915   16.0013 C   0  0  0  0  0  0  0  0  0  0  0  0
    8.3015    1.1212   16.8331 C   0  0  0  0  0  0  0  0  0  0  0  0
    7.6527   -0.1629   17.1428 C   0  0  0  0  0  0  0  0  0  0  0  0
    6.9343   -0.7834   18.9703 C   0  0  0  0  0  0  0  0  0  0  0  0
    6.0524    0.2787   19.5340 N   0  0  0  0  0  0  0  0  0  0  0  0
    4.7228    0.2544   21.0778 C   0  0  0  0  0  0  0  0  0  0  0  0
    4.6862   -0.7916   21.7734 O   0  0  0  0  0  0  0  0  0  0  0  0
    3.1506    1.5048   21.6620 C   0  0  0  0  0  0  0  0  0  0  0  0
    2.5510    2.6747   22.8736 C   0  0  0  0  0  0  0  0  0  0  0  0
    1.1289    3.2975   23.1045 C   0  0  0  0  0  0  0  0  0  0  0  0
    1.1949    4.6988   23.7227 C   0  0  0  0  0  0  0  0  0  0  0  0
   -0.2509    5.1500   23.6617 C   0  0  0  0  0  0  0  0  0  0  0  0
   -0.8091    4.4310   22.4416 C   0  0  0  0  0  0  0  0  0  0  0  0
    0.2211    3.4867   21.9782 N   0  0  0  0  0  0  0  0  0  0  0  0
    7.9894   -1.0375   16.0590 C   0  0  0  0  0  0  0  0  0  0  0  0
    9.1714   -0.9722   15.3023 C   0  0  0  0  0  0  0  0  0  0  0  0
    9.8973    0.1947   15.3001 C   0  0  0  0  0  0  0  0  0  0  0  0
   11.0153    0.5559   14.5949 N   0  0  0  0  0  0  0  0  0  0  0  0
   13.3923    2.0519   14.4561 H   0  0  0  0  0  0  0  0  0  0  0  0
   12.3547    2.5321   13.0961 H   0  0  0  0  0  0  0  0  0  0  0  0
   12.5267    3.5970   14.5018 H   0  0  0  0  0  0  0  0  0  0  0  0
   10.2751    3.3690   16.0772 H   0  0  0  0  0  0  0  0  0  0  0  0
    7.9525    2.0511   17.2756 H   0  0  0  0  0  0  0  0  0  0  0  0
    7.2040   -0.8197   20.0704 H   0  0  0  0  0  0  0  0  0  0  0  0
    7.9886   -1.1231   19.2029 H   0  0  0  0  0  0  0  0  0  0  0  0
    5.9278    1.1143   19.0145 H   0  0  0  0  0  0  0  0  0  0  0  0
    2.6760    2.0682   20.7768 H   0  0  0  0  0  0  0  0  0  0  0  0
    2.2257    1.0568   21.4031 H   0  0  0  0  0  0  0  0  0  0  0  0
    2.6989    2.1986   23.8469 H   0  0  0  0  0  0  0  0  0  0  0  0
    3.1319    3.5899   22.7293 H   0  0  0  0  0  0  0  0  0  0  0  0
    0.6119    2.7073   23.8757 H   0  0  0  0  0  0  0  0  0  0  0  0
    1.8215    5.3722   23.1245 H   0  0  0  0  0  0  0  0  0  0  0  0
    1.5779    4.6895   24.7480 H   0  0  0  0  0  0  0  0  0  0  0  0
   -0.3339    6.2379   23.5815 H   0  0  0  0  0  0  0  0  0  0  0  0
   -0.7847    4.8303   24.5644 H   0  0  0  0  0  0  0  0  0  0  0  0
   -1.7248    3.8895   22.7028 H   0  0  0  0  0  0  0  0  0  0  0  0
   -1.0578    5.1368   21.6421 H   0  0  0  0  0  0  0  0  0  0  0  0
    0.7456    3.9015   21.2057 H   0  0  0  0  0  0  0  0  0  0  0  0
    7.4213   -1.9065   15.7683 H   0  0  0  0  0  0  0  0  0  0  0  0
    9.4669   -1.8332   14.7213 H   0  0  0  0  0  0  0  0  0  0  0  0
   11.4997   -0.0549   13.9504 H   0  0  0  0  0  0  0  0  0  0  0  0
  1  2  1  0
  2  3  2  0
  3  4  1  0
  4  5  2  0
  5  6  1  0
  6  7  1  0
  7  8  1  0
  8  9  1  0
  9 10  2  0
  9 11  1  0
 11 12  1  0
 12 13  1  0
 13 14  1  0
 14 15  1  0
 15 16  1  0
 16 17  1  0
  6 18  2  0
 18 19  1  0
 19 20  2  0
 20 21  1  0
 21  2  1  0
 20  4  1  0
 17 13  1  0
  1 22  1  0
  1 23  1  0
  1 24  1  0
  3 25  1  0
  5 26  1  0
  7 27  1  0
  7 28  1  0
  8 29  1  0
 11 30  1  0
 11 31  1  0
 12 32  1  0
 12 33  1  0
 13 34  1  0
 14 35  1  0
 14 36  1  0
 15 37  1  0
 15 38  1  0
 16 39  1  0
 16 40  1  0
 17 41  1  0
 18 42  1  0
 19 43  1  0
 21 44  1  0
M  END
>  <Energy>  (1112) 
519.72353783787628

>  <compound_id>  (1112) 
4772

>  <target_id>  (1112) 
1

>  <reference_id>  (1112) 
97

>  <inspiration_ids>  (1112) 
[97, 70]

>  <energy_score>  (1112) 
506.58984447115085

>  <distance_score>  (1112) 
5.272296202928248

>  <path>  (1112) 
/opt/xchem-fragalysis-2/maxwin/BulkDock/SCRATCH/511013/C4772-P97/C4772-P97.minimised.mol

>  <scratch_subdir>  (1112) 
/opt/xchem-fragalysis-2/maxwin/BulkDock/SCRATCH/511013/C4772-P97

>  <fragmenstein_runtime>  (1112) 
6.707573413848877

>  <fragmenstein_outcome>  (1112) 
too moved

>  <fragmenstein_mode>  (1112) 
expansion

>  <fragmenstein_error>  (1112) 


$$$$
C4772-P70
     RDKit          3D

 44 46  0  0  0  0  0  0  0  0999 V2000
   13.3332    0.8665   14.2783 C   0  0  0  0  0  0  0  0  0  0  0  0
   12.2360    1.6164   14.9350 C   0  0  0  0  0  0  0  0  0  0  0  0
   12.1750    2.9144   15.4049 C   0  0  0  0  0  0  0  0  0  0  0  0
   10.8651    3.1449   15.9162 C   0  0  0  0  0  0  0  0  0  0  0  0
   10.1852    4.2666   16.4675 C   0  0  0  0  0  0  0  0  0  0  0  0
    8.8300    4.1839   16.8687 C   0  0  0  0  0  0  0  0  0  0  0  0
    8.0663    5.4244   17.3476 C   0  0  0  0  0  0  0  0  0  0  0  0
    7.0120    5.2280   18.3564 N   0  0  0  0  0  0  0  0  0  0  0  0
    6.0468    6.1684   18.9303 C   0  0  0  0  0  0  0  0  0  0  0  0
    5.9254    7.3507   18.7798 O   0  0  0  0  0  0  0  0  0  0  0  0
    5.1088    5.4304   19.9445 C   0  0  0  0  0  0  0  0  0  0  0  0
    3.8529    6.1743   20.4949 C   0  0  0  0  0  0  0  0  0  0  0  0
    3.4882    5.9447   21.9925 C   0  0  0  0  0  0  0  0  0  0  0  0
    2.1925    6.6684   22.4007 C   0  0  0  0  0  0  0  0  0  0  0  0
    1.5262    5.7379   23.4018 C   0  0  0  0  0  0  0  0  0  0  0  0
    1.9048    4.3780   22.8637 C   0  0  0  0  0  0  0  0  0  0  0  0
    3.2891    4.5627   22.4421 N   0  0  0  0  0  0  0  0  0  0  0  0
    8.2017    2.9496   16.7128 C   0  0  0  0  0  0  0  0  0  0  0  0
    8.8620    1.8015   16.2309 C   0  0  0  0  0  0  0  0  0  0  0  0
   10.1767    1.9423   15.7925 C   0  0  0  0  0  0  0  0  0  0  0  0
   11.0072    1.0448   15.1590 N   0  0  0  0  0  0  0  0  0  0  0  0
   13.0412    0.5653   13.2670 H   0  0  0  0  0  0  0  0  0  0  0  0
   14.2370    1.4794   14.2024 H   0  0  0  0  0  0  0  0  0  0  0  0
   13.5807   -0.0334   14.8504 H   0  0  0  0  0  0  0  0  0  0  0  0
   12.9792    3.6373   15.3636 H   0  0  0  0  0  0  0  0  0  0  0  0
   10.7242    5.2062   16.5608 H   0  0  0  0  0  0  0  0  0  0  0  0
    7.6004    5.9136   16.4851 H   0  0  0  0  0  0  0  0  0  0  0  0
    8.7695    6.1395   17.7893 H   0  0  0  0  0  0  0  0  0  0  0  0
    6.8709    4.3166   18.7682 H   0  0  0  0  0  0  0  0  0  0  0  0
    5.7458    5.1127   20.7770 H   0  0  0  0  0  0  0  0  0  0  0  0
    4.7243    4.5605   19.4085 H   0  0  0  0  0  0  0  0  0  0  0  0
    2.9962    5.8855   19.8714 H   0  0  0  0  0  0  0  0  0  0  0  0
    3.9788    7.2539   20.3492 H   0  0  0  0  0  0  0  0  0  0  0  0
    4.3138    6.3502   22.5910 H   0  0  0  0  0  0  0  0  0  0  0  0
    1.5306    6.8041   21.5365 H   0  0  0  0  0  0  0  0  0  0  0  0
    2.3905    7.6533   22.8351 H   0  0  0  0  0  0  0  0  0  0  0  0
    0.4439    5.8871   23.4517 H   0  0  0  0  0  0  0  0  0  0  0  0
    1.9467    5.8928   24.4027 H   0  0  0  0  0  0  0  0  0  0  0  0
    1.8150    3.5932   23.6195 H   0  0  0  0  0  0  0  0  0  0  0  0
    1.2801    4.1112   22.0033 H   0  0  0  0  0  0  0  0  0  0  0  0
    3.5634    3.8740   21.7314 H   0  0  0  0  0  0  0  0  0  0  0  0
    7.1463    2.8805   16.9481 H   0  0  0  0  0  0  0  0  0  0  0  0
    8.3304    0.8618   16.1238 H   0  0  0  0  0  0  0  0  0  0  0  0
   10.7326    0.1154   14.8654 H   0  0  0  0  0  0  0  0  0  0  0  0
  1  2  1  0
  2  3  2  0
  3  4  1  0
  4  5  2  0
  5  6  1  0
  6  7  1  0
  7  8  1  0
  8  9  1  0
  9 10  2  0
  9 11  1  0
 11 12  1  0
 12 13  1  0
 13 14  1  0
 14 15  1  0
 15 16  1  0
 16 17  1  0
  6 18  2  0
 18 19  1  0
 19 20  2  0
 20 21  1  0
 21  2  1  0
 20  4  1  0
 17 13  1  0
  1 22  1  0
  1 23  1  0
  1 24  1  0
  3 25  1  0
  5 26  1  0
  7 27  1  0
  7 28  1  0
  8 29  1  0
 11 30  1  0
 11 31  1  0
 12 32  1  0
 12 33  1  0
 13 34  1  0
 14 35  1  0
 14 36  1  0
 15 37  1  0
 15 38  1  0
 16 39  1  0
 16 40  1  0
 17 41  1  0
 18 42  1  0
 19 43  1  0
 21 44  1  0
M  END
>  <Energy>  (1113) 
7.5999851314411551

>  <compound_id>  (1113) 
4772

>  <target_id>  (1113) 
1

>  <reference_id>  (1113) 
70

>  <inspiration_ids>  (1113) 
[97, 70]

>  <energy_score>  (1113) 
-5.533708235288941

>  <distance_score>  (1113) 
6.8211254331243625

>  <path>  (1113) 
/opt/xchem-fragalysis-2/maxwin/BulkDock/SCRATCH/511013/C4772-P70/C4772-P70.minimised.mol

>  <scratch_subdir>  (1113) 
/opt/xchem-fragalysis-2/maxwin/BulkDock/SCRATCH/511013/C4772-P70

>  <fragmenstein_runtime>  (1113) 
11.816780090332031

>  <fragmenstein_outcome>  (1113) 
too moved

>  <fragmenstein_mode>  (1113) 
expansion

>  <fragmenstein_error>  (1113) 


$$$$
C4774-P97
     RDKit          3D

 45 47  0  0  0  0  0  0  0  0999 V2000
    7.5112   -1.3047   20.2150 O   0  0  0  0  0  0  0  0  0  0  0  0
    7.0162   -0.5946   19.4504 C   0  0  0  0  0  0  0  0  0  0  0  0
    5.9943    0.2527   19.5928 N   0  0  0  0  0  0  0  0  0  0  0  0
    4.6997    0.5929   21.1875 C   0  0  0  0  0  0  0  0  0  0  0  0
    2.9144    1.5560   21.5823 C   0  0  0  0  0  0  0  0  0  0  0  0
    2.1498    3.1545   21.4166 C   0  0  0  0  0  0  0  0  0  0  0  0
    1.2639    3.5588   22.6497 C   0  0  0  0  0  0  0  0  0  0  0  0
    1.1933    5.0647   22.8880 C   0  0  0  0  0  0  0  0  0  0  0  0
    0.0315    5.2181   23.8602 C   0  0  0  0  0  0  0  0  0  0  0  0
   -0.8324    3.9899   23.6264 C   0  0  0  0  0  0  0  0  0  0  0  0
   -0.1807    3.2319   22.5483 N   0  0  0  0  0  0  0  0  0  0  0  0
    7.4442   -0.3015   17.3795 C   0  0  0  0  0  0  0  0  0  0  0  0
    6.5724   -0.6081   16.6517 O   0  0  0  0  0  0  0  0  0  0  0  0
    8.8128    0.1518   17.0770 N   0  0  0  0  0  0  0  0  0  0  0  0
    9.4959    0.2585   15.8667 C   0  0  0  0  0  0  0  0  0  0  0  0
    9.8407   -0.9409   15.2591 C   0  0  0  0  0  0  0  0  0  0  0  0
   11.1058   -1.1200   14.6684 C   0  0  0  0  0  0  0  0  0  0  0  0
   11.9772   -0.0309   14.5448 C   0  0  0  0  0  0  0  0  0  0  0  0
   13.2654    0.1488   13.9760 C   0  0  0  0  0  0  0  0  0  0  0  0
   13.6134    1.4678   14.1502 C   0  0  0  0  0  0  0  0  0  0  0  0
   12.5848    2.0904   14.8074 N   0  0  0  0  0  0  0  0  0  0  0  0
   11.5712    1.1954   15.0618 C   0  0  0  0  0  0  0  0  0  0  0  0
   10.3587    1.3587   15.7499 C   0  0  0  0  0  0  0  0  0  0  0  0
    5.8937    0.7467   18.7810 H   0  0  0  0  0  0  0  0  0  0  0  0
    5.4196    1.2079   21.7056 H   0  0  0  0  0  0  0  0  0  0  0  0
    4.4733   -0.3762   21.6761 H   0  0  0  0  0  0  0  0  0  0  0  0
    2.9176    1.6884   22.6652 H   0  0  0  0  0  0  0  0  0  0  0  0
    2.0743    1.0948   21.1692 H   0  0  0  0  0  0  0  0  0  0  0  0
    1.5576    3.1321   20.4935 H   0  0  0  0  0  0  0  0  0  0  0  0
    2.8518    3.9894   21.2938 H   0  0  0  0  0  0  0  0  0  0  0  0
    1.6750    3.1010   23.5586 H   0  0  0  0  0  0  0  0  0  0  0  0
    2.1238    5.4657   23.3022 H   0  0  0  0  0  0  0  0  0  0  0  0
    0.9767    5.6015   21.9556 H   0  0  0  0  0  0  0  0  0  0  0  0
   -0.5133    6.1496   23.6776 H   0  0  0  0  0  0  0  0  0  0  0  0
    0.3973    5.2330   24.8931 H   0  0  0  0  0  0  0  0  0  0  0  0
   -0.8841    3.3756   24.5320 H   0  0  0  0  0  0  0  0  0  0  0  0
   -1.8565    4.2568   23.3468 H   0  0  0  0  0  0  0  0  0  0  0  0
   -0.5009    3.6030   21.6502 H   0  0  0  0  0  0  0  0  0  0  0  0
    9.2560    0.4019   17.9047 H   0  0  0  0  0  0  0  0  0  0  0  0
    9.1694   -1.7893   15.2864 H   0  0  0  0  0  0  0  0  0  0  0  0
   11.3765   -2.0882   14.2543 H   0  0  0  0  0  0  0  0  0  0  0  0
   13.8664   -0.6059   13.4852 H   0  0  0  0  0  0  0  0  0  0  0  0
   14.5008    2.0157   13.8628 H   0  0  0  0  0  0  0  0  0  0  0  0
   12.5692    3.0668   15.0689 H   0  0  0  0  0  0  0  0  0  0  0  0
   10.1345    2.2944   16.2562 H   0  0  0  0  0  0  0  0  0  0  0  0
  1  2  2  0
  2  3  1  0
  3  4  1  0
  4  5  1  0
  5  6  1  0
  6  7  1  0
  7  8  1  0
  8  9  1  0
  9 10  1  0
 10 11  1  0
  2 12  1  0
 12 13  2  0
 12 14  1  0
 14 15  1  0
 15 16  2  0
 16 17  1  0
 17 18  2  0
 18 19  1  0
 19 20  2  0
 20 21  1  0
 21 22  1  0
 22 23  2  0
 11  7  1  0
 23 15  1  0
 22 18  1  0
  3 24  1  0
  4 25  1  0
  4 26  1  0
  5 27  1  0
  5 28  1  0
  6 29  1  0
  6 30  1  0
  7 31  1  0
  8 32  1  0
  8 33  1  0
  9 34  1  0
  9 35  1  0
 10 36  1  0
 10 37  1  0
 11 38  1  0
 14 39  1  0
 16 40  1  0
 17 41  1  0
 19 42  1  0
 20 43  1  0
 21 44  1  0
 23 45  1  0
M  END
>  <Energy>  (1114) 
409.82039552783067

>  <compound_id>  (1114) 
4774

>  <target_id>  (1114) 
1

>  <reference_id>  (1114) 
97

>  <inspiration_ids>  (1114) 
[97, 70]

>  <energy_score>  (1114) 
321.1370180472454

>  <distance_score>  (1114) 
4.380618704614918

>  <path>  (1114) 
/opt/xchem-fragalysis-2/maxwin/BulkDock/SCRATCH/511013/C4774-P97/C4774-P97.minimised.mol

>  <scratch_subdir>  (1114) 
/opt/xchem-fragalysis-2/maxwin/BulkDock/SCRATCH/511013/C4774-P97

>  <fragmenstein_runtime>  (1114) 
6.725286483764648

>  <fragmenstein_outcome>  (1114) 
too moved

>  <fragmenstein_mode>  (1114) 
expansion

>  <fragmenstein_error>  (1114) 


$$$$
C4774-P70
     RDKit          3D

 45 47  0  0  0  0  0  0  0  0999 V2000
    8.1610   -1.1268   19.7217 O   0  0  0  0  0  0  0  0  0  0  0  0
    7.5798   -0.2820   19.2073 C   0  0  0  0  0  0  0  0  0  0  0  0
    6.4946    0.3308   19.5567 N   0  0  0  0  0  0  0  0  0  0  0  0
    5.3320    0.2271   21.2500 C   0  0  0  0  0  0  0  0  0  0  0  0
    3.6952    1.2930   21.8400 C   0  0  0  0  0  0  0  0  0  0  0  0
    2.8502    2.8775   22.2788 C   0  0  0  0  0  0  0  0  0  0  0  0
    2.2596    2.9773   23.7340 C   0  0  0  0  0  0  0  0  0  0  0  0
    2.7722    4.1695   24.5402 C   0  0  0  0  0  0  0  0  0  0  0  0
    1.7691    4.2965   25.6791 C   0  0  0  0  0  0  0  0  0  0  0  0
    0.4946    3.6679   25.1439 C   0  0  0  0  0  0  0  0  0  0  0  0
    0.7960    3.2535   23.7672 N   0  0  0  0  0  0  0  0  0  0  0  0
    8.2819    0.5861   17.5871 C   0  0  0  0  0  0  0  0  0  0  0  0
    8.2407    1.7902   17.6741 O   0  0  0  0  0  0  0  0  0  0  0  0
    8.8640   -0.2788   16.5371 N   0  0  0  0  0  0  0  0  0  0  0  0
    9.6144    0.0355   15.4070 C   0  0  0  0  0  0  0  0  0  0  0  0
   10.4058   -1.0304   14.9439 C   0  0  0  0  0  0  0  0  0  0  0  0
   11.6079   -0.8248   14.2492 C   0  0  0  0  0  0  0  0  0  0  0  0
   12.0095    0.4868   13.9761 C   0  0  0  0  0  0  0  0  0  0  0  0
   13.1287    1.0549   13.3120 C   0  0  0  0  0  0  0  0  0  0  0  0
   12.9969    2.4217   13.3758 C   0  0  0  0  0  0  0  0  0  0  0  0
   11.8442    2.7007   14.0615 N   0  0  0  0  0  0  0  0  0  0  0  0
   11.2079    1.5352   14.4232 C   0  0  0  0  0  0  0  0  0  0  0  0
   10.0227    1.3433   15.1561 C   0  0  0  0  0  0  0  0  0  0  0  0
    6.3327    1.0551   18.9215 H   0  0  0  0  0  0  0  0  0  0  0  0
    4.7521   -0.5360   21.8473 H   0  0  0  0  0  0  0  0  0  0  0  0
    5.6423   -0.9171   21.3100 H   0  0  0  0  0  0  0  0  0  0  0  0
    3.8780    1.2970   22.8792 H   0  0  0  0  0  0  0  0  0  0  0  0
    2.7565    1.0156   21.4475 H   0  0  0  0  0  0  0  0  0  0  0  0
    2.0320    2.9370   21.5448 H   0  0  0  0  0  0  0  0  0  0  0  0
    3.4188    3.8039   22.1227 H   0  0  0  0  0  0  0  0  0  0  0  0
    2.4633    2.0614   24.2983 H   0  0  0  0  0  0  0  0  0  0  0  0
    3.7889    4.0242   24.9152 H   0  0  0  0  0  0  0  0  0  0  0  0
    2.7642    5.0881   23.9394 H   0  0  0  0  0  0  0  0  0  0  0  0
    1.6279    5.3438   25.9641 H   0  0  0  0  0  0  0  0  0  0  0  0
    2.1214    3.7473   26.5597 H   0  0  0  0  0  0  0  0  0  0  0  0
    0.2142    2.7943   25.7425 H   0  0  0  0  0  0  0  0  0  0  0  0
   -0.3464    4.3682   25.1630 H   0  0  0  0  0  0  0  0  0  0  0  0
    0.6173    4.0464   23.1449 H   0  0  0  0  0  0  0  0  0  0  0  0
    8.6499   -1.2162   16.7352 H   0  0  0  0  0  0  0  0  0  0  0  0
   10.1477   -2.0631   15.1484 H   0  0  0  0  0  0  0  0  0  0  0  0
   12.1993   -1.6708   13.9136 H   0  0  0  0  0  0  0  0  0  0  0  0
   13.9441    0.5183   12.8450 H   0  0  0  0  0  0  0  0  0  0  0  0
   13.6279    3.2185   13.0059 H   0  0  0  0  0  0  0  0  0  0  0  0
   11.5079    3.6273   14.2848 H   0  0  0  0  0  0  0  0  0  0  0  0
    9.5109    2.1953   15.5929 H   0  0  0  0  0  0  0  0  0  0  0  0
  1  2  2  0
  2  3  1  0
  3  4  1  0
  4  5  1  0
  5  6  1  0
  6  7  1  0
  7  8  1  0
  8  9  1  0
  9 10  1  0
 10 11  1  0
  2 12  1  0
 12 13  2  0
 12 14  1  0
 14 15  1  0
 15 16  2  0
 16 17  1  0
 17 18  2  0
 18 19  1  0
 19 20  2  0
 20 21  1  0
 21 22  1  0
 22 23  2  0
 11  7  1  0
 23 15  1  0
 22 18  1  0
  3 24  1  0
  4 25  1  0
  4 26  1  0
  5 27  1  0
  5 28  1  0
  6 29  1  0
  6 30  1  0
  7 31  1  0
  8 32  1  0
  8 33  1  0
  9 34  1  0
  9 35  1  0
 10 36  1  0
 10 37  1  0
 11 38  1  0
 14 39  1  0
 16 40  1  0
 17 41  1  0
 19 42  1  0
 20 43  1  0
 21 44  1  0
 23 45  1  0
M  END
>  <Energy>  (1115) 
447.35110795910077

>  <compound_id>  (1115) 
4774

>  <target_id>  (1115) 
1

>  <reference_id>  (1115) 
70

>  <inspiration_ids>  (1115) 
[97, 70]

>  <energy_score>  (1115) 
358.6677304784978

>  <distance_score>  (1115) 
4.335163669497604

>  <path>  (1115) 
/opt/xchem-fragalysis-2/maxwin/BulkDock/SCRATCH/511013/C4774-P70/C4774-P70.minimised.mol

>  <scratch_subdir>  (1115) 
/opt/xchem-fragalysis-2/maxwin/BulkDock/SCRATCH/511013/C4774-P70

>  <fragmenstein_runtime>  (1115) 
7.3296544551849365

>  <fragmenstein_outcome>  (1115) 
too moved

>  <fragmenstein_mode>  (1115) 
expansion

>  <fragmenstein_error>  (1115) 


$$$$
C35838-P97
     RDKit          3D

 42 44  0  0  0  0  0  0  0  0999 V2000
    6.9081    3.3006   18.8474 O   0  0  0  0  0  0  0  0  0  0  0  0
    6.9756    2.0908   18.5741 C   0  0  0  0  0  0  0  0  0  0  0  0
    7.8741    1.7386   16.9403 C   0  0  0  0  0  0  0  0  0  0  0  0
    9.2852    1.9206   16.5629 N   0  0  0  0  0  0  0  0  0  0  0  0
    9.9049    3.1740   16.4572 C   0  0  0  0  0  0  0  0  0  0  0  0
    9.4130    4.2761   16.6346 O   0  0  0  0  0  0  0  0  0  0  0  0
   11.3571    2.9356   16.0270 C   0  0  0  0  0  0  0  0  0  0  0  0
   11.3704    1.4741   15.7134 C   0  0  0  0  0  0  0  0  0  0  0  0
   12.4235    0.6958   15.2552 C   0  0  0  0  0  0  0  0  0  0  0  0
   12.1831   -0.6552   15.0128 C   0  0  0  0  0  0  0  0  0  0  0  0
   10.8986   -1.1861   15.1936 C   0  0  0  0  0  0  0  0  0  0  0  0
    9.8410   -0.3837   15.6463 C   0  0  0  0  0  0  0  0  0  0  0  0
   10.1054    0.9361   15.9613 C   0  0  0  0  0  0  0  0  0  0  0  0
    6.2153    0.5292   19.4785 N   0  0  0  0  0  0  0  0  0  0  0  0
    4.8855    0.4976   21.1684 C   0  0  0  0  0  0  0  0  0  0  0  0
    3.0660    1.4616   21.6809 C   0  0  0  0  0  0  0  0  0  0  0  0
    2.4607    2.7822   22.7383 C   0  0  0  0  0  0  0  0  0  0  0  0
    2.9136    4.2711   22.6602 C   0  0  0  0  0  0  0  0  0  0  0  0
    1.8542    5.0402   23.4479 C   0  0  0  0  0  0  0  0  0  0  0  0
    0.6004    4.2268   23.2684 C   0  0  0  0  0  0  0  0  0  0  0  0
    1.0067    3.1278   22.4014 N   0  0  0  0  0  0  0  0  0  0  0  0
    7.3374    2.4156   16.2571 H   0  0  0  0  0  0  0  0  0  0  0  0
    7.6601    0.7040   16.6439 H   0  0  0  0  0  0  0  0  0  0  0  0
   11.5767    3.5313   15.1373 H   0  0  0  0  0  0  0  0  0  0  0  0
   12.0280    3.1754   16.8558 H   0  0  0  0  0  0  0  0  0  0  0  0
   13.4063    1.1232   15.0824 H   0  0  0  0  0  0  0  0  0  0  0  0
   12.9818   -1.2934   14.6412 H   0  0  0  0  0  0  0  0  0  0  0  0
   10.7155   -2.2280   14.9353 H   0  0  0  0  0  0  0  0  0  0  0  0
    8.8523   -0.8145   15.7288 H   0  0  0  0  0  0  0  0  0  0  0  0
    6.3821   -0.3434   18.9493 H   0  0  0  0  0  0  0  0  0  0  0  0
    4.6491   -0.5375   21.5675 H   0  0  0  0  0  0  0  0  0  0  0  0
    4.1439    0.9207   20.7502 H   0  0  0  0  0  0  0  0  0  0  0  0
    2.1764    1.0006   21.3369 H   0  0  0  0  0  0  0  0  0  0  0  0
    2.6623    2.0523   20.7747 H   0  0  0  0  0  0  0  0  0  0  0  0
    2.4411    2.3979   23.7661 H   0  0  0  0  0  0  0  0  0  0  0  0
    3.8797    4.5448   23.0837 H   0  0  0  0  0  0  0  0  0  0  0  0
    2.9137    4.6253   21.6196 H   0  0  0  0  0  0  0  0  0  0  0  0
    2.1283    5.0928   24.5077 H   0  0  0  0  0  0  0  0  0  0  0  0
    1.7487    6.0615   23.0683 H   0  0  0  0  0  0  0  0  0  0  0  0
   -0.2090    4.8064   22.8142 H   0  0  0  0  0  0  0  0  0  0  0  0
    0.2395    3.8411   24.2279 H   0  0  0  0  0  0  0  0  0  0  0  0
    0.9930    3.4204   21.4201 H   0  0  0  0  0  0  0  0  0  0  0  0
  1  2  2  0
  2  3  1  0
  3  4  1  0
  4  5  1  0
  5  6  2  0
  5  7  1  0
  7  8  1  0
  8  9  2  0
  9 10  1  0
 10 11  2  0
 11 12  1  0
 12 13  2  0
  2 14  1  0
 14 15  1  0
 15 16  1  0
 16 17  1  0
 17 18  1  0
 18 19  1  0
 19 20  1  0
 20 21  1  0
 13  4  1  0
 21 17  1  0
 13  8  1  0
  3 22  1  0
  3 23  1  0
  7 24  1  0
  7 25  1  0
  9 26  1  0
 10 27  1  0
 11 28  1  0
 12 29  1  0
 14 30  1  0
 15 31  1  0
 15 32  1  0
 16 33  1  0
 16 34  1  0
 17 35  1  0
 18 36  1  0
 18 37  1  0
 19 38  1  0
 19 39  1  0
 20 40  1  0
 20 41  1  0
 21 42  1  0
M  END
>  <Energy>  (1116) 
587.16460647342888

>  <compound_id>  (1116) 
35838

>  <target_id>  (1116) 
1

>  <reference_id>  (1116) 
97

>  <inspiration_ids>  (1116) 
[97, 70]

>  <energy_score>  (1116) 
534.1090434393022

>  <distance_score>  (1116) 
5.199304584417965

>  <path>  (1116) 
/opt/xchem-fragalysis-2/maxwin/BulkDock/SCRATCH/511013/C35838-P97/C35838-P97.minimised.mol

>  <scratch_subdir>  (1116) 
/opt/xchem-fragalysis-2/maxwin/BulkDock/SCRATCH/511013/C35838-P97

>  <fragmenstein_runtime>  (1116) 
8.17193603515625

>  <fragmenstein_outcome>  (1116) 
too moved

>  <fragmenstein_mode>  (1116) 
expansion

>  <fragmenstein_error>  (1116) 


$$$$
C35838-P70
     RDKit          3D

 42 44  0  0  0  0  0  0  0  0999 V2000
    6.0538   -0.1918   18.7583 O   0  0  0  0  0  0  0  0  0  0  0  0
    6.4063    0.0868   19.8985 C   0  0  0  0  0  0  0  0  0  0  0  0
    7.7003    0.0263   19.9487 C   0  0  0  0  0  0  0  0  0  0  0  0
    8.0093    0.7574   18.0634 N   0  0  0  0  0  0  0  0  0  0  0  0
    7.9926    2.2829   17.7052 C   0  0  0  0  0  0  0  0  0  0  0  0
    7.2936    3.2152   18.0918 O   0  0  0  0  0  0  0  0  0  0  0  0
    9.0797    2.6032   16.6926 C   0  0  0  0  0  0  0  0  0  0  0  0
    9.5650    1.2909   16.2836 C   0  0  0  0  0  0  0  0  0  0  0  0
   10.6389    1.0554   15.4254 C   0  0  0  0  0  0  0  0  0  0  0  0
   10.7946   -0.2217   14.9409 C   0  0  0  0  0  0  0  0  0  0  0  0
    9.7506   -1.1118   15.1493 C   0  0  0  0  0  0  0  0  0  0  0  0
    8.6434   -0.7667   15.9412 C   0  0  0  0  0  0  0  0  0  0  0  0
    8.7181    0.3121   16.7874 C   0  0  0  0  0  0  0  0  0  0  0  0
    5.3137    0.7382   21.5008 N   0  0  0  0  0  0  0  0  0  0  0  0
    3.4507    1.2724   21.6776 C   0  0  0  0  0  0  0  0  0  0  0  0
    2.9851    2.4535   22.9941 C   0  0  0  0  0  0  0  0  0  0  0  0
    1.6232    3.1875   23.2623 C   0  0  0  0  0  0  0  0  0  0  0  0
    1.8020    4.5927   23.8458 C   0  0  0  0  0  0  0  0  0  0  0  0
    0.3850    5.1330   23.8345 C   0  0  0  0  0  0  0  0  0  0  0  0
   -0.2633    4.4385   22.6456 C   0  0  0  0  0  0  0  0  0  0  0  0
    0.6811    3.4144   22.1718 N   0  0  0  0  0  0  0  0  0  0  0  0
    7.8601    0.8233   20.6676 H   0  0  0  0  0  0  0  0  0  0  0  0
    8.1924   -0.8104   19.6391 H   0  0  0  0  0  0  0  0  0  0  0  0
    8.6238    3.1330   15.8510 H   0  0  0  0  0  0  0  0  0  0  0  0
    9.8651    3.2211   17.1246 H   0  0  0  0  0  0  0  0  0  0  0  0
   11.3125    1.8531   15.1313 H   0  0  0  0  0  0  0  0  0  0  0  0
   11.6128   -0.4824   14.2771 H   0  0  0  0  0  0  0  0  0  0  0  0
    9.7581   -2.0668   14.6288 H   0  0  0  0  0  0  0  0  0  0  0  0
    7.7538   -1.3704   15.8371 H   0  0  0  0  0  0  0  0  0  0  0  0
    5.8899    0.9722   22.2882 H   0  0  0  0  0  0  0  0  0  0  0  0
    2.5261    0.8597   21.4319 H   0  0  0  0  0  0  0  0  0  0  0  0
    3.1266    2.0322   20.9211 H   0  0  0  0  0  0  0  0  0  0  0  0
    3.6412    3.3193   22.9136 H   0  0  0  0  0  0  0  0  0  0  0  0
    3.1248    1.9104   23.9295 H   0  0  0  0  0  0  0  0  0  0  0  0
    1.1043    2.6438   24.0668 H   0  0  0  0  0  0  0  0  0  0  0  0
    2.2265    4.5796   24.8546 H   0  0  0  0  0  0  0  0  0  0  0  0
    2.4439    5.2124   23.2070 H   0  0  0  0  0  0  0  0  0  0  0  0
   -0.1316    4.8554   24.7608 H   0  0  0  0  0  0  0  0  0  0  0  0
    0.3662    6.2232   23.7447 H   0  0  0  0  0  0  0  0  0  0  0  0
   -0.4819    5.1479   21.8406 H   0  0  0  0  0  0  0  0  0  0  0  0
   -1.2082    3.9713   22.9426 H   0  0  0  0  0  0  0  0  0  0  0  0
    1.1927    3.7708   21.3601 H   0  0  0  0  0  0  0  0  0  0  0  0
  1  2  2  0
  2  3  1  0
  3  4  1  0
  4  5  1  0
  5  6  2  0
  5  7  1  0
  7  8  1  0
  8  9  2  0
  9 10  1  0
 10 11  2  0
 11 12  1  0
 12 13  2  0
  2 14  1  0
 14 15  1  0
 15 16  1  0
 16 17  1  0
 17 18  1  0
 18 19  1  0
 19 20  1  0
 20 21  1  0
 13  4  1  0
 21 17  1  0
 13  8  1  0
  3 22  1  0
  3 23  1  0
  7 24  1  0
  7 25  1  0
  9 26  1  0
 10 27  1  0
 11 28  1  0
 12 29  1  0
 14 30  1  0
 15 31  1  0
 15 32  1  0
 16 33  1  0
 16 34  1  0
 17 35  1  0
 18 36  1  0
 18 37  1  0
 19 38  1  0
 19 39  1  0
 20 40  1  0
 20 41  1  0
 21 42  1  0
M  END
>  <Energy>  (1117) 
529.73383030476828

>  <compound_id>  (1117) 
35838

>  <target_id>  (1117) 
1

>  <reference_id>  (1117) 
70

>  <inspiration_ids>  (1117) 
[97, 70]

>  <energy_score>  (1117) 
476.67826727063317

>  <distance_score>  (1117) 
5.679317305522375

>  <path>  (1117) 
/opt/xchem-fragalysis-2/maxwin/BulkDock/SCRATCH/511013/C35838-P70/C35838-P70.minimised.mol

>  <scratch_subdir>  (1117) 
/opt/xchem-fragalysis-2/maxwin/BulkDock/SCRATCH/511013/C35838-P70

>  <fragmenstein_runtime>  (1117) 
5.982200860977173

>  <fragmenstein_outcome>  (1117) 
too moved

>  <fragmenstein_mode>  (1117) 
expansion

>  <fragmenstein_error>  (1117) 


$$$$
C35867-P97
     RDKit          3D

 41 43  0  0  0  0  0  0  0  0999 V2000
    6.8800   -0.8672   20.4390 C   0  0  0  0  0  0  0  0  0  0  0  0
    6.1540    0.1881   19.7235 C   0  0  0  0  0  0  0  0  0  0  0  0
    4.6718    0.8131   21.2431 N   0  0  0  0  0  0  0  0  0  0  0  0
    2.9208    1.5759   21.1134 C   0  0  0  0  0  0  0  0  0  0  0  0
    2.1934    1.7817   20.1269 O   0  0  0  0  0  0  0  0  0  0  0  0
    2.2162    2.2639   22.5133 C   0  0  0  0  0  0  0  0  0  0  0  0
    2.2043    2.7404   24.0372 C   0  0  0  0  0  0  0  0  0  0  0  0
    0.8091    3.2205   24.5132 C   0  0  0  0  0  0  0  0  0  0  0  0
    0.6708    2.8074   25.9701 C   0  0  0  0  0  0  0  0  0  0  0  0
    2.0169    2.2420   26.3647 C   0  0  0  0  0  0  0  0  0  0  0  0
    2.7146    1.9237   25.1346 N   0  0  0  0  0  0  0  0  0  0  0  0
    6.6617   -0.4169   17.7732 C   0  0  0  0  0  0  0  0  0  0  0  0
    7.3181   -0.8971   16.3386 C   0  0  0  0  0  0  0  0  0  0  0  0
    8.5367   -1.2110   15.5303 C   0  0  0  0  0  0  0  0  0  0  0  0
    9.6635   -0.5419   15.7547 C   0  0  0  0  0  0  0  0  0  0  0  0
    9.1706    0.6351   16.2523 C   0  0  0  0  0  0  0  0  0  0  0  0
    9.7740    1.9158   16.0630 C   0  0  0  0  0  0  0  0  0  0  0  0
    8.8349    2.8350   16.3816 C   0  0  0  0  0  0  0  0  0  0  0  0
    7.7597    2.1560   16.8587 N   0  0  0  0  0  0  0  0  0  0  0  0
    7.8807    0.6869   16.9641 C   0  0  0  0  0  0  0  0  0  0  0  0
    6.4630   -0.7576   21.3544 H   0  0  0  0  0  0  0  0  0  0  0  0
    6.4411   -1.8595   20.5574 H   0  0  0  0  0  0  0  0  0  0  0  0
    7.9263   -0.7824   20.4429 H   0  0  0  0  0  0  0  0  0  0  0  0
    5.4731    0.3112   19.0256 H   0  0  0  0  0  0  0  0  0  0  0  0
    4.9605    0.8865   22.1310 H   0  0  0  0  0  0  0  0  0  0  0  0
    2.6686    3.2435   22.2364 H   0  0  0  0  0  0  0  0  0  0  0  0
    1.2512    2.6313   22.0837 H   0  0  0  0  0  0  0  0  0  0  0  0
    2.8118    3.6596   24.0881 H   0  0  0  0  0  0  0  0  0  0  0  0
    0.7417    4.3118   24.4244 H   0  0  0  0  0  0  0  0  0  0  0  0
   -0.0241    2.8096   23.9361 H   0  0  0  0  0  0  0  0  0  0  0  0
   -0.1123    2.0495   26.0752 H   0  0  0  0  0  0  0  0  0  0  0  0
    0.3874    3.6555   26.6021 H   0  0  0  0  0  0  0  0  0  0  0  0
    1.9192    1.3672   27.0150 H   0  0  0  0  0  0  0  0  0  0  0  0
    2.5916    2.9954   26.9152 H   0  0  0  0  0  0  0  0  0  0  0  0
    2.8093    0.9392   24.8820 H   0  0  0  0  0  0  0  0  0  0  0  0
    6.6511   -1.3895   15.6288 H   0  0  0  0  0  0  0  0  0  0  0  0
    8.4584   -1.9200   14.7097 H   0  0  0  0  0  0  0  0  0  0  0  0
   10.5734   -0.6619   15.1838 H   0  0  0  0  0  0  0  0  0  0  0  0
   10.7340    2.1221   15.6085 H   0  0  0  0  0  0  0  0  0  0  0  0
    8.8287    3.9149   16.3324 H   0  0  0  0  0  0  0  0  0  0  0  0
    6.9077    2.5839   17.1888 H   0  0  0  0  0  0  0  0  0  0  0  0
  1  2  1  0
  2  3  1  0
  3  4  1  0
  4  5  2  0
  4  6  1  0
  6  7  1  0
  7  8  1  0
  8  9  1  0
  9 10  1  0
 10 11  1  0
  2 12  1  0
 12 13  2  0
 13 14  1  0
 14 15  2  0
 15 16  1  0
 16 17  1  0
 17 18  2  0
 18 19  1  0
 19 20  1  0
 11  7  1  0
 20 12  1  0
 20 16  2  0
  1 21  1  0
  1 22  1  0
  1 23  1  0
  2 24  1  0
  3 25  1  0
  6 26  1  0
  6 27  1  0
  7 28  1  0
  8 29  1  0
  8 30  1  0
  9 31  1  0
  9 32  1  0
 10 33  1  0
 10 34  1  0
 11 35  1  0
 13 36  1  0
 14 37  1  0
 15 38  1  0
 17 39  1  0
 18 40  1  0
 19 41  1  0
M  END
>  <Energy>  (1118) 
834.71175586830032

>  <compound_id>  (1118) 
35867

>  <target_id>  (1118) 
1

>  <reference_id>  (1118) 
97

>  <inspiration_ids>  (1118) 
[97, 70]

>  <energy_score>  (1118) 
789.7762887945945

>  <distance_score>  (1118) 
5.180570344277477

>  <path>  (1118) 
/opt/xchem-fragalysis-2/maxwin/BulkDock/SCRATCH/511013/C35867-P97/C35867-P97.minimised.mol

>  <scratch_subdir>  (1118) 
/opt/xchem-fragalysis-2/maxwin/BulkDock/SCRATCH/511013/C35867-P97

>  <fragmenstein_runtime>  (1118) 
6.800480365753174

>  <fragmenstein_outcome>  (1118) 
too moved

>  <fragmenstein_mode>  (1118) 
expansion

>  <fragmenstein_error>  (1118) 


$$$$
C35867-P70
     RDKit          3D

 41 43  0  0  0  0  0  0  0  0999 V2000
    6.8816   -1.9825   14.6433 C   0  0  0  0  0  0  0  0  0  0  0  0
    7.2083   -1.2748   15.9606 C   0  0  0  0  0  0  0  0  0  0  0  0
    5.7632   -0.9832   17.0722 N   0  0  0  0  0  0  0  0  0  0  0  0
    4.2431   -1.8367   17.2304 C   0  0  0  0  0  0  0  0  0  0  0  0
    3.9400   -2.8853   16.6635 O   0  0  0  0  0  0  0  0  0  0  0  0
    2.7486   -1.1659   18.1368 C   0  0  0  0  0  0  0  0  0  0  0  0
    1.3833   -0.2168   17.7839 C   0  0  0  0  0  0  0  0  0  0  0  0
    0.2073   -0.5983   16.8848 C   0  0  0  0  0  0  0  0  0  0  0  0
   -0.1620    0.6631   16.1362 C   0  0  0  0  0  0  0  0  0  0  0  0
    0.4432    1.7907   16.9301 C   0  0  0  0  0  0  0  0  0  0  0  0
    1.5856    1.2270   17.6462 N   0  0  0  0  0  0  0  0  0  0  0  0
    8.7209   -0.6510   15.8686 C   0  0  0  0  0  0  0  0  0  0  0  0
    9.7918   -1.4285   15.3027 C   0  0  0  0  0  0  0  0  0  0  0  0
   11.1082   -1.0019   15.1128 C   0  0  0  0  0  0  0  0  0  0  0  0
   11.4330    0.3184   15.3317 C   0  0  0  0  0  0  0  0  0  0  0  0
   10.4101    1.1904   15.7281 C   0  0  0  0  0  0  0  0  0  0  0  0
   10.3894    2.6024   15.8739 C   0  0  0  0  0  0  0  0  0  0  0  0
    9.1220    2.9526   16.2582 C   0  0  0  0  0  0  0  0  0  0  0  0
    8.4036    1.8011   16.4401 N   0  0  0  0  0  0  0  0  0  0  0  0
    9.1260    0.6986   16.0317 C   0  0  0  0  0  0  0  0  0  0  0  0
    6.9989   -1.3846   13.7377 H   0  0  0  0  0  0  0  0  0  0  0  0
    7.6499   -2.7223   14.5194 H   0  0  0  0  0  0  0  0  0  0  0  0
    5.8927   -2.4270   14.6176 H   0  0  0  0  0  0  0  0  0  0  0  0
    6.9812   -0.2611   15.7047 H   0  0  0  0  0  0  0  0  0  0  0  0
    5.7776   -0.2540   17.6771 H   0  0  0  0  0  0  0  0  0  0  0  0
    2.1420   -2.0313   17.7631 H   0  0  0  0  0  0  0  0  0  0  0  0
    2.4993   -1.1182   19.1255 H   0  0  0  0  0  0  0  0  0  0  0  0
    0.8653   -0.3498   18.7269 H   0  0  0  0  0  0  0  0  0  0  0  0
    0.3495   -1.4188   16.2054 H   0  0  0  0  0  0  0  0  0  0  0  0
   -0.6530   -0.9293   17.4714 H   0  0  0  0  0  0  0  0  0  0  0  0
   -1.2456    0.7712   16.0251 H   0  0  0  0  0  0  0  0  0  0  0  0
    0.2693    0.6359   15.1297 H   0  0  0  0  0  0  0  0  0  0  0  0
   -0.2883    2.1877   17.6275 H   0  0  0  0  0  0  0  0  0  0  0  0
    0.7588    2.6167   16.2856 H   0  0  0  0  0  0  0  0  0  0  0  0
    1.5541    1.6364   18.5911 H   0  0  0  0  0  0  0  0  0  0  0  0
    9.6187   -2.4310   14.9127 H   0  0  0  0  0  0  0  0  0  0  0  0
   11.8458   -1.6847   14.6989 H   0  0  0  0  0  0  0  0  0  0  0  0
   12.4302    0.6874   15.1146 H   0  0  0  0  0  0  0  0  0  0  0  0
   11.2078    3.2864   15.6930 H   0  0  0  0  0  0  0  0  0  0  0  0
    8.6741    3.9139   16.4739 H   0  0  0  0  0  0  0  0  0  0  0  0
    7.4451    1.7628   16.7767 H   0  0  0  0  0  0  0  0  0  0  0  0
  1  2  1  0
  2  3  1  0
  3  4  1  0
  4  5  2  0
  4  6  1  0
  6  7  1  0
  7  8  1  0
  8  9  1  0
  9 10  1  0
 10 11  1  0
  2 12  1  0
 12 13  2  0
 13 14  1  0
 14 15  2  0
 15 16  1  0
 16 17  1  0
 17 18  2  0
 18 19  1  0
 19 20  1  0
 11  7  1  0
 20 12  1  0
 20 16  2  0
  1 21  1  0
  1 22  1  0
  1 23  1  0
  2 24  1  0
  3 25  1  0
  6 26  1  0
  6 27  1  0
  7 28  1  0
  8 29  1  0
  8 30  1  0
  9 31  1  0
  9 32  1  0
 10 33  1  0
 10 34  1  0
 11 35  1  0
 13 36  1  0
 14 37  1  0
 15 38  1  0
 17 39  1  0
 18 40  1  0
 19 41  1  0
M  END
>  <Energy>  (1119) 
254.77061060529533

>  <compound_id>  (1119) 
35867

>  <target_id>  (1119) 
1

>  <reference_id>  (1119) 
70

>  <inspiration_ids>  (1119) 
[97, 70]

>  <energy_score>  (1119) 
209.83514353158364

>  <distance_score>  (1119) 
7.7598853920172

>  <path>  (1119) 
/opt/xchem-fragalysis-2/maxwin/BulkDock/SCRATCH/511013/C35867-P70/C35867-P70.minimised.mol

>  <scratch_subdir>  (1119) 
/opt/xchem-fragalysis-2/maxwin/BulkDock/SCRATCH/511013/C35867-P70

>  <fragmenstein_runtime>  (1119) 
9.213889122009277

>  <fragmenstein_outcome>  (1119) 
too moved

>  <fragmenstein_mode>  (1119) 
expansion

>  <fragmenstein_error>  (1119) 


$$$$
C35868-P97
     RDKit          3D

 44 46  0  0  0  0  0  0  0  0999 V2000
    7.9570    1.6228   16.7595 C   0  0  0  0  0  0  0  0  0  0  0  0
    7.5115   -0.0476   17.3163 C   0  0  0  0  0  0  0  0  0  0  0  0
    6.3855    0.4397   18.9492 N   0  0  0  0  0  0  0  0  0  0  0  0
    6.3061   -0.1459   20.4917 C   0  0  0  0  0  0  0  0  0  0  0  0
    7.0493   -0.9571   20.8641 O   0  0  0  0  0  0  0  0  0  0  0  0
    4.5771    0.6771   21.5386 C   0  0  0  0  0  0  0  0  0  0  0  0
    3.0037    1.9237   22.1928 C   0  0  0  0  0  0  0  0  0  0  0  0
    1.9174    2.5972   21.1806 C   0  0  0  0  0  0  0  0  0  0  0  0
    1.8447    4.1143   21.2890 C   0  0  0  0  0  0  0  0  0  0  0  0
    1.9549    4.2882   22.7569 C   0  0  0  0  0  0  0  0  0  0  0  0
    3.1117    3.4553   23.0098 N   0  0  0  0  0  0  0  0  0  0  0  0
    8.8798   -0.5014   16.4696 C   0  0  0  0  0  0  0  0  0  0  0  0
   10.4171    0.0183   16.2213 C   0  0  0  0  0  0  0  0  0  0  0  0
   10.4029   -0.7234   14.9347 C   0  0  0  0  0  0  0  0  0  0  0  0
   11.0651   -2.0916   14.9516 C   0  0  0  0  0  0  0  0  0  0  0  0
   12.2301   -1.4711   14.1475 C   0  0  0  0  0  0  0  0  0  0  0  0
   11.3949   -0.1809   13.9367 C   0  0  0  0  0  0  0  0  0  0  0  0
    8.9051   -0.5367   14.8868 C   0  0  0  0  0  0  0  0  0  0  0  0
    7.4063    2.4546   17.2148 H   0  0  0  0  0  0  0  0  0  0  0  0
    8.9987    1.8496   16.9738 H   0  0  0  0  0  0  0  0  0  0  0  0
    7.8268    1.7026   15.6958 H   0  0  0  0  0  0  0  0  0  0  0  0
    6.7338   -0.4348   16.6572 H   0  0  0  0  0  0  0  0  0  0  0  0
    5.7819    1.1218   18.8678 H   0  0  0  0  0  0  0  0  0  0  0  0
    4.3815   -0.3903   21.9430 H   0  0  0  0  0  0  0  0  0  0  0  0
    3.6312    0.4321   21.2545 H   0  0  0  0  0  0  0  0  0  0  0  0
    2.5535    1.6007   23.1259 H   0  0  0  0  0  0  0  0  0  0  0  0
    0.9104    2.3623   21.4926 H   0  0  0  0  0  0  0  0  0  0  0  0
    2.0211    2.3555   20.1388 H   0  0  0  0  0  0  0  0  0  0  0  0
    0.9014    4.5064   20.8945 H   0  0  0  0  0  0  0  0  0  0  0  0
    2.6626    4.6009   20.7443 H   0  0  0  0  0  0  0  0  0  0  0  0
    2.1375    5.3273   23.0427 H   0  0  0  0  0  0  0  0  0  0  0  0
    1.0726    3.9233   23.2945 H   0  0  0  0  0  0  0  0  0  0  0  0
    3.0971    3.2018   23.9977 H   0  0  0  0  0  0  0  0  0  0  0  0
    8.8549   -1.5604   16.5613 H   0  0  0  0  0  0  0  0  0  0  0  0
   11.2761   -0.4203   16.7220 H   0  0  0  0  0  0  0  0  0  0  0  0
   10.5741    1.0948   16.1047 H   0  0  0  0  0  0  0  0  0  0  0  0
   11.3668   -2.4945   15.9229 H   0  0  0  0  0  0  0  0  0  0  0  0
   10.5423   -2.8903   14.4259 H   0  0  0  0  0  0  0  0  0  0  0  0
   13.1354   -1.3120   14.7438 H   0  0  0  0  0  0  0  0  0  0  0  0
   12.5002   -2.0090   13.2358 H   0  0  0  0  0  0  0  0  0  0  0  0
   11.9257    0.7345   14.2219 H   0  0  0  0  0  0  0  0  0  0  0  0
   11.0120   -0.0181   12.9297 H   0  0  0  0  0  0  0  0  0  0  0  0
    8.6816    0.3773   14.3575 H   0  0  0  0  0  0  0  0  0  0  0  0
    8.2825   -1.3449   14.4939 H   0  0  0  0  0  0  0  0  0  0  0  0
  1  2  1  0
  2  3  1  0
  3  4  1  0
  4  5  2  0
  4  6  1  0
  6  7  1  0
  7  8  1  0
  8  9  1  0
  9 10  1  0
 10 11  1  0
  2 12  1  0
 12 13  1  0
 13 14  1  0
 14 15  1  0
 15 16  1  0
 16 17  1  0
 14 18  1  0
 11  7  1  0
 18 12  1  0
 17 14  1  0
  1 19  1  0
  1 20  1  0
  1 21  1  0
  2 22  1  0
  3 23  1  0
  6 24  1  0
  6 25  1  0
  7 26  1  0
  8 27  1  0
  8 28  1  0
  9 29  1  0
  9 30  1  0
 10 31  1  0
 10 32  1  0
 11 33  1  0
 12 34  1  0
 13 35  1  0
 13 36  1  0
 15 37  1  0
 15 38  1  0
 16 39  1  0
 16 40  1  0
 17 41  1  0
 17 42  1  0
 18 43  1  0
 18 44  1  0
M  END
>  <Energy>  (1120) 
621.90021517647961

>  <compound_id>  (1120) 
35868

>  <target_id>  (1120) 
1

>  <reference_id>  (1120) 
97

>  <inspiration_ids>  (1120) 
[97, 70]

>  <energy_score>  (1120) 
577.0923300088359

>  <distance_score>  (1120) 
6.569644663663629

>  <path>  (1120) 
/opt/xchem-fragalysis-2/maxwin/BulkDock/SCRATCH/511013/C35868-P97/C35868-P97.minimised.mol

>  <scratch_subdir>  (1120) 
/opt/xchem-fragalysis-2/maxwin/BulkDock/SCRATCH/511013/C35868-P97

>  <fragmenstein_runtime>  (1120) 
9.131208658218384

>  <fragmenstein_outcome>  (1120) 
too moved

>  <fragmenstein_mode>  (1120) 
expansion

>  <fragmenstein_error>  (1120) 


$$$$
C35868-P70
     RDKit          3D

 44 46  0  0  0  0  0  0  0  0999 V2000
    7.5353    1.5249   21.0913 C   0  0  0  0  0  0  0  0  0  0  0  0
    6.5354    0.0220   20.5664 C   0  0  0  0  0  0  0  0  0  0  0  0
    5.1329    0.7515   21.9514 N   0  0  0  0  0  0  0  0  0  0  0  0
    3.4382    1.5315   21.7859 C   0  0  0  0  0  0  0  0  0  0  0  0
    2.7255    1.7129   20.8072 O   0  0  0  0  0  0  0  0  0  0  0  0
    2.8529    2.2199   23.2658 C   0  0  0  0  0  0  0  0  0  0  0  0
    1.6716    3.2475   23.4761 C   0  0  0  0  0  0  0  0  0  0  0  0
    0.7506    3.6670   22.3525 C   0  0  0  0  0  0  0  0  0  0  0  0
   -0.3583    4.4075   23.0939 C   0  0  0  0  0  0  0  0  0  0  0  0
   -0.4025    3.7930   24.4858 C   0  0  0  0  0  0  0  0  0  0  0  0
    0.7294    2.8639   24.5667 N   0  0  0  0  0  0  0  0  0  0  0  0
    7.4487    0.1579   18.7473 C   0  0  0  0  0  0  0  0  0  0  0  0
    8.2283    1.6522   17.6307 C   0  0  0  0  0  0  0  0  0  0  0  0
    9.0113    0.7747   16.6727 C   0  0  0  0  0  0  0  0  0  0  0  0
    9.1185    1.1329   15.2047 C   0  0  0  0  0  0  0  0  0  0  0  0
   10.3248    0.2491   14.9950 C   0  0  0  0  0  0  0  0  0  0  0  0
   10.5417    0.4928   16.4475 C   0  0  0  0  0  0  0  0  0  0  0  0
    7.9527   -0.2110   16.8478 C   0  0  0  0  0  0  0  0  0  0  0  0
    6.9443    2.3252   21.5470 H   0  0  0  0  0  0  0  0  0  0  0  0
    7.6012    1.8946   20.1035 H   0  0  0  0  0  0  0  0  0  0  0  0
    8.3729    1.6119   21.7756 H   0  0  0  0  0  0  0  0  0  0  0  0
    7.0212   -0.8945   20.8479 H   0  0  0  0  0  0  0  0  0  0  0  0
    5.3859    0.6955   22.9305 H   0  0  0  0  0  0  0  0  0  0  0  0
    2.9238    1.5535   24.1271 H   0  0  0  0  0  0  0  0  0  0  0  0
    3.5803    3.0085   23.4179 H   0  0  0  0  0  0  0  0  0  0  0  0
    2.1381    4.1785   23.8432 H   0  0  0  0  0  0  0  0  0  0  0  0
    0.3137    2.8251   21.8222 H   0  0  0  0  0  0  0  0  0  0  0  0
    1.2481    4.3100   21.6202 H   0  0  0  0  0  0  0  0  0  0  0  0
   -1.3179    4.3273   22.5759 H   0  0  0  0  0  0  0  0  0  0  0  0
   -0.1054    5.4722   23.1660 H   0  0  0  0  0  0  0  0  0  0  0  0
   -0.3234    4.5730   25.2509 H   0  0  0  0  0  0  0  0  0  0  0  0
   -1.3380    3.2496   24.6514 H   0  0  0  0  0  0  0  0  0  0  0  0
    1.1963    2.9671   25.4686 H   0  0  0  0  0  0  0  0  0  0  0  0
    6.6351   -0.5312   18.5579 H   0  0  0  0  0  0  0  0  0  0  0  0
    8.8960    2.4403   17.9161 H   0  0  0  0  0  0  0  0  0  0  0  0
    7.5205    2.3129   17.0885 H   0  0  0  0  0  0  0  0  0  0  0  0
    8.4005    0.6458   14.5708 H   0  0  0  0  0  0  0  0  0  0  0  0
    9.3478    2.1912   15.0495 H   0  0  0  0  0  0  0  0  0  0  0  0
   10.1108   -0.7991   14.7660 H   0  0  0  0  0  0  0  0  0  0  0  0
   11.0896    0.6237   14.3111 H   0  0  0  0  0  0  0  0  0  0  0  0
   11.0698   -0.3829   16.8250 H   0  0  0  0  0  0  0  0  0  0  0  0
   11.1908    1.3824   16.5360 H   0  0  0  0  0  0  0  0  0  0  0  0
    7.0986   -0.0924   16.1778 H   0  0  0  0  0  0  0  0  0  0  0  0
    8.3894   -1.1154   16.3918 H   0  0  0  0  0  0  0  0  0  0  0  0
  1  2  1  0
  2  3  1  0
  3  4  1  0
  4  5  2  0
  4  6  1  0
  6  7  1  0
  7  8  1  0
  8  9  1  0
  9 10  1  0
 10 11  1  0
  2 12  1  0
 12 13  1  0
 13 14  1  0
 14 15  1  0
 15 16  1  0
 16 17  1  0
 14 18  1  0
 11  7  1  0
 18 12  1  0
 17 14  1  0
  1 19  1  0
  1 20  1  0
  1 21  1  0
  2 22  1  0
  3 23  1  0
  6 24  1  0
  6 25  1  0
  7 26  1  0
  8 27  1  0
  8 28  1  0
  9 29  1  0
  9 30  1  0
 10 31  1  0
 10 32  1  0
 11 33  1  0
 12 34  1  0
 13 35  1  0
 13 36  1  0
 15 37  1  0
 15 38  1  0
 16 39  1  0
 16 40  1  0
 17 41  1  0
 17 42  1  0
 18 43  1  0
 18 44  1  0
M  END
>  <Energy>  (1121) 
591.94038001324066

>  <compound_id>  (1121) 
35868

>  <target_id>  (1121) 
1

>  <reference_id>  (1121) 
70

>  <inspiration_ids>  (1121) 
[97, 70]

>  <energy_score>  (1121) 
547.132494845584

>  <distance_score>  (1121) 
6.713772506928419

>  <path>  (1121) 
/opt/xchem-fragalysis-2/maxwin/BulkDock/SCRATCH/511013/C35868-P70/C35868-P70.minimised.mol

>  <scratch_subdir>  (1121) 
/opt/xchem-fragalysis-2/maxwin/BulkDock/SCRATCH/511013/C35868-P70

>  <fragmenstein_runtime>  (1121) 
8.97447156906128

>  <fragmenstein_outcome>  (1121) 
too moved

>  <fragmenstein_mode>  (1121) 
expansion

>  <fragmenstein_error>  (1121) 


$$$$
C35885-P28
     RDKit          3D

 36 38  0  0  0  0  0  0  0  0999 V2000
   -4.4343  -18.9381   20.1446 O   0  0  0  0  0  0  0  0  0  0  0  0
   -5.2999  -18.1780   20.4257 C   0  0  0  0  0  0  0  0  0  0  0  0
   -5.4019  -16.8849   21.6830 N   0  0  0  0  0  0  0  0  0  0  0  0
   -4.1223  -16.1082   22.9716 C   0  0  0  0  0  0  0  0  0  0  0  0
   -3.3462  -16.0023   24.7115 C   0  0  0  0  0  0  0  0  0  0  0  0
   -2.5352  -15.5912   26.1672 C   0  0  0  0  0  0  0  0  0  0  0  0
   -1.5906  -14.8005   25.6965 C   0  0  0  0  0  0  0  0  0  0  0  0
   -0.2819  -14.6231   26.0071 N   0  0  0  0  0  0  0  0  0  0  0  0
    0.4423  -14.4989   24.8575 C   0  0  0  0  0  0  0  0  0  0  0  0
   -0.4618  -14.6196   23.8333 C   0  0  0  0  0  0  0  0  0  0  0  0
   -1.8746  -14.5603   24.3707 C   0  0  0  0  0  0  0  0  0  0  0  0
   -3.5650  -14.8905   23.6724 C   0  0  0  0  0  0  0  0  0  0  0  0
   -6.7248  -17.8911   19.7113 N   0  0  0  0  0  0  0  0  0  0  0  0
   -7.4651  -18.5557   18.1110 C   0  0  0  0  0  0  0  0  0  0  0  0
   -7.7881  -20.0832   18.1796 C   0  0  0  0  0  0  0  0  0  0  0  0
   -7.2379  -21.0154   17.6493 O   0  0  0  0  0  0  0  0  0  0  0  0
   -8.8778  -20.5134   18.8484 O   0  0  0  0  0  0  0  0  0  0  0  0
   -7.7946  -17.2391   17.3834 C   0  0  0  0  0  0  0  0  0  0  0  0
   -8.3290  -17.3922   16.0297 C   0  0  0  0  0  0  0  0  0  0  0  0
   -9.6783  -18.3377   15.9880 O   0  0  0  0  0  0  0  0  0  0  0  0
   -9.3933  -18.6675   17.4061 C   0  0  0  0  0  0  0  0  0  0  0  0
   -6.2979  -16.5047   21.6894 H   0  0  0  0  0  0  0  0  0  0  0  0
   -2.8177  -16.9610   25.1130 H   0  0  0  0  0  0  0  0  0  0  0  0
   -2.4298  -16.2817   26.9942 H   0  0  0  0  0  0  0  0  0  0  0  0
    0.1397  -14.8843   26.8791 H   0  0  0  0  0  0  0  0  0  0  0  0
    1.5233  -14.4456   24.8639 H   0  0  0  0  0  0  0  0  0  0  0  0
   -0.1917  -14.6891   22.7850 H   0  0  0  0  0  0  0  0  0  0  0  0
   -4.3611  -14.1600   23.8288 H   0  0  0  0  0  0  0  0  0  0  0  0
   -7.1737  -17.1267   20.1592 H   0  0  0  0  0  0  0  0  0  0  0  0
   -8.8876  -21.3382   18.3186 H   0  0  0  0  0  0  0  0  0  0  0  0
   -8.4122  -16.5487   17.9638 H   0  0  0  0  0  0  0  0  0  0  0  0
   -7.0081  -16.5595   17.0841 H   0  0  0  0  0  0  0  0  0  0  0  0
   -8.1209  -16.2771   15.9473 H   0  0  0  0  0  0  0  0  0  0  0  0
   -8.1893  -17.3582   14.9154 H   0  0  0  0  0  0  0  0  0  0  0  0
   -9.5706  -19.7233   17.3003 H   0  0  0  0  0  0  0  0  0  0  0  0
  -10.2076  -18.1606   17.8402 H   0  0  0  0  0  0  0  0  0  0  0  0
  1  2  2  0
  2  3  1  0
  3  4  1  0
  4  5  2  0
  5  6  1  0
  6  7  2  0
  7  8  1  0
  8  9  1  0
  9 10  2  0
 10 11  1  0
 11 12  2  0
  2 13  1  0
 13 14  1  0
 14 15  1  0
 15 16  2  0
 15 17  1  0
 14 18  1  0
 18 19  1  0
 19 20  1  0
 20 21  1  0
 12  4  1  0
 21 14  1  0
 11  7  1  0
  3 22  1  0
  5 23  1  0
  6 24  1  0
  8 25  1  0
  9 26  1  0
 10 27  1  0
 12 28  1  0
 13 29  1  0
 17 30  1  0
 18 31  1  0
 18 32  1  0
 19 33  1  0
 19 34  1  0
 21 35  1  0
 21 36  1  0
M  END
>  <Energy>  (1122) 
946.39885820980282

>  <compound_id>  (1122) 
35885

>  <target_id>  (1122) 
1

>  <reference_id>  (1122) 
28

>  <inspiration_ids>  (1122) 
[28, 40]

>  <energy_score>  (1122) 
927.6371022944813

>  <distance_score>  (1122) 
11.107049293995994

>  <path>  (1122) 
/opt/xchem-fragalysis-2/maxwin/BulkDock/SCRATCH/511013/C35885-P28/C35885-P28.minimised.mol

>  <scratch_subdir>  (1122) 
/opt/xchem-fragalysis-2/maxwin/BulkDock/SCRATCH/511013/C35885-P28

>  <fragmenstein_runtime>  (1122) 
16.895729541778564

>  <fragmenstein_outcome>  (1122) 
too moved

>  <fragmenstein_mode>  (1122) 
expansion

>  <fragmenstein_error>  (1122) 


$$$$
C35885-P40
     RDKit          3D

 36 38  0  0  0  0  0  0  0  0999 V2000
   -2.9115  -16.2387   20.7032 O   0  0  0  0  0  0  0  0  0  0  0  0
   -3.8416  -16.4074   21.4046 C   0  0  0  0  0  0  0  0  0  0  0  0
   -3.9534  -15.7574   23.1037 N   0  0  0  0  0  0  0  0  0  0  0  0
   -2.7344  -14.9314   24.1179 C   0  0  0  0  0  0  0  0  0  0  0  0
   -1.6644  -14.2407   24.5083 C   0  0  0  0  0  0  0  0  0  0  0  0
   -1.9115  -13.6542   25.8168 C   0  0  0  0  0  0  0  0  0  0  0  0
   -2.2622  -14.4786   26.9235 C   0  0  0  0  0  0  0  0  0  0  0  0
   -2.7992  -14.3684   28.1889 N   0  0  0  0  0  0  0  0  0  0  0  0
   -2.6946  -15.5909   28.8153 C   0  0  0  0  0  0  0  0  0  0  0  0
   -2.2593  -16.5073   27.8775 C   0  0  0  0  0  0  0  0  0  0  0  0
   -2.1948  -15.7889   26.6704 C   0  0  0  0  0  0  0  0  0  0  0  0
   -2.3552  -15.9628   25.2821 C   0  0  0  0  0  0  0  0  0  0  0  0
   -5.0065  -17.2195   21.2121 N   0  0  0  0  0  0  0  0  0  0  0  0
   -5.3439  -18.1638   20.1518 C   0  0  0  0  0  0  0  0  0  0  0  0
   -4.9615  -19.5990   19.9165 C   0  0  0  0  0  0  0  0  0  0  0  0
   -4.9722  -20.0034   18.7662 O   0  0  0  0  0  0  0  0  0  0  0  0
   -4.7116  -20.5154   20.8114 O   0  0  0  0  0  0  0  0  0  0  0  0
   -6.7631  -18.4080   20.1927 C   0  0  0  0  0  0  0  0  0  0  0  0
   -6.9412  -18.2252   18.7000 C   0  0  0  0  0  0  0  0  0  0  0  0
   -6.0356  -17.2718   18.4062 O   0  0  0  0  0  0  0  0  0  0  0  0
   -4.8295  -17.6977   18.8070 C   0  0  0  0  0  0  0  0  0  0  0  0
   -4.8612  -15.9534   23.4747 H   0  0  0  0  0  0  0  0  0  0  0  0
   -0.8956  -13.8078   23.8810 H   0  0  0  0  0  0  0  0  0  0  0  0
   -2.3819  -12.6685   25.8483 H   0  0  0  0  0  0  0  0  0  0  0  0
   -3.1080  -13.5094   28.6257 H   0  0  0  0  0  0  0  0  0  0  0  0
   -2.9710  -15.6994   29.8549 H   0  0  0  0  0  0  0  0  0  0  0  0
   -2.2075  -17.5769   28.0237 H   0  0  0  0  0  0  0  0  0  0  0  0
   -2.3479  -17.0200   25.2212 H   0  0  0  0  0  0  0  0  0  0  0  0
   -5.6399  -17.0662   21.9742 H   0  0  0  0  0  0  0  0  0  0  0  0
   -4.2138  -21.2294   20.3887 H   0  0  0  0  0  0  0  0  0  0  0  0
   -7.1184  -17.6955   20.9470 H   0  0  0  0  0  0  0  0  0  0  0  0
   -7.1194  -19.3651   20.5794 H   0  0  0  0  0  0  0  0  0  0  0  0
   -6.9229  -19.2139   18.2883 H   0  0  0  0  0  0  0  0  0  0  0  0
   -7.7018  -17.7414   18.0893 H   0  0  0  0  0  0  0  0  0  0  0  0
   -4.1241  -16.8866   18.7632 H   0  0  0  0  0  0  0  0  0  0  0  0
   -4.4540  -18.3266   17.9934 H   0  0  0  0  0  0  0  0  0  0  0  0
  1  2  2  0
  2  3  1  0
  3  4  1  0
  4  5  2  0
  5  6  1  0
  6  7  2  0
  7  8  1  0
  8  9  1  0
  9 10  2  0
 10 11  1  0
 11 12  2  0
  2 13  1  0
 13 14  1  0
 14 15  1  0
 15 16  2  0
 15 17  1  0
 14 18  1  0
 18 19  1  0
 19 20  1  0
 20 21  1  0
 12  4  1  0
 21 14  1  0
 11  7  1  0
  3 22  1  0
  5 23  1  0
  6 24  1  0
  8 25  1  0
  9 26  1  0
 10 27  1  0
 12 28  1  0
 13 29  1  0
 17 30  1  0
 18 31  1  0
 18 32  1  0
 19 33  1  0
 19 34  1  0
 21 35  1  0
 21 36  1  0
M  END
>  <Energy>  (1123) 
334.87060965902339

>  <compound_id>  (1123) 
35885

>  <target_id>  (1123) 
1

>  <reference_id>  (1123) 
40

>  <inspiration_ids>  (1123) 
[28, 40]

>  <energy_score>  (1123) 
316.1088537437006

>  <distance_score>  (1123) 
11.35446958897233

>  <path>  (1123) 
/opt/xchem-fragalysis-2/maxwin/BulkDock/SCRATCH/511013/C35885-P40/C35885-P40.minimised.mol

>  <scratch_subdir>  (1123) 
/opt/xchem-fragalysis-2/maxwin/BulkDock/SCRATCH/511013/C35885-P40

>  <fragmenstein_runtime>  (1123) 
9.380414009094238

>  <fragmenstein_outcome>  (1123) 
too moved

>  <fragmenstein_mode>  (1123) 
expansion

>  <fragmenstein_error>  (1123) 


$$$$
C35886-P28
     RDKit          3D

 37 39  0  0  0  0  0  0  0  0999 V2000
   -3.5933  -22.1629   23.3036 O   0  0  0  0  0  0  0  0  0  0  0  0
   -2.8591  -21.6154   22.5175 C   0  0  0  0  0  0  0  0  0  0  0  0
   -3.5335  -21.3590   20.9317 C   0  0  0  0  0  0  0  0  0  0  0  0
   -4.2513  -19.6272   20.3901 C   0  0  0  0  0  0  0  0  0  0  0  0
   -5.3875  -19.2811   19.8681 C   0  0  0  0  0  0  0  0  0  0  0  0
   -6.0763  -19.8256   18.9184 O   0  0  0  0  0  0  0  0  0  0  0  0
   -5.7415  -17.9433   20.9094 O   0  0  0  0  0  0  0  0  0  0  0  0
   -4.7982  -18.3632   18.9674 C   0  0  0  0  0  0  0  0  0  0  0  0
   -6.7128  -18.0268   19.1154 C   0  0  0  0  0  0  0  0  0  0  0  0
   -7.1692  -19.2105   20.5009 O   0  0  0  0  0  0  0  0  0  0  0  0
   -5.5666  -20.0501   20.9125 C   0  0  0  0  0  0  0  0  0  0  0  0
   -1.4983  -21.0246   22.7079 N   0  0  0  0  0  0  0  0  0  0  0  0
   -0.7060  -20.8431   23.8995 C   0  0  0  0  0  0  0  0  0  0  0  0
   -1.3436  -20.7395   25.1473 C   0  0  0  0  0  0  0  0  0  0  0  0
   -0.8275  -19.9514   26.2138 C   0  0  0  0  0  0  0  0  0  0  0  0
    0.3925  -19.2893   26.0297 C   0  0  0  0  0  0  0  0  0  0  0  0
    1.0502  -18.3681   26.8214 N   0  0  0  0  0  0  0  0  0  0  0  0
    2.2184  -17.9812   26.2185 C   0  0  0  0  0  0  0  0  0  0  0  0
    2.3189  -18.6659   25.0250 C   0  0  0  0  0  0  0  0  0  0  0  0
    1.1465  -19.4722   24.8688 C   0  0  0  0  0  0  0  0  0  0  0  0
    0.5851  -20.2578   23.7991 C   0  0  0  0  0  0  0  0  0  0  0  0
   -4.3058  -22.1185   20.9491 H   0  0  0  0  0  0  0  0  0  0  0  0
   -2.8667  -21.9031   20.2495 H   0  0  0  0  0  0  0  0  0  0  0  0
   -6.6571  -18.1507   21.2538 H   0  0  0  0  0  0  0  0  0  0  0  0
   -4.5597  -18.7271   17.9377 H   0  0  0  0  0  0  0  0  0  0  0  0
   -4.4247  -17.3405   19.0140 H   0  0  0  0  0  0  0  0  0  0  0  0
   -6.9183  -17.1203   19.6349 H   0  0  0  0  0  0  0  0  0  0  0  0
   -7.2850  -18.2980   18.2302 H   0  0  0  0  0  0  0  0  0  0  0  0
   -5.5986  -20.9787   20.3840 H   0  0  0  0  0  0  0  0  0  0  0  0
   -5.4807  -20.6577   21.7806 H   0  0  0  0  0  0  0  0  0  0  0  0
   -1.1399  -20.7228   21.8148 H   0  0  0  0  0  0  0  0  0  0  0  0
   -2.3441  -21.1546   25.2799 H   0  0  0  0  0  0  0  0  0  0  0  0
   -1.4170  -19.8183   27.1182 H   0  0  0  0  0  0  0  0  0  0  0  0
    0.7095  -18.0330   27.7128 H   0  0  0  0  0  0  0  0  0  0  0  0
    2.8742  -17.2587   26.6866 H   0  0  0  0  0  0  0  0  0  0  0  0
    3.1241  -18.5583   24.3094 H   0  0  0  0  0  0  0  0  0  0  0  0
    1.1188  -20.2792   22.8521 H   0  0  0  0  0  0  0  0  0  0  0  0
  1  2  2  0
  2  3  1  0
  3  4  1  0
  4  5  1  0
  5  6  2  0
  5  7  1  0
  4  8  1  0
  8  9  1  0
  9 10  1  0
 10 11  1  0
  2 12  1  0
 12 13  1  0
 13 14  2  0
 14 15  1  0
 15 16  2  0
 16 17  1  0
 17 18  1  0
 18 19  2  0
 19 20  1  0
 20 21  2  0
 11  4  1  0
 21 13  1  0
 20 16  1  0
  3 22  1  0
  3 23  1  0
  7 24  1  0
  8 25  1  0
  8 26  1  0
  9 27  1  0
  9 28  1  0
 11 29  1  0
 11 30  1  0
 12 31  1  0
 14 32  1  0
 15 33  1  0
 17 34  1  0
 18 35  1  0
 19 36  1  0
 21 37  1  0
M  END
>  <Energy>  (1124) 
786.03730494469596

>  <compound_id>  (1124) 
35886

>  <target_id>  (1124) 
1

>  <reference_id>  (1124) 
28

>  <inspiration_ids>  (1124) 
[28, 40]

>  <energy_score>  (1124) 
776.4400169206901

>  <distance_score>  (1124) 
13.870050665754347

>  <path>  (1124) 
/opt/xchem-fragalysis-2/maxwin/BulkDock/SCRATCH/511013/C35886-P28/C35886-P28.minimised.mol

>  <scratch_subdir>  (1124) 
/opt/xchem-fragalysis-2/maxwin/BulkDock/SCRATCH/511013/C35886-P28

>  <fragmenstein_runtime>  (1124) 
14.203700065612793

>  <fragmenstein_outcome>  (1124) 
too moved

>  <fragmenstein_mode>  (1124) 
expansion

>  <fragmenstein_error>  (1124) 


$$$$
C35886-P40
     RDKit          3D

 37 39  0  0  0  0  0  0  0  0999 V2000
   -3.7870   -8.9869   21.1316 O   0  0  0  0  0  0  0  0  0  0  0  0
   -4.1208  -10.0023   21.7505 C   0  0  0  0  0  0  0  0  0  0  0  0
   -5.2218  -11.4081   20.5402 C   0  0  0  0  0  0  0  0  0  0  0  0
   -6.7651  -11.6768   19.2416 C   0  0  0  0  0  0  0  0  0  0  0  0
   -8.1163  -10.4911   18.3283 C   0  0  0  0  0  0  0  0  0  0  0  0
   -9.3499  -10.5226   18.3581 O   0  0  0  0  0  0  0  0  0  0  0  0
   -7.6440   -9.5429   17.4481 O   0  0  0  0  0  0  0  0  0  0  0  0
   -7.9749  -12.6556   18.9313 C   0  0  0  0  0  0  0  0  0  0  0  0
   -7.7100  -12.6192   17.5230 C   0  0  0  0  0  0  0  0  0  0  0  0
   -6.2631  -12.7681   17.6943 O   0  0  0  0  0  0  0  0  0  0  0  0
   -5.6875  -11.7327   18.1334 C   0  0  0  0  0  0  0  0  0  0  0  0
   -3.8629  -10.2699   23.5119 N   0  0  0  0  0  0  0  0  0  0  0  0
   -3.1071   -9.1928   24.8239 C   0  0  0  0  0  0  0  0  0  0  0  0
   -4.7352   -8.8118   25.4148 C   0  0  0  0  0  0  0  0  0  0  0  0
   -4.9324   -7.9962   26.6505 C   0  0  0  0  0  0  0  0  0  0  0  0
   -3.6048   -7.5669   27.3130 C   0  0  0  0  0  0  0  0  0  0  0  0
   -2.9402   -7.2141   28.7139 N   0  0  0  0  0  0  0  0  0  0  0  0
   -1.6852   -7.4306   29.2911 C   0  0  0  0  0  0  0  0  0  0  0  0
   -1.0763   -7.7811   28.1689 C   0  0  0  0  0  0  0  0  0  0  0  0
   -2.3784   -7.5553   26.7992 C   0  0  0  0  0  0  0  0  0  0  0  0
   -2.0320   -7.4063   25.0415 C   0  0  0  0  0  0  0  0  0  0  0  0
   -4.4262  -12.0198   20.1153 H   0  0  0  0  0  0  0  0  0  0  0  0
   -6.0417  -11.7281   21.2490 H   0  0  0  0  0  0  0  0  0  0  0  0
   -8.4599   -9.1635   17.0595 H   0  0  0  0  0  0  0  0  0  0  0  0
   -7.9551  -13.3899   19.6852 H   0  0  0  0  0  0  0  0  0  0  0  0
   -9.0552  -12.4510   19.0016 H   0  0  0  0  0  0  0  0  0  0  0  0
   -8.0929  -11.8182   16.8750 H   0  0  0  0  0  0  0  0  0  0  0  0
   -7.7426  -13.4261   16.8485 H   0  0  0  0  0  0  0  0  0  0  0  0
   -4.6509  -11.9608   18.3780 H   0  0  0  0  0  0  0  0  0  0  0  0
   -5.6701  -10.9758   17.3225 H   0  0  0  0  0  0  0  0  0  0  0  0
   -4.3019  -11.1432   23.7835 H   0  0  0  0  0  0  0  0  0  0  0  0
   -5.5786   -9.3425   24.9680 H   0  0  0  0  0  0  0  0  0  0  0  0
   -5.8794   -7.9780   27.1870 H   0  0  0  0  0  0  0  0  0  0  0  0
   -2.7949   -6.2848   28.4616 H   0  0  0  0  0  0  0  0  0  0  0  0
   -1.4305   -7.2091   30.3211 H   0  0  0  0  0  0  0  0  0  0  0  0
   -0.0067   -7.8683   28.0292 H   0  0  0  0  0  0  0  0  0  0  0  0
   -1.4267   -6.9458   24.2460 H   0  0  0  0  0  0  0  0  0  0  0  0
  1  2  2  0
  2  3  1  0
  3  4  1  0
  4  5  1  0
  5  6  2  0
  5  7  1  0
  4  8  1  0
  8  9  1  0
  9 10  1  0
 10 11  1  0
  2 12  1  0
 12 13  1  0
 13 14  2  0
 14 15  1  0
 15 16  2  0
 16 17  1  0
 17 18  1  0
 18 19  2  0
 19 20  1  0
 20 21  2  0
 11  4  1  0
 21 13  1  0
 20 16  1  0
  3 22  1  0
  3 23  1  0
  7 24  1  0
  8 25  1  0
  8 26  1  0
  9 27  1  0
  9 28  1  0
 11 29  1  0
 11 30  1  0
 12 31  1  0
 14 32  1  0
 15 33  1  0
 17 34  1  0
 18 35  1  0
 19 36  1  0
 21 37  1  0
M  END
>  <Energy>  (1125) 
1032.6692847775037

>  <compound_id>  (1125) 
35886

>  <target_id>  (1125) 
1

>  <reference_id>  (1125) 
40

>  <inspiration_ids>  (1125) 
[28, 40]

>  <energy_score>  (1125) 
1023.0719967534839

>  <distance_score>  (1125) 
10.724415351056987

>  <path>  (1125) 
/opt/xchem-fragalysis-2/maxwin/BulkDock/SCRATCH/511013/C35886-P40/C35886-P40.minimised.mol

>  <scratch_subdir>  (1125) 
/opt/xchem-fragalysis-2/maxwin/BulkDock/SCRATCH/511013/C35886-P40

>  <fragmenstein_runtime>  (1125) 
15.762775659561157

>  <fragmenstein_outcome>  (1125) 
too moved

>  <fragmenstein_mode>  (1125) 
expansion

>  <fragmenstein_error>  (1125) 


$$$$
C35887-P28
     RDKit          3D

 40 42  0  0  0  0  0  0  0  0999 V2000
   -7.5764  -17.4906   17.8509 O   0  0  0  0  0  0  0  0  0  0  0  0
   -6.8972  -18.1784   18.6096 C   0  0  0  0  0  0  0  0  0  0  0  0
   -7.1798  -19.4734   18.5678 O   0  0  0  0  0  0  0  0  0  0  0  0
   -5.8076  -17.7394   19.7085 C   0  0  0  0  0  0  0  0  0  0  0  0
   -5.1902  -19.0488   19.7413 C   0  0  0  0  0  0  0  0  0  0  0  0
   -6.0142  -19.5213   20.8275 C   0  0  0  0  0  0  0  0  0  0  0  0
   -6.2072  -18.6954   21.9609 O   0  0  0  0  0  0  0  0  0  0  0  0
   -5.7776  -17.4706   21.5649 C   0  0  0  0  0  0  0  0  0  0  0  0
   -4.5178  -16.0282   22.0931 C   0  0  0  0  0  0  0  0  0  0  0  0
   -3.5395  -16.0040   21.2858 O   0  0  0  0  0  0  0  0  0  0  0  0
   -4.9932  -14.8049   23.5714 N   0  0  0  0  0  0  0  0  0  0  0  0
   -4.2058  -12.9796   24.2485 C   0  0  0  0  0  0  0  0  0  0  0  0
   -3.0492  -12.7353   25.9822 C   0  0  0  0  0  0  0  0  0  0  0  0
   -2.7103  -11.8609   27.5543 C   0  0  0  0  0  0  0  0  0  0  0  0
   -2.7587  -11.9681   28.9814 C   0  0  0  0  0  0  0  0  0  0  0  0
   -1.8587  -10.9070   30.0482 C   0  0  0  0  0  0  0  0  0  0  0  0
   -1.0610   -9.7796   29.8954 C   0  0  0  0  0  0  0  0  0  0  0  0
   -0.6280   -8.7819   30.7105 N   0  0  0  0  0  0  0  0  0  0  0  0
    0.3258   -8.1353   30.0117 C   0  0  0  0  0  0  0  0  0  0  0  0
    0.4453   -8.8669   28.8305 C   0  0  0  0  0  0  0  0  0  0  0  0
   -0.6965   -9.7016   28.6046 C   0  0  0  0  0  0  0  0  0  0  0  0
   -1.6423  -10.8060   27.5976 C   0  0  0  0  0  0  0  0  0  0  0  0
   -7.8849  -19.7110   17.9379 H   0  0  0  0  0  0  0  0  0  0  0  0
   -6.7379  -17.2392   19.9354 H   0  0  0  0  0  0  0  0  0  0  0  0
   -5.1252  -19.6743   18.8440 H   0  0  0  0  0  0  0  0  0  0  0  0
   -4.2104  -19.1561   20.1167 H   0  0  0  0  0  0  0  0  0  0  0  0
   -7.0582  -19.6280   20.5559 H   0  0  0  0  0  0  0  0  0  0  0  0
   -5.4114  -20.4118   21.0349 H   0  0  0  0  0  0  0  0  0  0  0  0
   -6.8048  -17.0748   21.5822 H   0  0  0  0  0  0  0  0  0  0  0  0
   -5.8818  -15.0695   23.9554 H   0  0  0  0  0  0  0  0  0  0  0  0
   -5.3015  -12.6624   24.4197 H   0  0  0  0  0  0  0  0  0  0  0  0
   -4.2342  -11.8497   24.2125 H   0  0  0  0  0  0  0  0  0  0  0  0
   -2.8739  -13.7217   26.4537 H   0  0  0  0  0  0  0  0  0  0  0  0
   -2.0525  -12.7864   25.5681 H   0  0  0  0  0  0  0  0  0  0  0  0
   -3.2639  -12.8179   29.4415 H   0  0  0  0  0  0  0  0  0  0  0  0
   -1.5474  -11.1065   31.0700 H   0  0  0  0  0  0  0  0  0  0  0  0
   -0.8637   -8.6611   31.6896 H   0  0  0  0  0  0  0  0  0  0  0  0
    0.9153   -7.3417   30.4496 H   0  0  0  0  0  0  0  0  0  0  0  0
    1.3252   -8.6712   28.2471 H   0  0  0  0  0  0  0  0  0  0  0  0
   -1.8547  -10.2911   26.6260 H   0  0  0  0  0  0  0  0  0  0  0  0
  1  2  2  0
  2  3  1  0
  2  4  1  0
  4  5  1  0
  5  6  1  0
  6  7  1  0
  7  8  1  0
  8  9  1  0
  9 10  2  0
  9 11  1  0
 11 12  1  0
 12 13  1  0
 13 14  1  0
 14 15  2  0
 15 16  1  0
 16 17  2  0
 17 18  1  0
 18 19  1  0
 19 20  2  0
 20 21  1  0
 21 22  2  0
  8  4  1  0
 22 14  1  0
 21 17  1  0
  3 23  1  0
  4 24  1  0
  5 25  1  0
  5 26  1  0
  6 27  1  0
  6 28  1  0
  8 29  1  0
 11 30  1  0
 12 31  1  0
 12 32  1  0
 13 33  1  0
 13 34  1  0
 15 35  1  0
 16 36  1  0
 18 37  1  0
 19 38  1  0
 20 39  1  0
 22 40  1  0
M  END
>  <Energy>  (1126) 
826.10411092890251

>  <compound_id>  (1126) 
35887

>  <target_id>  (1126) 
1

>  <reference_id>  (1126) 
28

>  <inspiration_ids>  (1126) 
[28, 40]

>  <energy_score>  (1126) 
787.4727566104433

>  <distance_score>  (1126) 
8.37420560715179

>  <path>  (1126) 
/opt/xchem-fragalysis-2/maxwin/BulkDock/SCRATCH/511013/C35887-P28/C35887-P28.minimised.mol

>  <scratch_subdir>  (1126) 
/opt/xchem-fragalysis-2/maxwin/BulkDock/SCRATCH/511013/C35887-P28

>  <fragmenstein_runtime>  (1126) 
11.226606845855713

>  <fragmenstein_outcome>  (1126) 
too moved

>  <fragmenstein_mode>  (1126) 
expansion

>  <fragmenstein_error>  (1126) 


$$$$
C35887-P40
     RDKit          3D

 40 42  0  0  0  0  0  0  0  0999 V2000
   -9.6919  -22.6269   15.9969 O   0  0  0  0  0  0  0  0  0  0  0  0
   -8.6999  -21.9781   15.9327 C   0  0  0  0  0  0  0  0  0  0  0  0
   -8.1266  -22.1098   14.6615 O   0  0  0  0  0  0  0  0  0  0  0  0
   -7.6648  -20.8360   17.4643 C   0  0  0  0  0  0  0  0  0  0  0  0
   -8.8383  -20.6289   18.1655 C   0  0  0  0  0  0  0  0  0  0  0  0
   -8.8311  -20.5783   19.6058 C   0  0  0  0  0  0  0  0  0  0  0  0
   -7.8229  -19.6752   19.9754 O   0  0  0  0  0  0  0  0  0  0  0  0
   -6.9982  -19.3348   18.7360 C   0  0  0  0  0  0  0  0  0  0  0  0
   -6.3123  -18.3503   20.3515 C   0  0  0  0  0  0  0  0  0  0  0  0
   -5.1623  -17.9892   20.1626 O   0  0  0  0  0  0  0  0  0  0  0  0
   -7.3126  -17.9811   21.7291 N   0  0  0  0  0  0  0  0  0  0  0  0
   -6.9862  -16.8779   23.2990 C   0  0  0  0  0  0  0  0  0  0  0  0
   -6.7437  -14.8403   24.0470 C   0  0  0  0  0  0  0  0  0  0  0  0
   -5.9480  -12.9063   24.3422 C   0  0  0  0  0  0  0  0  0  0  0  0
   -6.4638  -12.6160   25.9789 C   0  0  0  0  0  0  0  0  0  0  0  0
   -6.7724  -11.5789   26.8870 C   0  0  0  0  0  0  0  0  0  0  0  0
   -7.0900  -10.4428   26.2346 C   0  0  0  0  0  0  0  0  0  0  0  0
   -7.4769   -9.2253   26.7285 N   0  0  0  0  0  0  0  0  0  0  0  0
   -8.0545   -8.4995   25.7310 C   0  0  0  0  0  0  0  0  0  0  0  0
   -7.9681   -9.2609   24.5838 C   0  0  0  0  0  0  0  0  0  0  0  0
   -7.1707  -10.4489   24.8526 C   0  0  0  0  0  0  0  0  0  0  0  0
   -6.4496  -11.6392   23.9187 C   0  0  0  0  0  0  0  0  0  0  0  0
   -7.2185  -21.7906   14.5383 H   0  0  0  0  0  0  0  0  0  0  0  0
   -6.7411  -21.4114   17.6520 H   0  0  0  0  0  0  0  0  0  0  0  0
   -9.2817  -21.5153   17.9431 H   0  0  0  0  0  0  0  0  0  0  0  0
   -9.2926  -19.8020   17.6530 H   0  0  0  0  0  0  0  0  0  0  0  0
   -9.7795  -20.2167   19.7390 H   0  0  0  0  0  0  0  0  0  0  0  0
   -9.0566  -21.3801   20.3268 H   0  0  0  0  0  0  0  0  0  0  0  0
   -7.2305  -18.4204   18.1629 H   0  0  0  0  0  0  0  0  0  0  0  0
   -8.1815  -18.4805   21.6526 H   0  0  0  0  0  0  0  0  0  0  0  0
   -7.9522  -16.7324   22.9301 H   0  0  0  0  0  0  0  0  0  0  0  0
   -6.4770  -17.7088   23.7616 H   0  0  0  0  0  0  0  0  0  0  0  0
   -6.8783  -14.9096   25.1718 H   0  0  0  0  0  0  0  0  0  0  0  0
   -7.7071  -14.7593   24.6149 H   0  0  0  0  0  0  0  0  0  0  0  0
   -6.6963  -13.5257   26.5345 H   0  0  0  0  0  0  0  0  0  0  0  0
   -6.9163  -11.7366   27.9465 H   0  0  0  0  0  0  0  0  0  0  0  0
   -7.4264   -8.9776   27.7077 H   0  0  0  0  0  0  0  0  0  0  0  0
   -8.5035   -7.5351   25.9212 H   0  0  0  0  0  0  0  0  0  0  0  0
   -8.3449   -8.9556   23.6257 H   0  0  0  0  0  0  0  0  0  0  0  0
   -6.8449  -11.6064   22.9123 H   0  0  0  0  0  0  0  0  0  0  0  0
  1  2  2  0
  2  3  1  0
  2  4  1  0
  4  5  1  0
  5  6  1  0
  6  7  1  0
  7  8  1  0
  8  9  1  0
  9 10  2  0
  9 11  1  0
 11 12  1  0
 12 13  1  0
 13 14  1  0
 14 15  2  0
 15 16  1  0
 16 17  2  0
 17 18  1  0
 18 19  1  0
 19 20  2  0
 20 21  1  0
 21 22  2  0
  8  4  1  0
 22 14  1  0
 21 17  1  0
  3 23  1  0
  4 24  1  0
  5 25  1  0
  5 26  1  0
  6 27  1  0
  6 28  1  0
  8 29  1  0
 11 30  1  0
 12 31  1  0
 12 32  1  0
 13 33  1  0
 13 34  1  0
 15 35  1  0
 16 36  1  0
 18 37  1  0
 19 38  1  0
 20 39  1  0
 22 40  1  0
M  END
>  <Energy>  (1127) 
1007.2463657822876

>  <compound_id>  (1127) 
35887

>  <target_id>  (1127) 
1

>  <reference_id>  (1127) 
40

>  <inspiration_ids>  (1127) 
[28, 40]

>  <energy_score>  (1127) 
968.6150114638309

>  <distance_score>  (1127) 
10.439131680002857

>  <path>  (1127) 
/opt/xchem-fragalysis-2/maxwin/BulkDock/SCRATCH/511013/C35887-P40/C35887-P40.minimised.mol

>  <scratch_subdir>  (1127) 
/opt/xchem-fragalysis-2/maxwin/BulkDock/SCRATCH/511013/C35887-P40

>  <fragmenstein_runtime>  (1127) 
22.203822135925293

>  <fragmenstein_outcome>  (1127) 
too moved

>  <fragmenstein_mode>  (1127) 
expansion

>  <fragmenstein_error>  (1127) 


$$$$
C35888-P28
     RDKit          3D

 40 42  0  0  0  0  0  0  0  0999 V2000
   -4.0504  -15.1057   25.0124 C   0  0  0  0  0  0  0  0  0  0  0  0
   -4.0334  -16.6435   25.0292 C   0  0  0  0  0  0  0  0  0  0  0  0
   -5.1138  -17.6202   25.6770 N   0  0  0  0  0  0  0  0  0  0  0  0
   -6.5379  -17.7086   25.4824 C   0  0  0  0  0  0  0  0  0  0  0  0
   -7.2877  -17.0073   24.8467 O   0  0  0  0  0  0  0  0  0  0  0  0
   -7.1555  -18.9912   26.1306 C   0  0  0  0  0  0  0  0  0  0  0  0
   -8.3657  -19.3387   25.3698 O   0  0  0  0  0  0  0  0  0  0  0  0
   -7.9515  -20.2069   24.3119 C   0  0  0  0  0  0  0  0  0  0  0  0
   -6.9694  -21.1304   24.9814 C   0  0  0  0  0  0  0  0  0  0  0  0
   -6.2932  -20.2532   26.0417 C   0  0  0  0  0  0  0  0  0  0  0  0
   -6.2111  -20.9353   27.3828 C   0  0  0  0  0  0  0  0  0  0  0  0
   -6.4655  -20.4608   28.4757 O   0  0  0  0  0  0  0  0  0  0  0  0
   -5.7120  -22.1860   27.2958 O   0  0  0  0  0  0  0  0  0  0  0  0
   -4.7867  -16.7687   26.9265 C   0  0  0  0  0  0  0  0  0  0  0  0
   -3.5518  -16.9163   27.6088 C   0  0  0  0  0  0  0  0  0  0  0  0
   -3.0928  -15.9568   28.5184 C   0  0  0  0  0  0  0  0  0  0  0  0
   -3.9363  -14.8755   28.7526 C   0  0  0  0  0  0  0  0  0  0  0  0
   -3.7247  -13.7379   29.4814 N   0  0  0  0  0  0  0  0  0  0  0  0
   -4.8651  -12.9980   29.4943 C   0  0  0  0  0  0  0  0  0  0  0  0
   -5.7967  -13.5854   28.6891 C   0  0  0  0  0  0  0  0  0  0  0  0
   -5.2238  -14.7837   28.2278 C   0  0  0  0  0  0  0  0  0  0  0  0
   -5.6888  -15.7767   27.3570 C   0  0  0  0  0  0  0  0  0  0  0  0
   -3.6983  -14.6396   25.9328 H   0  0  0  0  0  0  0  0  0  0  0  0
   -5.0393  -14.7097   24.7684 H   0  0  0  0  0  0  0  0  0  0  0  0
   -3.3214  -14.7711   24.2695 H   0  0  0  0  0  0  0  0  0  0  0  0
   -3.0242  -17.0520   25.1896 H   0  0  0  0  0  0  0  0  0  0  0  0
   -4.2257  -16.8644   23.9729 H   0  0  0  0  0  0  0  0  0  0  0  0
   -7.4785  -18.7146   27.1387 H   0  0  0  0  0  0  0  0  0  0  0  0
   -7.4903  -19.6078   23.5208 H   0  0  0  0  0  0  0  0  0  0  0  0
   -8.8170  -20.7361   23.9056 H   0  0  0  0  0  0  0  0  0  0  0  0
   -6.2605  -21.5719   24.2765 H   0  0  0  0  0  0  0  0  0  0  0  0
   -7.5161  -21.9581   25.4497 H   0  0  0  0  0  0  0  0  0  0  0  0
   -5.2568  -20.0410   25.7709 H   0  0  0  0  0  0  0  0  0  0  0  0
   -5.6757  -22.4905   28.2280 H   0  0  0  0  0  0  0  0  0  0  0  0
   -2.8943  -17.7466   27.3580 H   0  0  0  0  0  0  0  0  0  0  0  0
   -2.1105  -16.0290   28.9710 H   0  0  0  0  0  0  0  0  0  0  0  0
   -2.8553  -13.5419   29.9639 H   0  0  0  0  0  0  0  0  0  0  0  0
   -4.9589  -12.0906   30.0501 H   0  0  0  0  0  0  0  0  0  0  0  0
   -6.7796  -13.1915   28.4668 H   0  0  0  0  0  0  0  0  0  0  0  0
   -6.6624  -15.6362   26.8990 H   0  0  0  0  0  0  0  0  0  0  0  0
  1  2  1  0
  2  3  1  0
  3  4  1  0
  4  5  2  0
  4  6  1  0
  6  7  1  0
  7  8  1  0
  8  9  1  0
  9 10  1  0
 10 11  1  0
 11 12  2  0
 11 13  1  0
  3 14  1  0
 14 15  2  0
 15 16  1  0
 16 17  2  0
 17 18  1  0
 18 19  1  0
 19 20  2  0
 20 21  1  0
 21 22  2  0
 10  6  1  0
 22 14  1  0
 21 17  1  0
  1 23  1  0
  1 24  1  0
  1 25  1  0
  2 26  1  0
  2 27  1  0
  6 28  1  0
  8 29  1  0
  8 30  1  0
  9 31  1  0
  9 32  1  0
 10 33  1  0
 13 34  1  0
 15 35  1  0
 16 36  1  0
 18 37  1  0
 19 38  1  0
 20 39  1  0
 22 40  1  0
M  END
>  <Energy>  (1128) 
94.893741671512174

>  <compound_id>  (1128) 
35888

>  <target_id>  (1128) 
1

>  <reference_id>  (1128) 
28

>  <inspiration_ids>  (1128) 
[28, 40]

>  <energy_score>  (1128) 
-2.403527031363126

>  <distance_score>  (1128) 
13.130594765571947

>  <path>  (1128) 
/opt/xchem-fragalysis-2/maxwin/BulkDock/SCRATCH/511013/C35888-P28/C35888-P28.minimised.mol

>  <scratch_subdir>  (1128) 
/opt/xchem-fragalysis-2/maxwin/BulkDock/SCRATCH/511013/C35888-P28

>  <fragmenstein_runtime>  (1128) 
15.492963075637817

>  <fragmenstein_outcome>  (1128) 
too moved

>  <fragmenstein_mode>  (1128) 
expansion

>  <fragmenstein_error>  (1128) 


$$$$
C35888-P40
     RDKit          3D

 40 42  0  0  0  0  0  0  0  0999 V2000
   -6.9645  -19.6854   25.2519 C   0  0  0  0  0  0  0  0  0  0  0  0
   -6.9221  -18.4379   24.3480 C   0  0  0  0  0  0  0  0  0  0  0  0
   -6.4804  -18.7553   22.9438 N   0  0  0  0  0  0  0  0  0  0  0  0
   -7.1983  -18.4636   21.3941 C   0  0  0  0  0  0  0  0  0  0  0  0
   -8.1518  -17.8217   21.5245 O   0  0  0  0  0  0  0  0  0  0  0  0
   -7.0327  -19.0629   19.4048 C   0  0  0  0  0  0  0  0  0  0  0  0
   -6.8643  -17.9169   18.4427 O   0  0  0  0  0  0  0  0  0  0  0  0
   -7.9894  -17.5217   17.5112 C   0  0  0  0  0  0  0  0  0  0  0  0
   -9.2360  -18.5586   17.3681 C   0  0  0  0  0  0  0  0  0  0  0  0
   -8.3655  -20.0976   18.1411 C   0  0  0  0  0  0  0  0  0  0  0  0
   -9.2535  -20.9573   16.6169 C   0  0  0  0  0  0  0  0  0  0  0  0
   -9.7098  -20.2544   15.7082 O   0  0  0  0  0  0  0  0  0  0  0  0
   -9.3814  -22.2261   16.2888 O   0  0  0  0  0  0  0  0  0  0  0  0
   -5.2019  -17.5779   23.6390 C   0  0  0  0  0  0  0  0  0  0  0  0
   -4.2488  -16.6271   23.0708 C   0  0  0  0  0  0  0  0  0  0  0  0
   -3.2859  -15.7316   23.6952 C   0  0  0  0  0  0  0  0  0  0  0  0
   -3.3186  -15.6121   25.0624 C   0  0  0  0  0  0  0  0  0  0  0  0
   -2.7031  -14.7308   25.9208 N   0  0  0  0  0  0  0  0  0  0  0  0
   -3.0405  -15.0609   27.2069 C   0  0  0  0  0  0  0  0  0  0  0  0
   -3.8304  -16.1895   27.1628 C   0  0  0  0  0  0  0  0  0  0  0  0
   -4.0608  -16.5144   25.7963 C   0  0  0  0  0  0  0  0  0  0  0  0
   -4.8404  -17.5171   25.0912 C   0  0  0  0  0  0  0  0  0  0  0  0
   -7.6021  -20.4603   24.8095 H   0  0  0  0  0  0  0  0  0  0  0  0
   -5.9819  -20.1385   25.4085 H   0  0  0  0  0  0  0  0  0  0  0  0
   -7.3851  -19.4258   26.2289 H   0  0  0  0  0  0  0  0  0  0  0  0
   -7.0350  -17.4168   24.7665 H   0  0  0  0  0  0  0  0  0  0  0  0
   -8.0045  -18.4266   24.1026 H   0  0  0  0  0  0  0  0  0  0  0  0
   -6.0598  -19.5630   19.3734 H   0  0  0  0  0  0  0  0  0  0  0  0
   -8.4124  -16.5822   17.8639 H   0  0  0  0  0  0  0  0  0  0  0  0
   -7.7050  -17.0913   16.5749 H   0  0  0  0  0  0  0  0  0  0  0  0
  -10.1099  -18.2175   17.8681 H   0  0  0  0  0  0  0  0  0  0  0  0
   -9.7448  -18.5767   16.3895 H   0  0  0  0  0  0  0  0  0  0  0  0
   -8.9994  -20.4895   18.9410 H   0  0  0  0  0  0  0  0  0  0  0  0
   -9.6417  -22.1384   15.3486 H   0  0  0  0  0  0  0  0  0  0  0  0
   -4.2402  -16.4982   21.9826 H   0  0  0  0  0  0  0  0  0  0  0  0
   -2.6229  -15.1170   23.0951 H   0  0  0  0  0  0  0  0  0  0  0  0
   -2.1323  -13.9442   25.6300 H   0  0  0  0  0  0  0  0  0  0  0  0
   -2.7035  -14.4847   28.0549 H   0  0  0  0  0  0  0  0  0  0  0  0
   -4.2490  -16.6920   28.0245 H   0  0  0  0  0  0  0  0  0  0  0  0
   -5.2258  -18.2229   25.8151 H   0  0  0  0  0  0  0  0  0  0  0  0
  1  2  1  0
  2  3  1  0
  3  4  1  0
  4  5  2  0
  4  6  1  0
  6  7  1  0
  7  8  1  0
  8  9  1  0
  9 10  1  0
 10 11  1  0
 11 12  2  0
 11 13  1  0
  3 14  1  0
 14 15  2  0
 15 16  1  0
 16 17  2  0
 17 18  1  0
 18 19  1  0
 19 20  2  0
 20 21  1  0
 21 22  2  0
 10  6  1  0
 22 14  1  0
 21 17  1  0
  1 23  1  0
  1 24  1  0
  1 25  1  0
  2 26  1  0
  2 27  1  0
  6 28  1  0
  8 29  1  0
  8 30  1  0
  9 31  1  0
  9 32  1  0
 10 33  1  0
 13 34  1  0
 15 35  1  0
 16 36  1  0
 18 37  1  0
 19 38  1  0
 20 39  1  0
 22 40  1  0
M  END
>  <Energy>  (1129) 
616.83911919817137

>  <compound_id>  (1129) 
35888

>  <target_id>  (1129) 
1

>  <reference_id>  (1129) 
40

>  <inspiration_ids>  (1129) 
[28, 40]

>  <energy_score>  (1129) 
519.5418504952856

>  <distance_score>  (1129) 
11.687302784691743

>  <path>  (1129) 
/opt/xchem-fragalysis-2/maxwin/BulkDock/SCRATCH/511013/C35888-P40/C35888-P40.minimised.mol

>  <scratch_subdir>  (1129) 
/opt/xchem-fragalysis-2/maxwin/BulkDock/SCRATCH/511013/C35888-P40

>  <fragmenstein_runtime>  (1129) 
13.117151975631714

>  <fragmenstein_outcome>  (1129) 
too moved

>  <fragmenstein_mode>  (1129) 
expansion

>  <fragmenstein_error>  (1129) 


$$$$
C35889-P28
     RDKit          3D

 40 42  0  0  0  0  0  0  0  0999 V2000
   -3.5998  -16.1585   21.2167 O   0  0  0  0  0  0  0  0  0  0  0  0
   -4.5354  -16.3591   21.9553 C   0  0  0  0  0  0  0  0  0  0  0  0
   -4.7286  -14.9438   23.4840 C   0  0  0  0  0  0  0  0  0  0  0  0
   -5.6704  -13.1318   23.7556 C   0  0  0  0  0  0  0  0  0  0  0  0
   -5.7625  -11.3634   24.3885 C   0  0  0  0  0  0  0  0  0  0  0  0
   -5.7038  -10.2060   23.5344 C   0  0  0  0  0  0  0  0  0  0  0  0
   -6.0854   -8.8938   23.8818 C   0  0  0  0  0  0  0  0  0  0  0  0
   -6.6441   -8.6988   25.1287 C   0  0  0  0  0  0  0  0  0  0  0  0
   -7.1294   -7.5567   25.7157 N   0  0  0  0  0  0  0  0  0  0  0  0
   -7.5884   -7.8329   26.9707 C   0  0  0  0  0  0  0  0  0  0  0  0
   -7.4804   -9.1932   27.1541 C   0  0  0  0  0  0  0  0  0  0  0  0
   -6.8500   -9.7543   26.0035 C   0  0  0  0  0  0  0  0  0  0  0  0
   -6.4122  -11.0703   25.6356 C   0  0  0  0  0  0  0  0  0  0  0  0
   -5.6619  -17.4993   21.7978 N   0  0  0  0  0  0  0  0  0  0  0  0
   -5.9102  -18.5035   20.6906 C   0  0  0  0  0  0  0  0  0  0  0  0
   -5.0116  -19.5520   20.1480 C   0  0  0  0  0  0  0  0  0  0  0  0
   -4.6310  -20.5726   20.7022 O   0  0  0  0  0  0  0  0  0  0  0  0
   -4.7240  -19.2511   18.8247 O   0  0  0  0  0  0  0  0  0  0  0  0
   -7.2271  -19.1123   20.5454 C   0  0  0  0  0  0  0  0  0  0  0  0
   -7.2283  -19.3627   18.9798 C   0  0  0  0  0  0  0  0  0  0  0  0
   -6.9939  -18.1269   18.4644 O   0  0  0  0  0  0  0  0  0  0  0  0
   -6.1759  -17.6378   19.4888 C   0  0  0  0  0  0  0  0  0  0  0  0
   -5.1325  -15.4682   24.2955 H   0  0  0  0  0  0  0  0  0  0  0  0
   -3.6782  -14.8704   23.7734 H   0  0  0  0  0  0  0  0  0  0  0  0
   -6.1433  -13.0748   24.6875 H   0  0  0  0  0  0  0  0  0  0  0  0
   -6.3752  -12.9351   22.9591 H   0  0  0  0  0  0  0  0  0  0  0  0
   -5.4094  -10.2572   22.4868 H   0  0  0  0  0  0  0  0  0  0  0  0
   -5.9764   -8.0892   23.1636 H   0  0  0  0  0  0  0  0  0  0  0  0
   -7.1457   -6.6493   25.2737 H   0  0  0  0  0  0  0  0  0  0  0  0
   -7.9812   -7.0578   27.6136 H   0  0  0  0  0  0  0  0  0  0  0  0
   -7.7634   -9.7343   28.0474 H   0  0  0  0  0  0  0  0  0  0  0  0
   -6.6424  -11.8473   26.3577 H   0  0  0  0  0  0  0  0  0  0  0  0
   -6.3649  -17.3691   22.5216 H   0  0  0  0  0  0  0  0  0  0  0  0
   -4.0699  -18.5213   18.7267 H   0  0  0  0  0  0  0  0  0  0  0  0
   -7.7417  -19.9068   20.9899 H   0  0  0  0  0  0  0  0  0  0  0  0
   -7.7671  -18.3872   21.1568 H   0  0  0  0  0  0  0  0  0  0  0  0
   -7.9929  -19.9363   18.4083 H   0  0  0  0  0  0  0  0  0  0  0  0
   -6.4479  -20.0104   18.6773 H   0  0  0  0  0  0  0  0  0  0  0  0
   -6.7908  -16.9034   19.9795 H   0  0  0  0  0  0  0  0  0  0  0  0
   -5.3008  -17.2742   18.9544 H   0  0  0  0  0  0  0  0  0  0  0  0
  1  2  2  0
  2  3  1  0
  3  4  1  0
  4  5  1  0
  5  6  2  0
  6  7  1  0
  7  8  2  0
  8  9  1  0
  9 10  1  0
 10 11  2  0
 11 12  1  0
 12 13  2  0
  2 14  1  0
 14 15  1  0
 15 16  1  0
 16 17  2  0
 16 18  1  0
 15 19  1  0
 19 20  1  0
 20 21  1  0
 21 22  1  0
 13  5  1  0
 22 15  1  0
 12  8  1  0
  3 23  1  0
  3 24  1  0
  4 25  1  0
  4 26  1  0
  6 27  1  0
  7 28  1  0
  9 29  1  0
 10 30  1  0
 11 31  1  0
 13 32  1  0
 14 33  1  0
 18 34  1  0
 19 35  1  0
 19 36  1  0
 20 37  1  0
 20 38  1  0
 22 39  1  0
 22 40  1  0
M  END
>  <Energy>  (1130) 
428.33752913981226

>  <compound_id>  (1130) 
35889

>  <target_id>  (1130) 
1

>  <reference_id>  (1130) 
28

>  <inspiration_ids>  (1130) 
[28, 40]

>  <energy_score>  (1130) 
362.4834457476802

>  <distance_score>  (1130) 
10.02561691159236

>  <path>  (1130) 
/opt/xchem-fragalysis-2/maxwin/BulkDock/SCRATCH/511013/C35889-P28/C35889-P28.minimised.mol

>  <scratch_subdir>  (1130) 
/opt/xchem-fragalysis-2/maxwin/BulkDock/SCRATCH/511013/C35889-P28

>  <fragmenstein_runtime>  (1130) 
17.118151426315308

>  <fragmenstein_outcome>  (1130) 
too moved

>  <fragmenstein_mode>  (1130) 
expansion

>  <fragmenstein_error>  (1130) 


$$$$
C35889-P40
     RDKit          3D

 40 42  0  0  0  0  0  0  0  0999 V2000
   -4.9710  -14.6294   23.5427 O   0  0  0  0  0  0  0  0  0  0  0  0
   -4.0470  -15.2863   23.1825 C   0  0  0  0  0  0  0  0  0  0  0  0
   -2.3931  -14.9737   24.2084 C   0  0  0  0  0  0  0  0  0  0  0  0
   -1.7737  -14.3371   25.6006 C   0  0  0  0  0  0  0  0  0  0  0  0
   -1.6361  -15.2754   26.8381 C   0  0  0  0  0  0  0  0  0  0  0  0
   -0.8851  -16.4484   26.8222 C   0  0  0  0  0  0  0  0  0  0  0  0
   -0.7470  -17.2777   27.9514 C   0  0  0  0  0  0  0  0  0  0  0  0
   -1.4524  -16.9464   29.1119 C   0  0  0  0  0  0  0  0  0  0  0  0
   -1.4901  -17.5391   30.3480 N   0  0  0  0  0  0  0  0  0  0  0  0
   -2.3567  -16.8705   31.1730 C   0  0  0  0  0  0  0  0  0  0  0  0
   -2.8925  -15.8257   30.4615 C   0  0  0  0  0  0  0  0  0  0  0  0
   -2.2772  -15.8373   29.1858 C   0  0  0  0  0  0  0  0  0  0  0  0
   -2.2805  -14.9656   28.0856 C   0  0  0  0  0  0  0  0  0  0  0  0
   -4.1381  -16.5811   21.9314 N   0  0  0  0  0  0  0  0  0  0  0  0
   -5.5949  -17.3157   21.0232 C   0  0  0  0  0  0  0  0  0  0  0  0
   -6.6846  -17.7204   22.0438 C   0  0  0  0  0  0  0  0  0  0  0  0
   -7.8717  -17.4972   21.9254 O   0  0  0  0  0  0  0  0  0  0  0  0
   -6.3789  -18.3277   23.1698 O   0  0  0  0  0  0  0  0  0  0  0  0
   -4.8571  -17.8036   19.7741 C   0  0  0  0  0  0  0  0  0  0  0  0
   -5.7519  -18.2544   18.7302 C   0  0  0  0  0  0  0  0  0  0  0  0
   -6.4833  -19.2130   19.3500 O   0  0  0  0  0  0  0  0  0  0  0  0
   -6.1465  -18.9944   20.7194 C   0  0  0  0  0  0  0  0  0  0  0  0
   -1.5284  -14.7601   23.5713 H   0  0  0  0  0  0  0  0  0  0  0  0
   -2.4514  -15.9244   24.7344 H   0  0  0  0  0  0  0  0  0  0  0  0
   -2.2611  -13.4008   25.8770 H   0  0  0  0  0  0  0  0  0  0  0  0
   -0.7339  -14.0756   25.3628 H   0  0  0  0  0  0  0  0  0  0  0  0
   -0.3509  -16.7459   25.9407 H   0  0  0  0  0  0  0  0  0  0  0  0
   -0.1211  -18.1631   27.9084 H   0  0  0  0  0  0  0  0  0  0  0  0
   -0.9777  -18.3728   30.5976 H   0  0  0  0  0  0  0  0  0  0  0  0
   -2.5281  -17.2069   32.1861 H   0  0  0  0  0  0  0  0  0  0  0  0
   -3.6020  -15.0980   30.8308 H   0  0  0  0  0  0  0  0  0  0  0  0
   -2.7941  -14.0209   28.2297 H   0  0  0  0  0  0  0  0  0  0  0  0
   -3.2230  -16.9208   21.7422 H   0  0  0  0  0  0  0  0  0  0  0  0
   -7.2912  -18.1939   23.5025 H   0  0  0  0  0  0  0  0  0  0  0  0
   -4.1686  -17.0804   19.3512 H   0  0  0  0  0  0  0  0  0  0  0  0
   -4.2779  -18.6961   19.9698 H   0  0  0  0  0  0  0  0  0  0  0  0
   -5.0873  -18.6983   17.9975 H   0  0  0  0  0  0  0  0  0  0  0  0
   -6.4599  -17.5129   18.4179 H   0  0  0  0  0  0  0  0  0  0  0  0
   -5.3916  -19.7515   20.9260 H   0  0  0  0  0  0  0  0  0  0  0  0
   -7.1218  -19.3080   21.1033 H   0  0  0  0  0  0  0  0  0  0  0  0
  1  2  2  0
  2  3  1  0
  3  4  1  0
  4  5  1  0
  5  6  2  0
  6  7  1  0
  7  8  2  0
  8  9  1  0
  9 10  1  0
 10 11  2  0
 11 12  1  0
 12 13  2  0
  2 14  1  0
 14 15  1  0
 15 16  1  0
 16 17  2  0
 16 18  1  0
 15 19  1  0
 19 20  1  0
 20 21  1  0
 21 22  1  0
 13  5  1  0
 22 15  1  0
 12  8  1  0
  3 23  1  0
  3 24  1  0
  4 25  1  0
  4 26  1  0
  6 27  1  0
  7 28  1  0
  9 29  1  0
 10 30  1  0
 11 31  1  0
 13 32  1  0
 14 33  1  0
 18 34  1  0
 19 35  1  0
 19 36  1  0
 20 37  1  0
 20 38  1  0
 22 39  1  0
 22 40  1  0
M  END
>  <Energy>  (1131) 
361.37369562349801

>  <compound_id>  (1131) 
35889

>  <target_id>  (1131) 
1

>  <reference_id>  (1131) 
40

>  <inspiration_ids>  (1131) 
[28, 40]

>  <energy_score>  (1131) 
295.5196122313658

>  <distance_score>  (1131) 
10.99538075914096

>  <path>  (1131) 
/opt/xchem-fragalysis-2/maxwin/BulkDock/SCRATCH/511013/C35889-P40/C35889-P40.minimised.mol

>  <scratch_subdir>  (1131) 
/opt/xchem-fragalysis-2/maxwin/BulkDock/SCRATCH/511013/C35889-P40

>  <fragmenstein_runtime>  (1131) 
17.976406812667847

>  <fragmenstein_outcome>  (1131) 
too moved

>  <fragmenstein_mode>  (1131) 
expansion

>  <fragmenstein_error>  (1131) 


$$$$
C35891-P28
     RDKit          3D

 38 40  0  0  0  0  0  0  0  0999 V2000
   -8.7475  -20.9628   18.6629 O   0  0  0  0  0  0  0  0  0  0  0  0
   -7.7595  -20.4073   18.1225 C   0  0  0  0  0  0  0  0  0  0  0  0
   -6.9681  -21.2496   17.4699 O   0  0  0  0  0  0  0  0  0  0  0  0
   -7.3992  -18.9269   18.2785 C   0  0  0  0  0  0  0  0  0  0  0  0
   -6.2374  -18.5387   19.8280 C   0  0  0  0  0  0  0  0  0  0  0  0
   -5.9488  -17.5353   21.3515 N   0  0  0  0  0  0  0  0  0  0  0  0
   -4.4622  -16.5560   22.0950 C   0  0  0  0  0  0  0  0  0  0  0  0
   -4.1936  -15.1717   23.6029 C   0  0  0  0  0  0  0  0  0  0  0  0
   -4.9718  -13.6457   23.8065 C   0  0  0  0  0  0  0  0  0  0  0  0
   -4.2003  -12.2648   24.7133 C   0  0  0  0  0  0  0  0  0  0  0  0
   -2.9663  -12.6828   25.8349 C   0  0  0  0  0  0  0  0  0  0  0  0
   -3.0203  -12.6197   27.2369 N   0  0  0  0  0  0  0  0  0  0  0  0
   -2.5052  -13.7962   27.8030 C   0  0  0  0  0  0  0  0  0  0  0  0
   -1.6702  -14.4335   26.9091 C   0  0  0  0  0  0  0  0  0  0  0  0
   -2.1951  -14.0485   25.6580 C   0  0  0  0  0  0  0  0  0  0  0  0
   -2.7747  -15.1591   24.6118 C   0  0  0  0  0  0  0  0  0  0  0  0
   -9.2310  -19.4763   17.5878 C   0  0  0  0  0  0  0  0  0  0  0  0
   -9.7704  -18.2653   17.0269 C   0  0  0  0  0  0  0  0  0  0  0  0
   -8.6657  -17.4378   16.9446 O   0  0  0  0  0  0  0  0  0  0  0  0
   -7.6862  -17.5065   17.8226 C   0  0  0  0  0  0  0  0  0  0  0  0
   -5.9960  -21.1930   17.6217 H   0  0  0  0  0  0  0  0  0  0  0  0
   -5.9388  -19.5220   20.1927 H   0  0  0  0  0  0  0  0  0  0  0  0
   -5.3712  -18.1659   19.2703 H   0  0  0  0  0  0  0  0  0  0  0  0
   -6.1669  -18.1809   22.1182 H   0  0  0  0  0  0  0  0  0  0  0  0
   -4.7799  -15.8411   21.5421 H   0  0  0  0  0  0  0  0  0  0  0  0
   -3.6224  -16.7033   21.3840 H   0  0  0  0  0  0  0  0  0  0  0  0
   -5.9426  -13.3625   23.4264 H   0  0  0  0  0  0  0  0  0  0  0  0
   -4.8598  -11.4150   24.8966 H   0  0  0  0  0  0  0  0  0  0  0  0
   -3.7237  -12.0999   27.7349 H   0  0  0  0  0  0  0  0  0  0  0  0
   -2.7069  -13.9955   28.8476 H   0  0  0  0  0  0  0  0  0  0  0  0
   -1.1743  -15.3698   27.1282 H   0  0  0  0  0  0  0  0  0  0  0  0
   -2.4563  -16.1028   25.0520 H   0  0  0  0  0  0  0  0  0  0  0  0
   -9.9383  -19.6617   18.4028 H   0  0  0  0  0  0  0  0  0  0  0  0
   -9.3831  -20.3606   16.9122 H   0  0  0  0  0  0  0  0  0  0  0  0
  -10.5924  -17.7917   17.5875 H   0  0  0  0  0  0  0  0  0  0  0  0
  -10.1871  -18.5473   16.0438 H   0  0  0  0  0  0  0  0  0  0  0  0
   -7.9990  -16.8227   18.5782 H   0  0  0  0  0  0  0  0  0  0  0  0
   -7.1331  -16.8474   17.1972 H   0  0  0  0  0  0  0  0  0  0  0  0
  1  2  2  0
  2  3  1  0
  2  4  1  0
  4  5  1  0
  5  6  1  0
  6  7  1  0
  7  8  1  0
  8  9  2  0
  9 10  1  0
 10 11  2  0
 11 12  1  0
 12 13  1  0
 13 14  2  0
 14 15  1  0
 15 16  2  0
  4 17  1  0
 17 18  1  0
 18 19  1  0
 19 20  1  0
 20  4  1  0
 16  8  1  0
 15 11  1  0
  3 21  1  0
  5 22  1  0
  5 23  1  0
  6 24  1  0
  7 25  1  0
  7 26  1  0
  9 27  1  0
 10 28  1  0
 12 29  1  0
 13 30  1  0
 14 31  1  0
 16 32  1  0
 17 33  1  0
 17 34  1  0
 18 35  1  0
 18 36  1  0
 20 37  1  0
 20 38  1  0
M  END
>  <Energy>  (1132) 
785.26586301582859

>  <compound_id>  (1132) 
35891

>  <target_id>  (1132) 
1

>  <reference_id>  (1132) 
28

>  <inspiration_ids>  (1132) 
[28, 40]

>  <energy_score>  (1132) 
757.2955361534622

>  <distance_score>  (1132) 
10.554832239983238

>  <path>  (1132) 
/opt/xchem-fragalysis-2/maxwin/BulkDock/SCRATCH/511013/C35891-P28/C35891-P28.minimised.mol

>  <scratch_subdir>  (1132) 
/opt/xchem-fragalysis-2/maxwin/BulkDock/SCRATCH/511013/C35891-P28

>  <fragmenstein_runtime>  (1132) 
11.908844232559204

>  <fragmenstein_outcome>  (1132) 
too moved

>  <fragmenstein_mode>  (1132) 
expansion

>  <fragmenstein_error>  (1132) 


$$$$
C35891-P40
     RDKit          3D

 38 40  0  0  0  0  0  0  0  0999 V2000
   -8.7132  -15.9475   18.0534 O   0  0  0  0  0  0  0  0  0  0  0  0
   -9.1046  -15.6522   19.1994 C   0  0  0  0  0  0  0  0  0  0  0  0
  -10.4422  -15.4576   19.1929 O   0  0  0  0  0  0  0  0  0  0  0  0
   -7.7454  -15.7280   20.5658 C   0  0  0  0  0  0  0  0  0  0  0  0
   -7.2846  -13.5256   20.4380 C   0  0  0  0  0  0  0  0  0  0  0  0
   -6.3835  -12.3625   22.1733 N   0  0  0  0  0  0  0  0  0  0  0  0
   -4.9067  -11.5074   23.6940 C   0  0  0  0  0  0  0  0  0  0  0  0
   -2.8558  -10.8118   24.3606 C   0  0  0  0  0  0  0  0  0  0  0  0
   -2.0944   -9.8746   25.9889 C   0  0  0  0  0  0  0  0  0  0  0  0
   -0.7138   -8.4563   26.9747 C   0  0  0  0  0  0  0  0  0  0  0  0
    1.1234   -9.0493   25.9717 C   0  0  0  0  0  0  0  0  0  0  0  0
    2.4824   -8.8017   25.7589 N   0  0  0  0  0  0  0  0  0  0  0  0
    3.0294   -9.5513   24.7141 C   0  0  0  0  0  0  0  0  0  0  0  0
    2.2840  -10.6495   24.2416 C   0  0  0  0  0  0  0  0  0  0  0  0
    0.8307  -10.5818   24.7612 C   0  0  0  0  0  0  0  0  0  0  0  0
   -0.9564  -10.9112   23.7414 C   0  0  0  0  0  0  0  0  0  0  0  0
   -7.6100  -17.0973   21.7333 C   0  0  0  0  0  0  0  0  0  0  0  0
   -6.4910  -18.0871   21.5333 C   0  0  0  0  0  0  0  0  0  0  0  0
   -6.5174  -18.4147   20.1942 O   0  0  0  0  0  0  0  0  0  0  0  0
   -6.7159  -17.1446   19.5483 C   0  0  0  0  0  0  0  0  0  0  0  0
  -10.8084  -15.4588   18.2967 H   0  0  0  0  0  0  0  0  0  0  0  0
   -8.4458  -13.3987   20.2928 H   0  0  0  0  0  0  0  0  0  0  0  0
   -7.0943  -12.9087   19.4788 H   0  0  0  0  0  0  0  0  0  0  0  0
   -6.0381  -11.6203   21.5308 H   0  0  0  0  0  0  0  0  0  0  0  0
   -5.3820  -11.8817   24.5962 H   0  0  0  0  0  0  0  0  0  0  0  0
   -5.3073  -10.4746   23.5804 H   0  0  0  0  0  0  0  0  0  0  0  0
   -2.1859  -10.8523   26.6548 H   0  0  0  0  0  0  0  0  0  0  0  0
   -0.4991   -8.3061   28.0883 H   0  0  0  0  0  0  0  0  0  0  0  0
    2.9825   -8.0237   26.1611 H   0  0  0  0  0  0  0  0  0  0  0  0
    4.0259   -9.2772   24.3943 H   0  0  0  0  0  0  0  0  0  0  0  0
    2.5741  -11.2845   23.4155 H   0  0  0  0  0  0  0  0  0  0  0  0
   -0.5762  -11.4988   22.9004 H   0  0  0  0  0  0  0  0  0  0  0  0
   -8.3924  -17.8005   21.6818 H   0  0  0  0  0  0  0  0  0  0  0  0
   -7.6393  -16.8330   22.7659 H   0  0  0  0  0  0  0  0  0  0  0  0
   -6.6717  -18.9553   22.1628 H   0  0  0  0  0  0  0  0  0  0  0  0
   -5.5152  -17.6944   21.7495 H   0  0  0  0  0  0  0  0  0  0  0  0
   -7.2830  -17.4464   18.6550 H   0  0  0  0  0  0  0  0  0  0  0  0
   -5.8483  -17.1328   18.8694 H   0  0  0  0  0  0  0  0  0  0  0  0
  1  2  2  0
  2  3  1  0
  2  4  1  0
  4  5  1  0
  5  6  1  0
  6  7  1  0
  7  8  1  0
  8  9  2  0
  9 10  1  0
 10 11  2  0
 11 12  1  0
 12 13  1  0
 13 14  2  0
 14 15  1  0
 15 16  2  0
  4 17  1  0
 17 18  1  0
 18 19  1  0
 19 20  1  0
 20  4  1  0
 16  8  1  0
 15 11  1  0
  3 21  1  0
  5 22  1  0
  5 23  1  0
  6 24  1  0
  7 25  1  0
  7 26  1  0
  9 27  1  0
 10 28  1  0
 12 29  1  0
 13 30  1  0
 14 31  1  0
 16 32  1  0
 17 33  1  0
 17 34  1  0
 18 35  1  0
 18 36  1  0
 20 37  1  0
 20 38  1  0
M  END
>  <Energy>  (1133) 
2369.9718955472963

>  <compound_id>  (1133) 
35891

>  <target_id>  (1133) 
1

>  <reference_id>  (1133) 
40

>  <inspiration_ids>  (1133) 
[28, 40]

>  <energy_score>  (1133) 
2342.0015686849156

>  <distance_score>  (1133) 
9.520463820806997

>  <path>  (1133) 
/opt/xchem-fragalysis-2/maxwin/BulkDock/SCRATCH/511013/C35891-P40/C35891-P40.minimised.mol

>  <scratch_subdir>  (1133) 
/opt/xchem-fragalysis-2/maxwin/BulkDock/SCRATCH/511013/C35891-P40

>  <fragmenstein_runtime>  (1133) 
9.209048986434937

>  <fragmenstein_outcome>  (1133) 
too moved

>  <fragmenstein_mode>  (1133) 
expansion

>  <fragmenstein_error>  (1133) 


$$$$
C35892-P28
     RDKit          3D

 44 46  0  0  0  0  0  0  0  0999 V2000
   -3.9093  -11.6644   18.7115 C   0  0  0  0  0  0  0  0  0  0  0  0
   -4.8923  -12.1313   19.8039 C   0  0  0  0  0  0  0  0  0  0  0  0
   -4.2316  -10.8024   20.9182 N   0  0  0  0  0  0  0  0  0  0  0  0
   -3.7995   -9.9378   22.5553 C   0  0  0  0  0  0  0  0  0  0  0  0
   -3.2290  -10.1999   24.4523 C   0  0  0  0  0  0  0  0  0  0  0  0
   -2.3347   -9.5195   25.9655 C   0  0  0  0  0  0  0  0  0  0  0  0
   -2.5816   -7.7996   26.6577 C   0  0  0  0  0  0  0  0  0  0  0  0
   -2.1753   -7.3068   28.1820 C   0  0  0  0  0  0  0  0  0  0  0  0
   -1.2889   -8.0749   29.0542 C   0  0  0  0  0  0  0  0  0  0  0  0
   -0.8226   -7.7029   30.2914 N   0  0  0  0  0  0  0  0  0  0  0  0
    0.4836   -8.0122   30.2020 C   0  0  0  0  0  0  0  0  0  0  0  0
    0.5640   -8.9175   29.1447 C   0  0  0  0  0  0  0  0  0  0  0  0
   -0.7500   -9.4132   28.7132 C   0  0  0  0  0  0  0  0  0  0  0  0
   -1.4618  -10.3944   27.3813 C   0  0  0  0  0  0  0  0  0  0  0  0
   -6.6501  -12.5086   18.8569 C   0  0  0  0  0  0  0  0  0  0  0  0
   -7.4830  -11.3727   18.4683 C   0  0  0  0  0  0  0  0  0  0  0  0
   -7.6086  -13.4244   17.5710 C   0  0  0  0  0  0  0  0  0  0  0  0
   -8.4096  -14.9596   18.4528 C   0  0  0  0  0  0  0  0  0  0  0  0
   -8.6250  -13.7481   19.4571 C   0  0  0  0  0  0  0  0  0  0  0  0
   -7.4139  -13.1633   19.8458 O   0  0  0  0  0  0  0  0  0  0  0  0
   -4.5146  -11.3306   17.8899 H   0  0  0  0  0  0  0  0  0  0  0  0
   -3.2730  -10.7879   18.8836 H   0  0  0  0  0  0  0  0  0  0  0  0
   -3.1700  -12.4145   18.4245 H   0  0  0  0  0  0  0  0  0  0  0  0
   -5.5566  -11.8186   20.6084 H   0  0  0  0  0  0  0  0  0  0  0  0
   -3.5332  -11.5047   21.0687 H   0  0  0  0  0  0  0  0  0  0  0  0
   -4.2871   -8.9683   22.5285 H   0  0  0  0  0  0  0  0  0  0  0  0
   -3.1005   -9.2460   22.1034 H   0  0  0  0  0  0  0  0  0  0  0  0
   -3.5172  -11.2263   24.7284 H   0  0  0  0  0  0  0  0  0  0  0  0
   -4.0038   -9.5916   24.8104 H   0  0  0  0  0  0  0  0  0  0  0  0
   -3.6952   -7.5867   26.8095 H   0  0  0  0  0  0  0  0  0  0  0  0
   -2.2044   -6.2595   28.3886 H   0  0  0  0  0  0  0  0  0  0  0  0
   -1.1851   -6.9330   30.8379 H   0  0  0  0  0  0  0  0  0  0  0  0
    1.1961   -7.4318   30.7647 H   0  0  0  0  0  0  0  0  0  0  0  0
    1.5100   -8.9736   28.6525 H   0  0  0  0  0  0  0  0  0  0  0  0
   -2.0953  -11.2704   27.6496 H   0  0  0  0  0  0  0  0  0  0  0  0
   -6.9920  -10.9551   17.5938 H   0  0  0  0  0  0  0  0  0  0  0  0
   -8.5022  -11.7173   18.3775 H   0  0  0  0  0  0  0  0  0  0  0  0
   -7.7293  -10.6117   19.1727 H   0  0  0  0  0  0  0  0  0  0  0  0
   -6.9476  -13.9431   16.8385 H   0  0  0  0  0  0  0  0  0  0  0  0
   -8.2265  -12.7371   17.0206 H   0  0  0  0  0  0  0  0  0  0  0  0
   -9.3319  -15.5153   18.7144 H   0  0  0  0  0  0  0  0  0  0  0  0
   -8.0394  -15.6752   17.6852 H   0  0  0  0  0  0  0  0  0  0  0  0
   -9.4539  -13.0540   19.2856 H   0  0  0  0  0  0  0  0  0  0  0  0
   -8.8262  -14.2161   20.3448 H   0  0  0  0  0  0  0  0  0  0  0  0
  1  2  1  0
  2  3  1  0
  3  4  1  0
  4  5  1  0
  5  6  1  0
  6  7  2  0
  7  8  1  0
  8  9  2  0
  9 10  1  0
 10 11  1  0
 11 12  2  0
 12 13  1  0
 13 14  2  0
  2 15  1  0
 15 16  1  0
 15 17  1  0
 17 18  1  0
 18 19  1  0
 19 20  1  0
 14  6  1  0
 20 15  1  0
 13  9  1  0
  1 21  1  0
  1 22  1  0
  1 23  1  0
  2 24  1  0
  3 25  1  0
  4 26  1  0
  4 27  1  0
  5 28  1  0
  5 29  1  0
  7 30  1  0
  8 31  1  0
 10 32  1  0
 11 33  1  0
 12 34  1  0
 14 35  1  0
 16 36  1  0
 16 37  1  0
 16 38  1  0
 17 39  1  0
 17 40  1  0
 18 41  1  0
 18 42  1  0
 19 43  1  0
 19 44  1  0
M  END
>  <Energy>  (1134) 
1022.0557704255009

>  <compound_id>  (1134) 
35892

>  <target_id>  (1134) 
1

>  <reference_id>  (1134) 
28

>  <inspiration_ids>  (1134) 
[28, 40]

>  <energy_score>  (1134) 
911.3671697540932

>  <distance_score>  (1134) 
8.907266513661547

>  <path>  (1134) 
/opt/xchem-fragalysis-2/maxwin/BulkDock/SCRATCH/511013/C35892-P28/C35892-P28.minimised.mol

>  <scratch_subdir>  (1134) 
/opt/xchem-fragalysis-2/maxwin/BulkDock/SCRATCH/511013/C35892-P28

>  <fragmenstein_runtime>  (1134) 
16.459139585494995

>  <fragmenstein_outcome>  (1134) 
too moved

>  <fragmenstein_mode>  (1134) 
expansion

>  <fragmenstein_error>  (1134) 


$$$$
C35892-P40
     RDKit          3D

 44 46  0  0  0  0  0  0  0  0999 V2000
   -6.4012  -14.7771   23.8957 C   0  0  0  0  0  0  0  0  0  0  0  0
   -4.6404  -14.9055   23.2848 C   0  0  0  0  0  0  0  0  0  0  0  0
   -4.4603  -12.9838   23.8904 N   0  0  0  0  0  0  0  0  0  0  0  0
   -3.5945  -11.5647   24.9262 C   0  0  0  0  0  0  0  0  0  0  0  0
   -2.8724   -9.6293   25.3684 C   0  0  0  0  0  0  0  0  0  0  0  0
   -2.5128   -7.9337   26.6748 C   0  0  0  0  0  0  0  0  0  0  0  0
   -3.2738   -7.4255   27.6050 C   0  0  0  0  0  0  0  0  0  0  0  0
   -2.5307   -7.1580   29.0826 C   0  0  0  0  0  0  0  0  0  0  0  0
   -1.2305   -6.9637   29.6808 C   0  0  0  0  0  0  0  0  0  0  0  0
   -0.6846   -6.5245   30.8471 N   0  0  0  0  0  0  0  0  0  0  0  0
    0.6491   -6.2721   30.5897 C   0  0  0  0  0  0  0  0  0  0  0  0
    0.9646   -6.8113   29.3528 C   0  0  0  0  0  0  0  0  0  0  0  0
   -0.2226   -7.3712   28.8865 C   0  0  0  0  0  0  0  0  0  0  0  0
   -0.8931   -7.9722   27.7304 C   0  0  0  0  0  0  0  0  0  0  0  0
   -4.7000  -16.5397   21.8402 C   0  0  0  0  0  0  0  0  0  0  0  0
   -5.9396  -17.9195   22.4490 C   0  0  0  0  0  0  0  0  0  0  0  0
   -3.8775  -16.8099   20.6019 C   0  0  0  0  0  0  0  0  0  0  0  0
   -4.7104  -17.9991   19.6466 C   0  0  0  0  0  0  0  0  0  0  0  0
   -6.1343  -17.9030   19.8127 C   0  0  0  0  0  0  0  0  0  0  0  0
   -6.1998  -16.8666   20.7774 O   0  0  0  0  0  0  0  0  0  0  0  0
   -6.3853  -13.8125   23.4272 H   0  0  0  0  0  0  0  0  0  0  0  0
   -6.9859  -15.6526   23.7303 H   0  0  0  0  0  0  0  0  0  0  0  0
   -6.9402  -14.6494   24.9029 H   0  0  0  0  0  0  0  0  0  0  0  0
   -3.8894  -15.3191   23.9414 H   0  0  0  0  0  0  0  0  0  0  0  0
   -5.2506  -12.4814   23.4593 H   0  0  0  0  0  0  0  0  0  0  0  0
   -4.6322  -11.3613   25.2232 H   0  0  0  0  0  0  0  0  0  0  0  0
   -3.0641  -12.1685   25.6719 H   0  0  0  0  0  0  0  0  0  0  0  0
   -2.9294   -9.5153   24.3280 H   0  0  0  0  0  0  0  0  0  0  0  0
   -2.1414  -10.2421   25.8187 H   0  0  0  0  0  0  0  0  0  0  0  0
   -4.3241   -7.7634   27.5280 H   0  0  0  0  0  0  0  0  0  0  0  0
   -3.1980   -7.3994   29.8731 H   0  0  0  0  0  0  0  0  0  0  0  0
   -1.1900   -6.2035   31.6643 H   0  0  0  0  0  0  0  0  0  0  0  0
    1.2459   -5.7242   31.3083 H   0  0  0  0  0  0  0  0  0  0  0  0
    1.9205   -6.7389   28.8513 H   0  0  0  0  0  0  0  0  0  0  0  0
   -0.7265   -8.9587   28.3180 H   0  0  0  0  0  0  0  0  0  0  0  0
   -5.9129  -18.7938   21.8134 H   0  0  0  0  0  0  0  0  0  0  0  0
   -5.9617  -18.2523   23.4737 H   0  0  0  0  0  0  0  0  0  0  0  0
   -7.0212  -17.6568   22.3830 H   0  0  0  0  0  0  0  0  0  0  0  0
   -2.8882  -17.0673   20.9374 H   0  0  0  0  0  0  0  0  0  0  0  0
   -3.5422  -15.9998   19.9633 H   0  0  0  0  0  0  0  0  0  0  0  0
   -4.4851  -19.0374   19.9118 H   0  0  0  0  0  0  0  0  0  0  0  0
   -4.5396  -17.8302   18.5749 H   0  0  0  0  0  0  0  0  0  0  0  0
   -6.6186  -17.6122   18.8828 H   0  0  0  0  0  0  0  0  0  0  0  0
   -6.6272  -18.8321   20.1087 H   0  0  0  0  0  0  0  0  0  0  0  0
  1  2  1  0
  2  3  1  0
  3  4  1  0
  4  5  1  0
  5  6  1  0
  6  7  2  0
  7  8  1  0
  8  9  2  0
  9 10  1  0
 10 11  1  0
 11 12  2  0
 12 13  1  0
 13 14  2  0
  2 15  1  0
 15 16  1  0
 15 17  1  0
 17 18  1  0
 18 19  1  0
 19 20  1  0
 14  6  1  0
 20 15  1  0
 13  9  1  0
  1 21  1  0
  1 22  1  0
  1 23  1  0
  2 24  1  0
  3 25  1  0
  4 26  1  0
  4 27  1  0
  5 28  1  0
  5 29  1  0
  7 30  1  0
  8 31  1  0
 10 32  1  0
 11 33  1  0
 12 34  1  0
 14 35  1  0
 16 36  1  0
 16 37  1  0
 16 38  1  0
 17 39  1  0
 17 40  1  0
 18 41  1  0
 18 42  1  0
 19 43  1  0
 19 44  1  0
M  END
>  <Energy>  (1135) 
1190.9653387731596

>  <compound_id>  (1135) 
35892

>  <target_id>  (1135) 
1

>  <reference_id>  (1135) 
40

>  <inspiration_ids>  (1135) 
[28, 40]

>  <energy_score>  (1135) 
1080.2767381017584

>  <distance_score>  (1135) 
7.948756431011593

>  <path>  (1135) 
/opt/xchem-fragalysis-2/maxwin/BulkDock/SCRATCH/511013/C35892-P40/C35892-P40.minimised.mol

>  <scratch_subdir>  (1135) 
/opt/xchem-fragalysis-2/maxwin/BulkDock/SCRATCH/511013/C35892-P40

>  <fragmenstein_runtime>  (1135) 
17.82821536064148

>  <fragmenstein_outcome>  (1135) 
too moved

>  <fragmenstein_mode>  (1135) 
expansion

>  <fragmenstein_error>  (1135) 


$$$$
C35894-P28
     RDKit          3D

 39 41  0  0  0  0  0  0  0  0999 V2000
   -7.8166  -22.0921   15.9978 C   0  0  0  0  0  0  0  0  0  0  0  0
   -7.2485  -20.8944   17.8100 C   0  0  0  0  0  0  0  0  0  0  0  0
   -6.0188  -19.6004   19.1986 C   0  0  0  0  0  0  0  0  0  0  0  0
   -5.6235  -18.5419   18.3906 O   0  0  0  0  0  0  0  0  0  0  0  0
   -6.8018  -17.8708   18.7594 C   0  0  0  0  0  0  0  0  0  0  0  0
   -6.7877  -17.5301   20.3028 C   0  0  0  0  0  0  0  0  0  0  0  0
   -5.5646  -18.0368   20.7050 C   0  0  0  0  0  0  0  0  0  0  0  0
   -4.1717  -16.7561   21.6746 N   0  0  0  0  0  0  0  0  0  0  0  0
   -4.2643  -15.6870   23.3498 C   0  0  0  0  0  0  0  0  0  0  0  0
   -5.1956  -15.5265   24.0223 O   0  0  0  0  0  0  0  0  0  0  0  0
   -2.6025  -15.0186   24.0432 N   0  0  0  0  0  0  0  0  0  0  0  0
   -2.2029  -14.3768   25.4624 C   0  0  0  0  0  0  0  0  0  0  0  0
   -1.3612  -15.3510   26.0413 C   0  0  0  0  0  0  0  0  0  0  0  0
   -1.4550  -15.7248   27.3799 C   0  0  0  0  0  0  0  0  0  0  0  0
   -2.3463  -14.9908   28.1401 C   0  0  0  0  0  0  0  0  0  0  0  0
   -2.8769  -15.2301   29.3790 N   0  0  0  0  0  0  0  0  0  0  0  0
   -3.7568  -14.2409   29.7138 C   0  0  0  0  0  0  0  0  0  0  0  0
   -3.6679  -13.2704   28.7470 C   0  0  0  0  0  0  0  0  0  0  0  0
   -2.8486  -13.7771   27.6952 C   0  0  0  0  0  0  0  0  0  0  0  0
   -2.5868  -13.3657   26.3487 C   0  0  0  0  0  0  0  0  0  0  0  0
   -7.6939  -21.8776   14.8492 H   0  0  0  0  0  0  0  0  0  0  0  0
   -9.0023  -22.1538   15.9508 H   0  0  0  0  0  0  0  0  0  0  0  0
   -7.5366  -23.1635   15.8663 H   0  0  0  0  0  0  0  0  0  0  0  0
   -8.1242  -20.2679   17.7484 H   0  0  0  0  0  0  0  0  0  0  0  0
   -6.3601  -21.2437   17.3930 H   0  0  0  0  0  0  0  0  0  0  0  0
   -5.1821  -20.1670   19.5902 H   0  0  0  0  0  0  0  0  0  0  0  0
   -7.4648  -18.6493   18.5174 H   0  0  0  0  0  0  0  0  0  0  0  0
   -7.3873  -17.3119   18.0074 H   0  0  0  0  0  0  0  0  0  0  0  0
   -7.1124  -16.5998   20.7111 H   0  0  0  0  0  0  0  0  0  0  0  0
   -7.3872  -18.2788   20.8715 H   0  0  0  0  0  0  0  0  0  0  0  0
   -5.8189  -18.6019   21.6036 H   0  0  0  0  0  0  0  0  0  0  0  0
   -3.2587  -16.6674   21.2329 H   0  0  0  0  0  0  0  0  0  0  0  0
   -1.8905  -15.1385   23.3422 H   0  0  0  0  0  0  0  0  0  0  0  0
   -0.7959  -16.0218   25.4017 H   0  0  0  0  0  0  0  0  0  0  0  0
   -0.9666  -16.6166   27.7524 H   0  0  0  0  0  0  0  0  0  0  0  0
   -2.6815  -16.0458   29.9386 H   0  0  0  0  0  0  0  0  0  0  0  0
   -4.3512  -14.3100   30.6115 H   0  0  0  0  0  0  0  0  0  0  0  0
   -4.2760  -12.3855   28.7138 H   0  0  0  0  0  0  0  0  0  0  0  0
   -3.0395  -12.4430   26.0058 H   0  0  0  0  0  0  0  0  0  0  0  0
  1  2  1  0
  2  3  1  0
  3  4  1  0
  4  5  1  0
  5  6  1  0
  6  7  1  0
  7  8  1  0
  8  9  1  0
  9 10  2  0
  9 11  1  0
 11 12  1  0
 12 13  2  0
 13 14  1  0
 14 15  2  0
 15 16  1  0
 16 17  1  0
 17 18  2  0
 18 19  1  0
 19 20  2  0
  7  3  1  0
 20 12  1  0
 19 15  1  0
  1 21  1  0
  1 22  1  0
  1 23  1  0
  2 24  1  0
  2 25  1  0
  3 26  1  0
  5 27  1  0
  5 28  1  0
  6 29  1  0
  6 30  1  0
  7 31  1  0
  8 32  1  0
 11 33  1  0
 13 34  1  0
 14 35  1  0
 16 36  1  0
 17 37  1  0
 18 38  1  0
 20 39  1  0
M  END
>  <Energy>  (1136) 
1084.3373346810472

>  <compound_id>  (1136) 
35894

>  <target_id>  (1136) 
1

>  <reference_id>  (1136) 
28

>  <inspiration_ids>  (1136) 
[28, 40]

>  <energy_score>  (1136) 
1073.3323887806164

>  <distance_score>  (1136) 
10.020336942374309

>  <path>  (1136) 
/opt/xchem-fragalysis-2/maxwin/BulkDock/SCRATCH/511013/C35894-P28/C35894-P28.minimised.mol

>  <scratch_subdir>  (1136) 
/opt/xchem-fragalysis-2/maxwin/BulkDock/SCRATCH/511013/C35894-P28

>  <fragmenstein_runtime>  (1136) 
9.853253602981567

>  <fragmenstein_outcome>  (1136) 
too moved

>  <fragmenstein_mode>  (1136) 
expansion

>  <fragmenstein_error>  (1136) 


$$$$
C35894-P40
     RDKit          3D

 39 41  0  0  0  0  0  0  0  0999 V2000
   -8.5722  -20.5718   17.9656 C   0  0  0  0  0  0  0  0  0  0  0  0
   -8.7496  -20.3759   19.4849 C   0  0  0  0  0  0  0  0  0  0  0  0
   -7.3368  -19.4103   19.9548 C   0  0  0  0  0  0  0  0  0  0  0  0
   -6.8105  -18.9431   18.6828 O   0  0  0  0  0  0  0  0  0  0  0  0
   -5.4053  -18.9830   18.7366 C   0  0  0  0  0  0  0  0  0  0  0  0
   -5.0688  -19.0817   20.1528 C   0  0  0  0  0  0  0  0  0  0  0  0
   -6.3331  -18.8501   20.8909 C   0  0  0  0  0  0  0  0  0  0  0  0
   -6.6049  -17.9067   22.0504 N   0  0  0  0  0  0  0  0  0  0  0  0
   -7.2482  -17.7456   22.8907 C   0  0  0  0  0  0  0  0  0  0  0  0
   -8.1314  -19.0657   22.9165 O   0  0  0  0  0  0  0  0  0  0  0  0
   -7.3047  -16.3642   23.7790 N   0  0  0  0  0  0  0  0  0  0  0  0
   -8.3603  -15.8356   25.2717 C   0  0  0  0  0  0  0  0  0  0  0  0
   -9.6912  -16.0844   25.7035 C   0  0  0  0  0  0  0  0  0  0  0  0
  -10.2636  -15.5412   26.9232 C   0  0  0  0  0  0  0  0  0  0  0  0
   -9.5042  -14.7022   27.7671 C   0  0  0  0  0  0  0  0  0  0  0  0
   -9.7710  -13.9980   28.9203 N   0  0  0  0  0  0  0  0  0  0  0  0
   -8.6861  -13.2303   29.2863 C   0  0  0  0  0  0  0  0  0  0  0  0
   -7.6928  -13.4421   28.3626 C   0  0  0  0  0  0  0  0  0  0  0  0
   -8.2134  -14.3819   27.4306 C   0  0  0  0  0  0  0  0  0  0  0  0
   -7.7741  -14.9034   26.1939 C   0  0  0  0  0  0  0  0  0  0  0  0
   -8.9378  -21.0427   17.0574 H   0  0  0  0  0  0  0  0  0  0  0  0
   -9.1111  -21.4217   18.2359 H   0  0  0  0  0  0  0  0  0  0  0  0
   -9.1194  -19.7163   17.6001 H   0  0  0  0  0  0  0  0  0  0  0  0
   -9.6906  -19.9772   19.4296 H   0  0  0  0  0  0  0  0  0  0  0  0
   -8.9681  -21.1629   20.2296 H   0  0  0  0  0  0  0  0  0  0  0  0
   -7.9432  -18.8784   20.6102 H   0  0  0  0  0  0  0  0  0  0  0  0
   -4.9403  -19.7955   18.1973 H   0  0  0  0  0  0  0  0  0  0  0  0
   -4.9992  -18.0571   18.3314 H   0  0  0  0  0  0  0  0  0  0  0  0
   -4.5809  -20.0220   20.3978 H   0  0  0  0  0  0  0  0  0  0  0  0
   -4.4902  -18.1737   20.1932 H   0  0  0  0  0  0  0  0  0  0  0  0
   -6.5065  -17.8827   20.2575 H   0  0  0  0  0  0  0  0  0  0  0  0
   -5.8542  -17.6984   21.4625 H   0  0  0  0  0  0  0  0  0  0  0  0
   -6.5196  -15.7884   23.5230 H   0  0  0  0  0  0  0  0  0  0  0  0
  -10.3617  -16.6857   25.0890 H   0  0  0  0  0  0  0  0  0  0  0  0
  -11.2995  -15.7704   27.1614 H   0  0  0  0  0  0  0  0  0  0  0  0
  -10.6577  -14.0099   29.4040 H   0  0  0  0  0  0  0  0  0  0  0  0
   -8.7317  -12.5870   30.1547 H   0  0  0  0  0  0  0  0  0  0  0  0
   -6.7271  -12.9521   28.3348 H   0  0  0  0  0  0  0  0  0  0  0  0
   -6.9374  -14.3333   25.9267 H   0  0  0  0  0  0  0  0  0  0  0  0
  1  2  1  0
  2  3  1  0
  3  4  1  0
  4  5  1  0
  5  6  1  0
  6  7  1  0
  7  8  1  0
  8  9  1  0
  9 10  2  0
  9 11  1  0
 11 12  1  0
 12 13  2  0
 13 14  1  0
 14 15  2  0
 15 16  1  0
 16 17  1  0
 17 18  2  0
 18 19  1  0
 19 20  2  0
  7  3  1  0
 20 12  1  0
 19 15  1  0
  1 21  1  0
  1 22  1  0
  1 23  1  0
  2 24  1  0
  2 25  1  0
  3 26  1  0
  5 27  1  0
  5 28  1  0
  6 29  1  0
  6 30  1  0
  7 31  1  0
  8 32  1  0
 11 33  1  0
 13 34  1  0
 14 35  1  0
 16 36  1  0
 17 37  1  0
 18 38  1  0
 20 39  1  0
M  END
>  <Energy>  (1137) 
549.52506575483551

>  <compound_id>  (1137) 
35894

>  <target_id>  (1137) 
1

>  <reference_id>  (1137) 
40

>  <inspiration_ids>  (1137) 
[28, 40]

>  <energy_score>  (1137) 
538.5201198544016

>  <distance_score>  (1137) 
12.282208564953077

>  <path>  (1137) 
/opt/xchem-fragalysis-2/maxwin/BulkDock/SCRATCH/511013/C35894-P40/C35894-P40.minimised.mol

>  <scratch_subdir>  (1137) 
/opt/xchem-fragalysis-2/maxwin/BulkDock/SCRATCH/511013/C35894-P40

>  <fragmenstein_runtime>  (1137) 
13.260544538497925

>  <fragmenstein_outcome>  (1137) 
too moved

>  <fragmenstein_mode>  (1137) 
expansion

>  <fragmenstein_error>  (1137) 


$$$$
C35895-P28
     RDKit          3D

 42 44  0  0  0  0  0  0  0  0999 V2000
  -11.5950  -21.2888   22.7277 C   0  0  0  0  0  0  0  0  0  0  0  0
  -10.3437  -21.3586   23.6043 C   0  0  0  0  0  0  0  0  0  0  0  0
  -10.2682  -20.2717   24.5853 O   0  0  0  0  0  0  0  0  0  0  0  0
   -9.1518  -20.3417   25.5743 C   0  0  0  0  0  0  0  0  0  0  0  0
   -9.2514  -19.2825   26.9214 C   0  0  0  0  0  0  0  0  0  0  0  0
   -8.9901  -17.7446   26.9822 N   0  0  0  0  0  0  0  0  0  0  0  0
   -8.4207  -17.2663   28.3055 C   0  0  0  0  0  0  0  0  0  0  0  0
   -8.0366  -15.7778   28.4664 C   0  0  0  0  0  0  0  0  0  0  0  0
   -8.0773  -14.8196   27.4441 C   0  0  0  0  0  0  0  0  0  0  0  0
   -7.6738  -13.4800   27.6309 C   0  0  0  0  0  0  0  0  0  0  0  0
   -7.2745  -13.1003   28.9114 C   0  0  0  0  0  0  0  0  0  0  0  0
   -6.8973  -11.8761   29.4039 N   0  0  0  0  0  0  0  0  0  0  0  0
   -6.7492  -11.9494   30.7638 C   0  0  0  0  0  0  0  0  0  0  0  0
   -6.8501  -13.2700   31.1261 C   0  0  0  0  0  0  0  0  0  0  0  0
   -7.2213  -14.0017   29.9691 C   0  0  0  0  0  0  0  0  0  0  0  0
   -7.5706  -15.3503   29.7320 C   0  0  0  0  0  0  0  0  0  0  0  0
   -7.7911  -20.3103   24.8599 C   0  0  0  0  0  0  0  0  0  0  0  0
   -7.2710  -21.7381   24.8836 C   0  0  0  0  0  0  0  0  0  0  0  0
   -8.3536  -22.5759   25.2902 O   0  0  0  0  0  0  0  0  0  0  0  0
   -9.1298  -21.7655   26.1956 C   0  0  0  0  0  0  0  0  0  0  0  0
  -12.4745  -21.5514   23.3261 H   0  0  0  0  0  0  0  0  0  0  0  0
  -11.5261  -21.9902   21.8917 H   0  0  0  0  0  0  0  0  0  0  0  0
  -11.7807  -20.2826   22.3531 H   0  0  0  0  0  0  0  0  0  0  0  0
   -9.4512  -21.3407   22.9808 H   0  0  0  0  0  0  0  0  0  0  0  0
  -10.3984  -22.3221   24.1147 H   0  0  0  0  0  0  0  0  0  0  0  0
   -8.5422  -19.7026   27.6452 H   0  0  0  0  0  0  0  0  0  0  0  0
  -10.2589  -19.4243   27.3324 H   0  0  0  0  0  0  0  0  0  0  0  0
   -9.9177  -17.3072   26.9152 H   0  0  0  0  0  0  0  0  0  0  0  0
   -9.1619  -17.5016   29.0793 H   0  0  0  0  0  0  0  0  0  0  0  0
   -7.5177  -17.8533   28.5115 H   0  0  0  0  0  0  0  0  0  0  0  0
   -8.4101  -15.1167   26.4541 H   0  0  0  0  0  0  0  0  0  0  0  0
   -7.7019  -12.7679   26.8124 H   0  0  0  0  0  0  0  0  0  0  0  0
   -6.7525  -11.0480   28.8342 H   0  0  0  0  0  0  0  0  0  0  0  0
   -6.5604  -11.0681   31.3594 H   0  0  0  0  0  0  0  0  0  0  0  0
   -6.7493  -13.6575   32.1303 H   0  0  0  0  0  0  0  0  0  0  0  0
   -7.5208  -16.0561   30.5575 H   0  0  0  0  0  0  0  0  0  0  0  0
   -7.8617  -19.9576   23.8272 H   0  0  0  0  0  0  0  0  0  0  0  0
   -7.0671  -19.6773   25.3788 H   0  0  0  0  0  0  0  0  0  0  0  0
   -6.8752  -22.0772   23.9297 H   0  0  0  0  0  0  0  0  0  0  0  0
   -6.4680  -21.8404   25.6234 H   0  0  0  0  0  0  0  0  0  0  0  0
  -10.1264  -22.2019   26.3117 H   0  0  0  0  0  0  0  0  0  0  0  0
   -8.6226  -21.8009   27.1661 H   0  0  0  0  0  0  0  0  0  0  0  0
  1  2  1  0
  2  3  1  0
  3  4  1  0
  4  5  1  0
  5  6  1  0
  6  7  1  0
  7  8  1  0
  8  9  2  0
  9 10  1  0
 10 11  2  0
 11 12  1  0
 12 13  1  0
 13 14  2  0
 14 15  1  0
 15 16  2  0
  4 17  1  0
 17 18  1  0
 18 19  1  0
 19 20  1  0
 20  4  1  0
 16  8  1  0
 15 11  1  0
  1 21  1  0
  1 22  1  0
  1 23  1  0
  2 24  1  0
  2 25  1  0
  5 26  1  0
  5 27  1  0
  6 28  1  0
  7 29  1  0
  7 30  1  0
  9 31  1  0
 10 32  1  0
 12 33  1  0
 13 34  1  0
 14 35  1  0
 16 36  1  0
 17 37  1  0
 17 38  1  0
 18 39  1  0
 18 40  1  0
 20 41  1  0
 20 42  1  0
M  END
>  <Energy>  (1138) 
102.74964845662477

>  <compound_id>  (1138) 
35895

>  <target_id>  (1138) 
1

>  <reference_id>  (1138) 
28

>  <inspiration_ids>  (1138) 
[28, 40]

>  <energy_score>  (1138) 
-65.34582496628889

>  <distance_score>  (1138) 
12.664321425647476

>  <path>  (1138) 
/opt/xchem-fragalysis-2/maxwin/BulkDock/SCRATCH/511013/C35895-P28/C35895-P28.minimised.mol

>  <scratch_subdir>  (1138) 
/opt/xchem-fragalysis-2/maxwin/BulkDock/SCRATCH/511013/C35895-P28

>  <fragmenstein_runtime>  (1138) 
17.249656915664673

>  <fragmenstein_outcome>  (1138) 
too moved

>  <fragmenstein_mode>  (1138) 
expansion

>  <fragmenstein_error>  (1138) 


$$$$
C35895-P40
     RDKit          3D

 42 44  0  0  0  0  0  0  0  0999 V2000
   -5.3550  -18.8914   18.8475 C   0  0  0  0  0  0  0  0  0  0  0  0
   -5.2965  -19.2942   20.3152 C   0  0  0  0  0  0  0  0  0  0  0  0
   -5.3386  -18.4031   21.5445 O   0  0  0  0  0  0  0  0  0  0  0  0
   -4.5190  -16.8400   22.1248 C   0  0  0  0  0  0  0  0  0  0  0  0
   -3.8004  -15.3619   23.5780 C   0  0  0  0  0  0  0  0  0  0  0  0
   -2.3143  -14.5258   24.7475 N   0  0  0  0  0  0  0  0  0  0  0  0
   -2.5569  -13.0436   26.0949 C   0  0  0  0  0  0  0  0  0  0  0  0
   -2.3826  -11.7281   27.6168 C   0  0  0  0  0  0  0  0  0  0  0  0
   -2.4808  -11.8296   29.0701 C   0  0  0  0  0  0  0  0  0  0  0  0
   -1.4730  -10.8111   30.1893 C   0  0  0  0  0  0  0  0  0  0  0  0
   -0.8927   -9.5330   30.2271 C   0  0  0  0  0  0  0  0  0  0  0  0
   -0.5552   -8.5106   31.0518 N   0  0  0  0  0  0  0  0  0  0  0  0
    0.0701   -7.5628   30.2754 C   0  0  0  0  0  0  0  0  0  0  0  0
    0.1899   -8.0929   29.0013 C   0  0  0  0  0  0  0  0  0  0  0  0
   -0.6260   -9.2562   28.9602 C   0  0  0  0  0  0  0  0  0  0  0  0
   -1.2558  -10.5411   27.9991 C   0  0  0  0  0  0  0  0  0  0  0  0
   -4.5717  -16.7945   20.7702 C   0  0  0  0  0  0  0  0  0  0  0  0
   -6.4670  -17.0564   20.5540 C   0  0  0  0  0  0  0  0  0  0  0  0
   -7.2060  -17.7183   21.6672 O   0  0  0  0  0  0  0  0  0  0  0  0
   -6.2109  -17.6990   22.7785 C   0  0  0  0  0  0  0  0  0  0  0  0
   -4.7502  -19.5183   18.2208 H   0  0  0  0  0  0  0  0  0  0  0  0
   -6.3984  -18.9961   18.5394 H   0  0  0  0  0  0  0  0  0  0  0  0
   -5.0372  -17.8898   18.5711 H   0  0  0  0  0  0  0  0  0  0  0  0
   -6.2968  -19.6670   20.4028 H   0  0  0  0  0  0  0  0  0  0  0  0
   -4.6377  -20.1385   20.5076 H   0  0  0  0  0  0  0  0  0  0  0  0
   -4.6961  -14.7530   23.6849 H   0  0  0  0  0  0  0  0  0  0  0  0
   -3.3459  -14.6827   22.9447 H   0  0  0  0  0  0  0  0  0  0  0  0
   -2.1110  -15.3163   25.3720 H   0  0  0  0  0  0  0  0  0  0  0  0
   -2.9144  -13.7536   26.8382 H   0  0  0  0  0  0  0  0  0  0  0  0
   -3.0836  -12.3416   25.4568 H   0  0  0  0  0  0  0  0  0  0  0  0
   -2.9110  -12.7463   29.4840 H   0  0  0  0  0  0  0  0  0  0  0  0
   -1.0441  -11.2791   31.0637 H   0  0  0  0  0  0  0  0  0  0  0  0
   -0.7229   -8.4629   32.0507 H   0  0  0  0  0  0  0  0  0  0  0  0
    0.4392   -6.6444   30.7147 H   0  0  0  0  0  0  0  0  0  0  0  0
    0.7301   -7.5939   28.2172 H   0  0  0  0  0  0  0  0  0  0  0  0
   -0.2359  -10.6435   28.0919 H   0  0  0  0  0  0  0  0  0  0  0  0
   -3.8549  -16.0744   20.3640 H   0  0  0  0  0  0  0  0  0  0  0  0
   -4.1649  -17.5397   20.1461 H   0  0  0  0  0  0  0  0  0  0  0  0
   -6.6702  -17.4866   19.5917 H   0  0  0  0  0  0  0  0  0  0  0  0
   -7.0793  -16.1960   20.4845 H   0  0  0  0  0  0  0  0  0  0  0  0
   -6.6772  -17.1011   23.5471 H   0  0  0  0  0  0  0  0  0  0  0  0
   -6.2215  -18.6784   23.2839 H   0  0  0  0  0  0  0  0  0  0  0  0
  1  2  1  0
  2  3  1  0
  3  4  1  0
  4  5  1  0
  5  6  1  0
  6  7  1  0
  7  8  1  0
  8  9  2  0
  9 10  1  0
 10 11  2  0
 11 12  1  0
 12 13  1  0
 13 14  2  0
 14 15  1  0
 15 16  2  0
  4 17  1  0
 17 18  1  0
 18 19  1  0
 19 20  1  0
 20  4  1  0
 16  8  1  0
 15 11  1  0
  1 21  1  0
  1 22  1  0
  1 23  1  0
  2 24  1  0
  2 25  1  0
  5 26  1  0
  5 27  1  0
  6 28  1  0
  7 29  1  0
  7 30  1  0
  9 31  1  0
 10 32  1  0
 12 33  1  0
 13 34  1  0
 14 35  1  0
 16 36  1  0
 17 37  1  0
 17 38  1  0
 18 39  1  0
 18 40  1  0
 20 41  1  0
 20 42  1  0
M  END
>  <Energy>  (1139) 
1301.9287874355819

>  <compound_id>  (1139) 
35895

>  <target_id>  (1139) 
1

>  <reference_id>  (1139) 
40

>  <inspiration_ids>  (1139) 
[28, 40]

>  <energy_score>  (1139) 
1133.8333140126679

>  <distance_score>  (1139) 
9.791234418455682

>  <path>  (1139) 
/opt/xchem-fragalysis-2/maxwin/BulkDock/SCRATCH/511013/C35895-P40/C35895-P40.minimised.mol

>  <scratch_subdir>  (1139) 
/opt/xchem-fragalysis-2/maxwin/BulkDock/SCRATCH/511013/C35895-P40

>  <fragmenstein_runtime>  (1139) 
11.122690439224243

>  <fragmenstein_outcome>  (1139) 
too moved

>  <fragmenstein_mode>  (1139) 
expansion

>  <fragmenstein_error>  (1139) 


$$$$
C35896-P28
     RDKit          3D

 39 41  0  0  0  0  0  0  0  0999 V2000
   -5.9207  -19.0467   19.0015 O   0  0  0  0  0  0  0  0  0  0  0  0
   -5.0788  -18.5542   20.0702 C   0  0  0  0  0  0  0  0  0  0  0  0
   -5.6491  -17.7263   21.5838 C   0  0  0  0  0  0  0  0  0  0  0  0
   -4.2967  -16.5449   22.1484 C   0  0  0  0  0  0  0  0  0  0  0  0
   -4.0396  -15.4118   23.7494 N   0  0  0  0  0  0  0  0  0  0  0  0
   -2.5580  -15.0432   24.9381 C   0  0  0  0  0  0  0  0  0  0  0  0
   -2.4091  -13.8423   26.4458 C   0  0  0  0  0  0  0  0  0  0  0  0
   -2.4678  -14.2244   27.8322 C   0  0  0  0  0  0  0  0  0  0  0  0
   -2.8946  -13.2964   29.0556 C   0  0  0  0  0  0  0  0  0  0  0  0
   -2.5547  -11.8623   29.1113 C   0  0  0  0  0  0  0  0  0  0  0  0
   -1.7810  -10.8660   30.1268 N   0  0  0  0  0  0  0  0  0  0  0  0
   -1.0230   -9.8164   29.6745 C   0  0  0  0  0  0  0  0  0  0  0  0
   -1.0409  -10.1094   28.3515 C   0  0  0  0  0  0  0  0  0  0  0  0
   -2.2610  -11.3727   27.8335 C   0  0  0  0  0  0  0  0  0  0  0  0
   -2.5799  -12.3953   26.5402 C   0  0  0  0  0  0  0  0  0  0  0  0
   -6.8904  -17.4881   20.8819 C   0  0  0  0  0  0  0  0  0  0  0  0
   -7.3275  -18.9395   21.0304 C   0  0  0  0  0  0  0  0  0  0  0  0
   -7.5348  -19.1233   22.3864 O   0  0  0  0  0  0  0  0  0  0  0  0
   -6.5234  -18.2623   22.8092 C   0  0  0  0  0  0  0  0  0  0  0  0
   -5.4616  -19.8463   18.6678 H   0  0  0  0  0  0  0  0  0  0  0  0
   -4.5410  -19.4441   20.3753 H   0  0  0  0  0  0  0  0  0  0  0  0
   -4.5668  -17.7740   19.5446 H   0  0  0  0  0  0  0  0  0  0  0  0
   -4.7981  -15.8623   21.6647 H   0  0  0  0  0  0  0  0  0  0  0  0
   -3.5003  -16.5984   21.3620 H   0  0  0  0  0  0  0  0  0  0  0  0
   -4.4513  -14.5386   23.4615 H   0  0  0  0  0  0  0  0  0  0  0  0
   -2.3786  -16.0080   25.4236 H   0  0  0  0  0  0  0  0  0  0  0  0
   -1.6940  -14.7492   24.3455 H   0  0  0  0  0  0  0  0  0  0  0  0
   -2.3973  -15.2838   28.0992 H   0  0  0  0  0  0  0  0  0  0  0  0
   -3.1382  -13.8371   29.9697 H   0  0  0  0  0  0  0  0  0  0  0  0
   -1.4856  -11.0971   31.0579 H   0  0  0  0  0  0  0  0  0  0  0  0
   -0.5086   -9.1036   30.3057 H   0  0  0  0  0  0  0  0  0  0  0  0
   -0.4790   -9.4143   27.7879 H   0  0  0  0  0  0  0  0  0  0  0  0
   -2.8704  -11.8455   25.6468 H   0  0  0  0  0  0  0  0  0  0  0  0
   -6.7642  -17.2209   19.8488 H   0  0  0  0  0  0  0  0  0  0  0  0
   -7.6038  -16.8123   21.3497 H   0  0  0  0  0  0  0  0  0  0  0  0
   -7.9870  -19.4232   20.3465 H   0  0  0  0  0  0  0  0  0  0  0  0
   -6.5157  -19.5950   20.8254 H   0  0  0  0  0  0  0  0  0  0  0  0
   -6.0885  -18.6642   23.6849 H   0  0  0  0  0  0  0  0  0  0  0  0
   -7.0733  -17.4554   23.2445 H   0  0  0  0  0  0  0  0  0  0  0  0
  1  2  1  0
  2  3  1  0
  3  4  1  0
  4  5  1  0
  5  6  1  0
  6  7  1  0
  7  8  2  0
  8  9  1  0
  9 10  2  0
 10 11  1  0
 11 12  1  0
 12 13  2  0
 13 14  1  0
 14 15  2  0
  3 16  1  0
 16 17  1  0
 17 18  1  0
 18 19  1  0
 19  3  1  0
 15  7  1  0
 14 10  1  0
  1 20  1  0
  2 21  1  0
  2 22  1  0
  4 23  1  0
  4 24  1  0
  5 25  1  0
  6 26  1  0
  6 27  1  0
  8 28  1  0
  9 29  1  0
 11 30  1  0
 12 31  1  0
 13 32  1  0
 15 33  1  0
 16 34  1  0
 16 35  1  0
 17 36  1  0
 17 37  1  0
 19 38  1  0
 19 39  1  0
M  END
>  <Energy>  (1140) 
600.68388734993732

>  <compound_id>  (1140) 
35896

>  <target_id>  (1140) 
1

>  <reference_id>  (1140) 
28

>  <inspiration_ids>  (1140) 
[28, 40]

>  <energy_score>  (1140) 
542.1136303545536

>  <distance_score>  (1140) 
9.722799367804404

>  <path>  (1140) 
/opt/xchem-fragalysis-2/maxwin/BulkDock/SCRATCH/511013/C35896-P28/C35896-P28.minimised.mol

>  <scratch_subdir>  (1140) 
/opt/xchem-fragalysis-2/maxwin/BulkDock/SCRATCH/511013/C35896-P28

>  <fragmenstein_runtime>  (1140) 
9.404381275177002

>  <fragmenstein_outcome>  (1140) 
too moved

>  <fragmenstein_mode>  (1140) 
expansion

>  <fragmenstein_error>  (1140) 


$$$$
C35896-P40
     RDKit          3D

 39 41  0  0  0  0  0  0  0  0999 V2000
   -4.9514  -20.6069   20.6508 O   0  0  0  0  0  0  0  0  0  0  0  0
   -4.6889  -19.3150   20.2315 C   0  0  0  0  0  0  0  0  0  0  0  0
   -5.3976  -17.9673   20.8833 C   0  0  0  0  0  0  0  0  0  0  0  0
   -4.2449  -16.6357   21.7354 C   0  0  0  0  0  0  0  0  0  0  0  0
   -4.0768  -15.4785   23.2983 N   0  0  0  0  0  0  0  0  0  0  0  0
   -2.5293  -15.1426   24.3436 C   0  0  0  0  0  0  0  0  0  0  0  0
   -1.8636  -15.3268   25.8525 C   0  0  0  0  0  0  0  0  0  0  0  0
   -1.3791  -16.5428   26.4019 C   0  0  0  0  0  0  0  0  0  0  0  0
   -1.4603  -16.9033   27.7696 C   0  0  0  0  0  0  0  0  0  0  0  0
   -2.1173  -16.0196   28.6132 C   0  0  0  0  0  0  0  0  0  0  0  0
   -2.6169  -16.1604   29.8821 N   0  0  0  0  0  0  0  0  0  0  0  0
   -3.3431  -15.0513   30.2326 C   0  0  0  0  0  0  0  0  0  0  0  0
   -3.1184  -14.0923   29.2688 C   0  0  0  0  0  0  0  0  0  0  0  0
   -2.4017  -14.7269   28.1935 C   0  0  0  0  0  0  0  0  0  0  0  0
   -2.1227  -14.3580   26.7904 C   0  0  0  0  0  0  0  0  0  0  0  0
   -5.9516  -17.6904   19.4955 C   0  0  0  0  0  0  0  0  0  0  0  0
   -6.7415  -18.8585   19.1485 C   0  0  0  0  0  0  0  0  0  0  0  0
   -7.3039  -19.1757   20.4323 O   0  0  0  0  0  0  0  0  0  0  0  0
   -6.6923  -18.3864   21.5124 C   0  0  0  0  0  0  0  0  0  0  0  0
   -4.8389  -20.5879   21.6203 H   0  0  0  0  0  0  0  0  0  0  0  0
   -3.6755  -19.3715   20.4528 H   0  0  0  0  0  0  0  0  0  0  0  0
   -4.6248  -19.2801   19.1411 H   0  0  0  0  0  0  0  0  0  0  0  0
   -3.3368  -16.6419   21.1056 H   0  0  0  0  0  0  0  0  0  0  0  0
   -4.6735  -15.9438   21.1403 H   0  0  0  0  0  0  0  0  0  0  0  0
   -4.4198  -14.5809   23.0047 H   0  0  0  0  0  0  0  0  0  0  0  0
   -1.6925  -14.7501   23.7722 H   0  0  0  0  0  0  0  0  0  0  0  0
   -2.7497  -16.1239   24.6747 H   0  0  0  0  0  0  0  0  0  0  0  0
   -1.0997  -17.3737   25.7782 H   0  0  0  0  0  0  0  0  0  0  0  0
   -1.2011  -17.9083   28.0859 H   0  0  0  0  0  0  0  0  0  0  0  0
   -2.5713  -17.0137   30.4189 H   0  0  0  0  0  0  0  0  0  0  0  0
   -3.8994  -15.0204   31.1586 H   0  0  0  0  0  0  0  0  0  0  0  0
   -3.5324  -13.0918   29.2539 H   0  0  0  0  0  0  0  0  0  0  0  0
   -2.4943  -13.3939   26.4285 H   0  0  0  0  0  0  0  0  0  0  0  0
   -6.7045  -16.9342   19.6042 H   0  0  0  0  0  0  0  0  0  0  0  0
   -5.2252  -17.4836   18.7007 H   0  0  0  0  0  0  0  0  0  0  0  0
   -7.2953  -18.5544   18.2654 H   0  0  0  0  0  0  0  0  0  0  0  0
   -6.2620  -19.7297   18.7579 H   0  0  0  0  0  0  0  0  0  0  0  0
   -6.6387  -18.9844   22.4171 H   0  0  0  0  0  0  0  0  0  0  0  0
   -7.3744  -17.5705   21.7407 H   0  0  0  0  0  0  0  0  0  0  0  0
  1  2  1  0
  2  3  1  0
  3  4  1  0
  4  5  1  0
  5  6  1  0
  6  7  1  0
  7  8  2  0
  8  9  1  0
  9 10  2  0
 10 11  1  0
 11 12  1  0
 12 13  2  0
 13 14  1  0
 14 15  2  0
  3 16  1  0
 16 17  1  0
 17 18  1  0
 18 19  1  0
 19  3  1  0
 15  7  1  0
 14 10  1  0
  1 20  1  0
  2 21  1  0
  2 22  1  0
  4 23  1  0
  4 24  1  0
  5 25  1  0
  6 26  1  0
  6 27  1  0
  8 28  1  0
  9 29  1  0
 11 30  1  0
 12 31  1  0
 13 32  1  0
 15 33  1  0
 16 34  1  0
 16 35  1  0
 17 36  1  0
 17 37  1  0
 19 38  1  0
 19 39  1  0
M  END
>  <Energy>  (1141) 
412.65595413097844

>  <compound_id>  (1141) 
35896

>  <target_id>  (1141) 
1

>  <reference_id>  (1141) 
40

>  <inspiration_ids>  (1141) 
[28, 40]

>  <energy_score>  (1141) 
354.0856971355942

>  <distance_score>  (1141) 
11.150638185943144

>  <path>  (1141) 
/opt/xchem-fragalysis-2/maxwin/BulkDock/SCRATCH/511013/C35896-P40/C35896-P40.minimised.mol

>  <scratch_subdir>  (1141) 
/opt/xchem-fragalysis-2/maxwin/BulkDock/SCRATCH/511013/C35896-P40

>  <fragmenstein_runtime>  (1141) 
9.577582120895386

>  <fragmenstein_outcome>  (1141) 
too moved

>  <fragmenstein_mode>  (1141) 
expansion

>  <fragmenstein_error>  (1141) 


$$$$
C35891-P28
     RDKit          3D

 38 40  0  0  0  0  0  0  0  0999 V2000
   -8.7475  -20.9628   18.6629 O   0  0  0  0  0  0  0  0  0  0  0  0
   -7.7595  -20.4073   18.1225 C   0  0  0  0  0  0  0  0  0  0  0  0
   -6.9681  -21.2496   17.4699 O   0  0  0  0  0  0  0  0  0  0  0  0
   -7.3992  -18.9269   18.2785 C   0  0  0  0  0  0  0  0  0  0  0  0
   -6.2374  -18.5387   19.8280 C   0  0  0  0  0  0  0  0  0  0  0  0
   -5.9488  -17.5353   21.3515 N   0  0  0  0  0  0  0  0  0  0  0  0
   -4.4622  -16.5560   22.0950 C   0  0  0  0  0  0  0  0  0  0  0  0
   -4.1936  -15.1717   23.6029 C   0  0  0  0  0  0  0  0  0  0  0  0
   -4.9718  -13.6457   23.8065 C   0  0  0  0  0  0  0  0  0  0  0  0
   -4.2003  -12.2648   24.7133 C   0  0  0  0  0  0  0  0  0  0  0  0
   -2.9663  -12.6828   25.8349 C   0  0  0  0  0  0  0  0  0  0  0  0
   -3.0203  -12.6197   27.2369 N   0  0  0  0  0  0  0  0  0  0  0  0
   -2.5052  -13.7962   27.8030 C   0  0  0  0  0  0  0  0  0  0  0  0
   -1.6702  -14.4335   26.9091 C   0  0  0  0  0  0  0  0  0  0  0  0
   -2.1951  -14.0485   25.6580 C   0  0  0  0  0  0  0  0  0  0  0  0
   -2.7747  -15.1591   24.6118 C   0  0  0  0  0  0  0  0  0  0  0  0
   -9.2310  -19.4763   17.5878 C   0  0  0  0  0  0  0  0  0  0  0  0
   -9.7704  -18.2653   17.0269 C   0  0  0  0  0  0  0  0  0  0  0  0
   -8.6657  -17.4378   16.9446 O   0  0  0  0  0  0  0  0  0  0  0  0
   -7.6862  -17.5065   17.8226 C   0  0  0  0  0  0  0  0  0  0  0  0
   -5.9960  -21.1930   17.6217 H   0  0  0  0  0  0  0  0  0  0  0  0
   -5.9388  -19.5220   20.1927 H   0  0  0  0  0  0  0  0  0  0  0  0
   -5.3712  -18.1659   19.2703 H   0  0  0  0  0  0  0  0  0  0  0  0
   -6.1669  -18.1809   22.1182 H   0  0  0  0  0  0  0  0  0  0  0  0
   -4.7799  -15.8411   21.5421 H   0  0  0  0  0  0  0  0  0  0  0  0
   -3.6224  -16.7033   21.3840 H   0  0  0  0  0  0  0  0  0  0  0  0
   -5.9426  -13.3625   23.4264 H   0  0  0  0  0  0  0  0  0  0  0  0
   -4.8598  -11.4150   24.8966 H   0  0  0  0  0  0  0  0  0  0  0  0
   -3.7237  -12.0999   27.7349 H   0  0  0  0  0  0  0  0  0  0  0  0
   -2.7069  -13.9955   28.8476 H   0  0  0  0  0  0  0  0  0  0  0  0
   -1.1743  -15.3698   27.1282 H   0  0  0  0  0  0  0  0  0  0  0  0
   -2.4563  -16.1028   25.0520 H   0  0  0  0  0  0  0  0  0  0  0  0
   -9.9383  -19.6617   18.4028 H   0  0  0  0  0  0  0  0  0  0  0  0
   -9.3831  -20.3606   16.9122 H   0  0  0  0  0  0  0  0  0  0  0  0
  -10.5924  -17.7917   17.5875 H   0  0  0  0  0  0  0  0  0  0  0  0
  -10.1871  -18.5473   16.0438 H   0  0  0  0  0  0  0  0  0  0  0  0
   -7.9990  -16.8227   18.5782 H   0  0  0  0  0  0  0  0  0  0  0  0
   -7.1331  -16.8474   17.1972 H   0  0  0  0  0  0  0  0  0  0  0  0
  1  2  2  0
  2  3  1  0
  2  4  1  0
  4  5  1  0
  5  6  1  0
  6  7  1  0
  7  8  1  0
  8  9  2  0
  9 10  1  0
 10 11  2  0
 11 12  1  0
 12 13  1  0
 13 14  2  0
 14 15  1  0
 15 16  2  0
  4 17  1  0
 17 18  1  0
 18 19  1  0
 19 20  1  0
 20  4  1  0
 16  8  1  0
 15 11  1  0
  3 21  1  0
  5 22  1  0
  5 23  1  0
  6 24  1  0
  7 25  1  0
  7 26  1  0
  9 27  1  0
 10 28  1  0
 12 29  1  0
 13 30  1  0
 14 31  1  0
 16 32  1  0
 17 33  1  0
 17 34  1  0
 18 35  1  0
 18 36  1  0
 20 37  1  0
 20 38  1  0
M  END
>  <Energy>  (1142) 
785.26586301582859

>  <compound_id>  (1142) 
35891

>  <target_id>  (1142) 
1

>  <reference_id>  (1142) 
28

>  <inspiration_ids>  (1142) 
[28, 40]

>  <energy_score>  (1142) 
757.2955361534622

>  <distance_score>  (1142) 
10.554832239983238

>  <path>  (1142) 
/opt/xchem-fragalysis-2/maxwin/BulkDock/SCRATCH/511013/C35891-P28/C35891-P28.minimised.mol

>  <scratch_subdir>  (1142) 
/opt/xchem-fragalysis-2/maxwin/BulkDock/SCRATCH/511013/C35891-P28

>  <fragmenstein_runtime>  (1142) 
12.568485260009766

>  <fragmenstein_outcome>  (1142) 
too moved

>  <fragmenstein_mode>  (1142) 
expansion

>  <fragmenstein_error>  (1142) 


$$$$
C35891-P40
     RDKit          3D

 38 40  0  0  0  0  0  0  0  0999 V2000
   -8.7132  -15.9475   18.0534 O   0  0  0  0  0  0  0  0  0  0  0  0
   -9.1046  -15.6522   19.1994 C   0  0  0  0  0  0  0  0  0  0  0  0
  -10.4422  -15.4576   19.1929 O   0  0  0  0  0  0  0  0  0  0  0  0
   -7.7454  -15.7280   20.5658 C   0  0  0  0  0  0  0  0  0  0  0  0
   -7.2846  -13.5256   20.4380 C   0  0  0  0  0  0  0  0  0  0  0  0
   -6.3835  -12.3625   22.1733 N   0  0  0  0  0  0  0  0  0  0  0  0
   -4.9067  -11.5074   23.6940 C   0  0  0  0  0  0  0  0  0  0  0  0
   -2.8558  -10.8118   24.3606 C   0  0  0  0  0  0  0  0  0  0  0  0
   -2.0944   -9.8746   25.9889 C   0  0  0  0  0  0  0  0  0  0  0  0
   -0.7138   -8.4563   26.9747 C   0  0  0  0  0  0  0  0  0  0  0  0
    1.1234   -9.0493   25.9717 C   0  0  0  0  0  0  0  0  0  0  0  0
    2.4824   -8.8017   25.7589 N   0  0  0  0  0  0  0  0  0  0  0  0
    3.0294   -9.5513   24.7141 C   0  0  0  0  0  0  0  0  0  0  0  0
    2.2840  -10.6495   24.2416 C   0  0  0  0  0  0  0  0  0  0  0  0
    0.8307  -10.5818   24.7612 C   0  0  0  0  0  0  0  0  0  0  0  0
   -0.9564  -10.9112   23.7414 C   0  0  0  0  0  0  0  0  0  0  0  0
   -7.6100  -17.0973   21.7333 C   0  0  0  0  0  0  0  0  0  0  0  0
   -6.4910  -18.0871   21.5333 C   0  0  0  0  0  0  0  0  0  0  0  0
   -6.5174  -18.4147   20.1942 O   0  0  0  0  0  0  0  0  0  0  0  0
   -6.7159  -17.1446   19.5483 C   0  0  0  0  0  0  0  0  0  0  0  0
  -10.8084  -15.4588   18.2967 H   0  0  0  0  0  0  0  0  0  0  0  0
   -8.4458  -13.3987   20.2928 H   0  0  0  0  0  0  0  0  0  0  0  0
   -7.0943  -12.9087   19.4788 H   0  0  0  0  0  0  0  0  0  0  0  0
   -6.0381  -11.6203   21.5308 H   0  0  0  0  0  0  0  0  0  0  0  0
   -5.3820  -11.8817   24.5962 H   0  0  0  0  0  0  0  0  0  0  0  0
   -5.3073  -10.4746   23.5804 H   0  0  0  0  0  0  0  0  0  0  0  0
   -2.1859  -10.8523   26.6548 H   0  0  0  0  0  0  0  0  0  0  0  0
   -0.4991   -8.3061   28.0883 H   0  0  0  0  0  0  0  0  0  0  0  0
    2.9825   -8.0237   26.1611 H   0  0  0  0  0  0  0  0  0  0  0  0
    4.0259   -9.2772   24.3943 H   0  0  0  0  0  0  0  0  0  0  0  0
    2.5741  -11.2845   23.4155 H   0  0  0  0  0  0  0  0  0  0  0  0
   -0.5762  -11.4988   22.9004 H   0  0  0  0  0  0  0  0  0  0  0  0
   -8.3924  -17.8005   21.6818 H   0  0  0  0  0  0  0  0  0  0  0  0
   -7.6393  -16.8330   22.7659 H   0  0  0  0  0  0  0  0  0  0  0  0
   -6.6717  -18.9553   22.1628 H   0  0  0  0  0  0  0  0  0  0  0  0
   -5.5152  -17.6944   21.7495 H   0  0  0  0  0  0  0  0  0  0  0  0
   -7.2830  -17.4464   18.6550 H   0  0  0  0  0  0  0  0  0  0  0  0
   -5.8483  -17.1328   18.8694 H   0  0  0  0  0  0  0  0  0  0  0  0
  1  2  2  0
  2  3  1  0
  2  4  1  0
  4  5  1  0
  5  6  1  0
  6  7  1  0
  7  8  1  0
  8  9  2  0
  9 10  1  0
 10 11  2  0
 11 12  1  0
 12 13  1  0
 13 14  2  0
 14 15  1  0
 15 16  2  0
  4 17  1  0
 17 18  1  0
 18 19  1  0
 19 20  1  0
 20  4  1  0
 16  8  1  0
 15 11  1  0
  3 21  1  0
  5 22  1  0
  5 23  1  0
  6 24  1  0
  7 25  1  0
  7 26  1  0
  9 27  1  0
 10 28  1  0
 12 29  1  0
 13 30  1  0
 14 31  1  0
 16 32  1  0
 17 33  1  0
 17 34  1  0
 18 35  1  0
 18 36  1  0
 20 37  1  0
 20 38  1  0
M  END
>  <Energy>  (1143) 
2369.9718955472963

>  <compound_id>  (1143) 
35891

>  <target_id>  (1143) 
1

>  <reference_id>  (1143) 
40

>  <inspiration_ids>  (1143) 
[28, 40]

>  <energy_score>  (1143) 
2342.0015686849156

>  <distance_score>  (1143) 
9.520463820806997

>  <path>  (1143) 
/opt/xchem-fragalysis-2/maxwin/BulkDock/SCRATCH/511013/C35891-P40/C35891-P40.minimised.mol

>  <scratch_subdir>  (1143) 
/opt/xchem-fragalysis-2/maxwin/BulkDock/SCRATCH/511013/C35891-P40

>  <fragmenstein_runtime>  (1143) 
9.681410789489746

>  <fragmenstein_outcome>  (1143) 
too moved

>  <fragmenstein_mode>  (1143) 
expansion

>  <fragmenstein_error>  (1143) 


$$$$
C35899-P28
     RDKit          3D

 45 47  0  0  0  0  0  0  0  0999 V2000
  -10.8095  -17.3227   17.8739 C   0  0  0  0  0  0  0  0  0  0  0  0
   -8.9964  -16.1561   17.9090 C   0  0  0  0  0  0  0  0  0  0  0  0
   -9.0807  -15.1115   19.5358 C   0  0  0  0  0  0  0  0  0  0  0  0
   -8.8186  -13.3287   20.4948 C   0  0  0  0  0  0  0  0  0  0  0  0
   -9.4502  -12.5738   19.2933 O   0  0  0  0  0  0  0  0  0  0  0  0
   -8.2007  -12.2202   22.3742 C   0  0  0  0  0  0  0  0  0  0  0  0
   -7.6776  -10.7006   23.4695 N   0  0  0  0  0  0  0  0  0  0  0  0
   -7.2211  -10.4239   25.3572 C   0  0  0  0  0  0  0  0  0  0  0  0
   -7.4647   -8.6062   26.3538 C   0  0  0  0  0  0  0  0  0  0  0  0
   -7.2482   -8.3435   27.8038 C   0  0  0  0  0  0  0  0  0  0  0  0
   -7.2606   -7.1061   28.5038 C   0  0  0  0  0  0  0  0  0  0  0  0
   -7.2929   -5.9511   27.7584 C   0  0  0  0  0  0  0  0  0  0  0  0
   -7.1797   -4.6314   28.1216 N   0  0  0  0  0  0  0  0  0  0  0  0
   -7.2075   -3.8400   27.0051 C   0  0  0  0  0  0  0  0  0  0  0  0
   -7.4068   -4.6624   25.9191 C   0  0  0  0  0  0  0  0  0  0  0  0
   -7.4208   -6.0060   26.3881 C   0  0  0  0  0  0  0  0  0  0  0  0
   -7.5094   -7.2861   25.7483 C   0  0  0  0  0  0  0  0  0  0  0  0
   -7.4105  -15.5960   16.8335 C   0  0  0  0  0  0  0  0  0  0  0  0
   -7.6770  -15.9051   15.4519 C   0  0  0  0  0  0  0  0  0  0  0  0
   -8.1818  -17.1724   16.2076 C   0  0  0  0  0  0  0  0  0  0  0  0
   -8.1048  -17.3189   17.6009 O   0  0  0  0  0  0  0  0  0  0  0  0
  -11.2788  -17.3912   18.8394 H   0  0  0  0  0  0  0  0  0  0  0  0
  -11.5163  -17.4956   17.0407 H   0  0  0  0  0  0  0  0  0  0  0  0
  -10.1405  -18.2355   17.7020 H   0  0  0  0  0  0  0  0  0  0  0  0
   -8.8082  -15.8677   20.2573 H   0  0  0  0  0  0  0  0  0  0  0  0
  -10.1254  -15.0506   19.3197 H   0  0  0  0  0  0  0  0  0  0  0  0
   -7.8066  -13.3050   19.9857 H   0  0  0  0  0  0  0  0  0  0  0  0
  -10.1697  -13.0856   18.9001 H   0  0  0  0  0  0  0  0  0  0  0  0
   -7.1675  -11.9687   21.9403 H   0  0  0  0  0  0  0  0  0  0  0  0
   -7.3281  -12.6499   22.8993 H   0  0  0  0  0  0  0  0  0  0  0  0
   -8.4677  -10.0747   23.2886 H   0  0  0  0  0  0  0  0  0  0  0  0
   -6.4417  -11.1127   25.6059 H   0  0  0  0  0  0  0  0  0  0  0  0
   -8.0834  -10.9943   25.7454 H   0  0  0  0  0  0  0  0  0  0  0  0
   -7.0402   -9.1080   28.5476 H   0  0  0  0  0  0  0  0  0  0  0  0
   -7.1744   -7.0918   29.5839 H   0  0  0  0  0  0  0  0  0  0  0  0
   -7.0602   -4.3023   29.0690 H   0  0  0  0  0  0  0  0  0  0  0  0
   -7.1051   -2.7656   27.0793 H   0  0  0  0  0  0  0  0  0  0  0  0
   -7.4870   -4.3424   24.8881 H   0  0  0  0  0  0  0  0  0  0  0  0
   -7.7464   -7.1058   24.7258 H   0  0  0  0  0  0  0  0  0  0  0  0
   -7.1296  -14.5238   16.8555 H   0  0  0  0  0  0  0  0  0  0  0  0
   -6.4022  -16.0129   16.8868 H   0  0  0  0  0  0  0  0  0  0  0  0
   -7.0276  -16.1476   14.6109 H   0  0  0  0  0  0  0  0  0  0  0  0
   -8.2678  -15.1455   14.9003 H   0  0  0  0  0  0  0  0  0  0  0  0
   -8.2115  -17.6993   15.2739 H   0  0  0  0  0  0  0  0  0  0  0  0
   -9.0159  -17.7981   15.9985 H   0  0  0  0  0  0  0  0  0  0  0  0
  1  2  1  0
  2  3  1  0
  3  4  1  0
  4  5  1  0
  4  6  1  0
  6  7  1  0
  7  8  1  0
  8  9  1  0
  9 10  2  0
 10 11  1  0
 11 12  2  0
 12 13  1  0
 13 14  1  0
 14 15  2  0
 15 16  1  0
 16 17  2  0
  2 18  1  0
 18 19  1  0
 19 20  1  0
 20 21  1  0
 21  2  1  0
 17  9  1  0
 16 12  1  0
  1 22  1  0
  1 23  1  0
  1 24  1  0
  3 25  1  0
  3 26  1  0
  4 27  1  0
  5 28  1  0
  6 29  1  0
  6 30  1  0
  7 31  1  0
  8 32  1  0
  8 33  1  0
 10 34  1  0
 11 35  1  0
 13 36  1  0
 14 37  1  0
 15 38  1  0
 17 39  1  0
 18 40  1  0
 18 41  1  0
 19 42  1  0
 19 43  1  0
 20 44  1  0
 20 45  1  0
M  END
>  <Energy>  (1144) 
1105.5482176577623

>  <compound_id>  (1144) 
35899

>  <target_id>  (1144) 
1

>  <reference_id>  (1144) 
28

>  <inspiration_ids>  (1144) 
[28, 40]

>  <energy_score>  (1144) 
1010.7695580098675

>  <distance_score>  (1144) 
9.199215894658408

>  <path>  (1144) 
/opt/xchem-fragalysis-2/maxwin/BulkDock/SCRATCH/511013/C35899-P28/C35899-P28.minimised.mol

>  <scratch_subdir>  (1144) 
/opt/xchem-fragalysis-2/maxwin/BulkDock/SCRATCH/511013/C35899-P28

>  <fragmenstein_runtime>  (1144) 
14.55677342414856

>  <fragmenstein_outcome>  (1144) 
too moved

>  <fragmenstein_mode>  (1144) 
expansion

>  <fragmenstein_error>  (1144) 


$$$$
C35899-P40
     RDKit          3D

 45 47  0  0  0  0  0  0  0  0999 V2000
  -12.1394  -18.9977   18.7501 C   0  0  0  0  0  0  0  0  0  0  0  0
  -11.2619  -17.2607   18.4310 C   0  0  0  0  0  0  0  0  0  0  0  0
  -11.4881  -15.5206   19.8158 C   0  0  0  0  0  0  0  0  0  0  0  0
  -11.3618  -13.5769   21.0285 C   0  0  0  0  0  0  0  0  0  0  0  0
   -9.9278  -13.2107   19.9425 O   0  0  0  0  0  0  0  0  0  0  0  0
  -11.0892  -12.0444   22.4046 C   0  0  0  0  0  0  0  0  0  0  0  0
  -11.5920  -11.2868   23.9309 N   0  0  0  0  0  0  0  0  0  0  0  0
  -11.3378  -11.6223   25.3810 C   0  0  0  0  0  0  0  0  0  0  0  0
  -11.2867  -10.6475   26.6271 C   0  0  0  0  0  0  0  0  0  0  0  0
  -10.6015  -11.1546   27.7656 C   0  0  0  0  0  0  0  0  0  0  0  0
  -10.1071  -10.3483   28.8117 C   0  0  0  0  0  0  0  0  0  0  0  0
  -10.2238   -8.9713   28.6488 C   0  0  0  0  0  0  0  0  0  0  0  0
   -9.5992   -7.9402   29.3184 N   0  0  0  0  0  0  0  0  0  0  0  0
   -9.9241   -6.7443   28.7390 C   0  0  0  0  0  0  0  0  0  0  0  0
  -10.8246   -7.0028   27.7265 C   0  0  0  0  0  0  0  0  0  0  0  0
  -11.0104   -8.4180   27.6333 C   0  0  0  0  0  0  0  0  0  0  0  0
  -11.6457   -9.2827   26.6683 C   0  0  0  0  0  0  0  0  0  0  0  0
  -11.7107  -17.7606   16.5504 C   0  0  0  0  0  0  0  0  0  0  0  0
  -10.2891  -18.5803   15.8376 C   0  0  0  0  0  0  0  0  0  0  0  0
   -9.4694  -18.5389   17.1200 C   0  0  0  0  0  0  0  0  0  0  0  0
  -10.3048  -18.1512   18.0669 O   0  0  0  0  0  0  0  0  0  0  0  0
  -11.7818  -19.8959   19.2798 H   0  0  0  0  0  0  0  0  0  0  0  0
  -12.9208  -18.9067   17.9976 H   0  0  0  0  0  0  0  0  0  0  0  0
  -12.6608  -19.8028   18.1512 H   0  0  0  0  0  0  0  0  0  0  0  0
  -10.4434  -15.3316   19.3907 H   0  0  0  0  0  0  0  0  0  0  0  0
  -12.5748  -15.5795   19.7315 H   0  0  0  0  0  0  0  0  0  0  0  0
  -11.1417  -14.0140   22.0688 H   0  0  0  0  0  0  0  0  0  0  0  0
   -9.2212  -13.7230   20.3712 H   0  0  0  0  0  0  0  0  0  0  0  0
  -11.7765  -11.2552   22.0910 H   0  0  0  0  0  0  0  0  0  0  0  0
  -10.0816  -11.6293   22.3086 H   0  0  0  0  0  0  0  0  0  0  0  0
  -12.5831  -11.0605   23.8245 H   0  0  0  0  0  0  0  0  0  0  0  0
  -12.0513  -12.3902   25.6911 H   0  0  0  0  0  0  0  0  0  0  0  0
  -10.3264  -11.9705   25.4043 H   0  0  0  0  0  0  0  0  0  0  0  0
  -10.3446  -12.2147   27.7942 H   0  0  0  0  0  0  0  0  0  0  0  0
   -9.5284  -10.7863   29.6171 H   0  0  0  0  0  0  0  0  0  0  0  0
   -8.9473   -8.0637   30.0807 H   0  0  0  0  0  0  0  0  0  0  0  0
   -9.4997   -5.8163   29.0966 H   0  0  0  0  0  0  0  0  0  0  0  0
  -11.2536   -6.2615   27.0648 H   0  0  0  0  0  0  0  0  0  0  0  0
  -12.1630   -8.8336   25.8237 H   0  0  0  0  0  0  0  0  0  0  0  0
  -12.2692  -17.2560   15.7445 H   0  0  0  0  0  0  0  0  0  0  0  0
  -12.5730  -18.4202   16.4832 H   0  0  0  0  0  0  0  0  0  0  0  0
  -10.3734  -18.2411   14.8108 H   0  0  0  0  0  0  0  0  0  0  0  0
  -10.0543  -19.5937   15.5003 H   0  0  0  0  0  0  0  0  0  0  0  0
   -8.5721  -17.8281   17.1740 H   0  0  0  0  0  0  0  0  0  0  0  0
   -9.1849  -19.5836   17.4442 H   0  0  0  0  0  0  0  0  0  0  0  0
  1  2  1  0
  2  3  1  0
  3  4  1  0
  4  5  1  0
  4  6  1  0
  6  7  1  0
  7  8  1  0
  8  9  1  0
  9 10  2  0
 10 11  1  0
 11 12  2  0
 12 13  1  0
 13 14  1  0
 14 15  2  0
 15 16  1  0
 16 17  2  0
  2 18  1  0
 18 19  1  0
 19 20  1  0
 20 21  1  0
 21  2  1  0
 17  9  1  0
 16 12  1  0
  1 22  1  0
  1 23  1  0
  1 24  1  0
  3 25  1  0
  3 26  1  0
  4 27  1  0
  5 28  1  0
  6 29  1  0
  6 30  1  0
  7 31  1  0
  8 32  1  0
  8 33  1  0
 10 34  1  0
 11 35  1  0
 13 36  1  0
 14 37  1  0
 15 38  1  0
 17 39  1  0
 18 40  1  0
 18 41  1  0
 19 42  1  0
 19 43  1  0
 20 44  1  0
 20 45  1  0
M  END
>  <Energy>  (1145) 
1138.3530237445912

>  <compound_id>  (1145) 
35899

>  <target_id>  (1145) 
1

>  <reference_id>  (1145) 
40

>  <inspiration_ids>  (1145) 
[28, 40]

>  <energy_score>  (1145) 
1043.5743640966953

>  <distance_score>  (1145) 
11.28977448857242

>  <path>  (1145) 
/opt/xchem-fragalysis-2/maxwin/BulkDock/SCRATCH/511013/C35899-P40/C35899-P40.minimised.mol

>  <scratch_subdir>  (1145) 
/opt/xchem-fragalysis-2/maxwin/BulkDock/SCRATCH/511013/C35899-P40

>  <fragmenstein_runtime>  (1145) 
14.053501605987549

>  <fragmenstein_outcome>  (1145) 
too moved

>  <fragmenstein_mode>  (1145) 
expansion

>  <fragmenstein_error>  (1145) 


$$$$
C35902-P28
     RDKit          3D

 40 42  0  0  0  0  0  0  0  0999 V2000
   -2.6070   -7.9087   26.5284 C   0  0  0  0  0  0  0  0  0  0  0  0
   -2.8165   -9.6820   25.5035 C   0  0  0  0  0  0  0  0  0  0  0  0
   -2.8051  -11.4706   25.0838 N   0  0  0  0  0  0  0  0  0  0  0  0
   -2.5723  -11.6291   26.9422 C   0  0  0  0  0  0  0  0  0  0  0  0
   -1.5468  -10.6965   28.3295 C   0  0  0  0  0  0  0  0  0  0  0  0
   -1.8439  -10.8623   29.8209 C   0  0  0  0  0  0  0  0  0  0  0  0
   -1.4004  -10.0149   31.1122 C   0  0  0  0  0  0  0  0  0  0  0  0
   -0.6366   -8.8118   30.9664 C   0  0  0  0  0  0  0  0  0  0  0  0
   -0.3504   -7.8182   31.8636 N   0  0  0  0  0  0  0  0  0  0  0  0
    0.5351   -6.9508   31.3000 C   0  0  0  0  0  0  0  0  0  0  0  0
    0.8020   -7.4039   30.0268 C   0  0  0  0  0  0  0  0  0  0  0  0
   -0.0217   -8.5511   29.7332 C   0  0  0  0  0  0  0  0  0  0  0  0
   -0.4369   -9.4254   28.4857 C   0  0  0  0  0  0  0  0  0  0  0  0
   -4.1212  -12.5745   24.5124 C   0  0  0  0  0  0  0  0  0  0  0  0
   -5.2978  -12.2002   24.4439 O   0  0  0  0  0  0  0  0  0  0  0  0
   -3.5813  -14.5875   23.7490 C   0  0  0  0  0  0  0  0  0  0  0  0
   -2.7945  -15.2262   24.7281 F   0  0  0  0  0  0  0  0  0  0  0  0
   -4.2051  -16.1963   22.5255 C   0  0  0  0  0  0  0  0  0  0  0  0
   -3.5414  -16.4154   21.1408 C   0  0  0  0  0  0  0  0  0  0  0  0
   -4.6880  -15.8258   21.7601 O   0  0  0  0  0  0  0  0  0  0  0  0
   -4.8386  -15.0666   23.5096 C   0  0  0  0  0  0  0  0  0  0  0  0
   -2.1817   -7.1059   25.9000 H   0  0  0  0  0  0  0  0  0  0  0  0
   -2.1844   -7.5626   27.5031 H   0  0  0  0  0  0  0  0  0  0  0  0
   -3.6562   -7.6697   26.8667 H   0  0  0  0  0  0  0  0  0  0  0  0
   -2.0353   -9.6696   24.8213 H   0  0  0  0  0  0  0  0  0  0  0  0
   -3.6931   -9.5511   24.8309 H   0  0  0  0  0  0  0  0  0  0  0  0
   -2.1536  -12.6425   26.8100 H   0  0  0  0  0  0  0  0  0  0  0  0
   -3.4932  -12.0255   27.4056 H   0  0  0  0  0  0  0  0  0  0  0  0
   -1.6016   -9.8594   29.6767 H   0  0  0  0  0  0  0  0  0  0  0  0
   -1.9307  -10.0749   32.0315 H   0  0  0  0  0  0  0  0  0  0  0  0
   -0.6975   -7.7829   32.8156 H   0  0  0  0  0  0  0  0  0  0  0  0
    0.9235   -6.1086   31.8584 H   0  0  0  0  0  0  0  0  0  0  0  0
    1.5260   -6.9029   29.3965 H   0  0  0  0  0  0  0  0  0  0  0  0
   -0.2594   -8.8135   27.6676 H   0  0  0  0  0  0  0  0  0  0  0  0
   -3.7166  -17.0712   22.4764 H   0  0  0  0  0  0  0  0  0  0  0  0
   -5.2582  -17.1613   22.3083 H   0  0  0  0  0  0  0  0  0  0  0  0
   -3.9332  -17.1531   20.4597 H   0  0  0  0  0  0  0  0  0  0  0  0
   -2.7690  -15.7681   20.6920 H   0  0  0  0  0  0  0  0  0  0  0  0
   -5.5014  -14.1890   23.4648 H   0  0  0  0  0  0  0  0  0  0  0  0
   -5.1935  -15.7090   24.2422 H   0  0  0  0  0  0  0  0  0  0  0  0
  1  2  1  0
  2  3  1  0
  3  4  1  0
  4  5  1  0
  5  6  2  0
  6  7  1  0
  7  8  2  0
  8  9  1  0
  9 10  1  0
 10 11  2  0
 11 12  1  0
 12 13  2  0
  3 14  1  0
 14 15  2  0
 14 16  1  0
 16 17  1  0
 16 18  1  0
 18 19  1  0
 19 20  1  0
 20 21  1  0
 13  5  1  0
 21 16  1  0
 12  8  1  0
  1 22  1  0
  1 23  1  0
  1 24  1  0
  2 25  1  0
  2 26  1  0
  4 27  1  0
  4 28  1  0
  6 29  1  0
  7 30  1  0
  9 31  1  0
 10 32  1  0
 11 33  1  0
 13 34  1  0
 18 35  1  0
 18 36  1  0
 19 37  1  0
 19 38  1  0
 21 39  1  0
 21 40  1  0
M  END
>  <Energy>  (1146) 
1407.9549593107001

>  <compound_id>  (1146) 
35902

>  <target_id>  (1146) 
1

>  <reference_id>  (1146) 
28

>  <inspiration_ids>  (1146) 
[28, 40]

>  <energy_score>  (1146) 
1326.1629030251236

>  <distance_score>  (1146) 
9.371718692826558

>  <path>  (1146) 
/opt/xchem-fragalysis-2/maxwin/BulkDock/SCRATCH/511013/C35902-P28/C35902-P28.minimised.mol

>  <scratch_subdir>  (1146) 
/opt/xchem-fragalysis-2/maxwin/BulkDock/SCRATCH/511013/C35902-P28

>  <fragmenstein_runtime>  (1146) 
11.344950437545776

>  <fragmenstein_outcome>  (1146) 
too moved

>  <fragmenstein_mode>  (1146) 
expansion

>  <fragmenstein_error>  (1146) 


$$$$
C35902-P40
     RDKit          3D

 40 42  0  0  0  0  0  0  0  0999 V2000
   -7.4753  -10.0605   24.8085 C   0  0  0  0  0  0  0  0  0  0  0  0
   -6.1380  -10.8056   24.9247 C   0  0  0  0  0  0  0  0  0  0  0  0
   -5.7104  -12.4236   24.8007 N   0  0  0  0  0  0  0  0  0  0  0  0
   -4.1091  -11.7340   24.9853 C   0  0  0  0  0  0  0  0  0  0  0  0
   -3.1035  -12.1610   26.5707 C   0  0  0  0  0  0  0  0  0  0  0  0
   -3.5687  -12.4934   27.8677 C   0  0  0  0  0  0  0  0  0  0  0  0
   -2.9422  -12.2135   29.2181 C   0  0  0  0  0  0  0  0  0  0  0  0
   -1.9373  -11.1235   29.5335 C   0  0  0  0  0  0  0  0  0  0  0  0
   -1.1272  -10.4871   30.5294 N   0  0  0  0  0  0  0  0  0  0  0  0
   -0.6914   -9.2155   30.2544 C   0  0  0  0  0  0  0  0  0  0  0  0
   -0.5195   -9.2834   28.9211 C   0  0  0  0  0  0  0  0  0  0  0  0
   -1.3349  -10.5655   28.4012 C   0  0  0  0  0  0  0  0  0  0  0  0
   -2.1499  -11.2616   27.0004 C   0  0  0  0  0  0  0  0  0  0  0  0
   -5.7443  -13.5133   23.5181 C   0  0  0  0  0  0  0  0  0  0  0  0
   -6.0400  -13.0465   22.5009 O   0  0  0  0  0  0  0  0  0  0  0  0
   -5.1425  -15.5275   23.5853 C   0  0  0  0  0  0  0  0  0  0  0  0
   -3.8784  -15.4837   24.0763 F   0  0  0  0  0  0  0  0  0  0  0  0
   -4.5823  -16.5832   21.9026 C   0  0  0  0  0  0  0  0  0  0  0  0
   -5.8716  -17.6677   21.2085 C   0  0  0  0  0  0  0  0  0  0  0  0
   -7.0980  -17.5683   22.0031 O   0  0  0  0  0  0  0  0  0  0  0  0
   -6.5620  -17.1492   23.3934 C   0  0  0  0  0  0  0  0  0  0  0  0
   -8.1880  -10.3626   25.5856 H   0  0  0  0  0  0  0  0  0  0  0  0
   -7.9301  -10.0865   23.8199 H   0  0  0  0  0  0  0  0  0  0  0  0
   -7.2893   -8.9949   25.0051 H   0  0  0  0  0  0  0  0  0  0  0  0
   -6.0555  -10.5923   25.9963 H   0  0  0  0  0  0  0  0  0  0  0  0
   -5.4769  -10.2176   24.2850 H   0  0  0  0  0  0  0  0  0  0  0  0
   -4.6319  -11.3914   25.8180 H   0  0  0  0  0  0  0  0  0  0  0  0
   -3.6962  -10.9746   24.3180 H   0  0  0  0  0  0  0  0  0  0  0  0
   -4.6517  -12.6420   27.9970 H   0  0  0  0  0  0  0  0  0  0  0  0
   -3.3615  -12.8712   29.9585 H   0  0  0  0  0  0  0  0  0  0  0  0
   -0.8946  -10.8621   31.4286 H   0  0  0  0  0  0  0  0  0  0  0  0
   -0.4061   -8.5048   31.0209 H   0  0  0  0  0  0  0  0  0  0  0  0
   -0.1738   -8.3940   28.4065 H   0  0  0  0  0  0  0  0  0  0  0  0
   -2.1670  -10.5434   26.1481 H   0  0  0  0  0  0  0  0  0  0  0  0
   -4.5482  -15.9691   21.0768 H   0  0  0  0  0  0  0  0  0  0  0  0
   -3.5972  -16.8027   21.5886 H   0  0  0  0  0  0  0  0  0  0  0  0
   -6.1489  -17.4376   20.1854 H   0  0  0  0  0  0  0  0  0  0  0  0
   -5.6041  -18.7194   21.1586 H   0  0  0  0  0  0  0  0  0  0  0  0
   -6.6084  -17.8464   24.1781 H   0  0  0  0  0  0  0  0  0  0  0  0
   -6.2340  -18.2239   23.1834 H   0  0  0  0  0  0  0  0  0  0  0  0
  1  2  1  0
  2  3  1  0
  3  4  1  0
  4  5  1  0
  5  6  2  0
  6  7  1  0
  7  8  2  0
  8  9  1  0
  9 10  1  0
 10 11  2  0
 11 12  1  0
 12 13  2  0
  3 14  1  0
 14 15  2  0
 14 16  1  0
 16 17  1  0
 16 18  1  0
 18 19  1  0
 19 20  1  0
 20 21  1  0
 13  5  1  0
 21 16  1  0
 12  8  1  0
  1 22  1  0
  1 23  1  0
  1 24  1  0
  2 25  1  0
  2 26  1  0
  4 27  1  0
  4 28  1  0
  6 29  1  0
  7 30  1  0
  9 31  1  0
 10 32  1  0
 11 33  1  0
 13 34  1  0
 18 35  1  0
 18 36  1  0
 19 37  1  0
 19 38  1  0
 21 39  1  0
 21 40  1  0
M  END
>  <Energy>  (1147) 
838.51582932165627

>  <compound_id>  (1147) 
35902

>  <target_id>  (1147) 
1

>  <reference_id>  (1147) 
40

>  <inspiration_ids>  (1147) 
[28, 40]

>  <energy_score>  (1147) 
756.7237730360825

>  <distance_score>  (1147) 
9.64229797017752

>  <path>  (1147) 
/opt/xchem-fragalysis-2/maxwin/BulkDock/SCRATCH/511013/C35902-P40/C35902-P40.minimised.mol

>  <scratch_subdir>  (1147) 
/opt/xchem-fragalysis-2/maxwin/BulkDock/SCRATCH/511013/C35902-P40

>  <fragmenstein_runtime>  (1147) 
13.765467405319214

>  <fragmenstein_outcome>  (1147) 
too moved

>  <fragmenstein_mode>  (1147) 
expansion

>  <fragmenstein_error>  (1147) 


$$$$
C35904-P28
     RDKit          3D

 40 42  0  0  0  0  0  0  0  0999 V2000
   -8.2526   -6.0406   20.2956 O   0  0  0  0  0  0  0  0  0  0  0  0
   -9.3040   -6.0832   20.8679 C   0  0  0  0  0  0  0  0  0  0  0  0
   -9.3207   -5.8263   22.4164 C   0  0  0  0  0  0  0  0  0  0  0  0
   -7.9642   -6.0460   23.1745 C   0  0  0  0  0  0  0  0  0  0  0  0
   -7.3274   -4.8455   23.8699 C   0  0  0  0  0  0  0  0  0  0  0  0
   -7.6586   -4.5022   25.1911 C   0  0  0  0  0  0  0  0  0  0  0  0
   -7.0121   -3.4569   25.8790 C   0  0  0  0  0  0  0  0  0  0  0  0
   -5.9885   -2.7725   25.2103 C   0  0  0  0  0  0  0  0  0  0  0  0
   -5.0903   -1.8313   25.6681 N   0  0  0  0  0  0  0  0  0  0  0  0
   -4.2043   -1.5076   24.6775 C   0  0  0  0  0  0  0  0  0  0  0  0
   -4.5339   -2.2355   23.5586 C   0  0  0  0  0  0  0  0  0  0  0  0
   -5.6381   -3.0671   23.8889 C   0  0  0  0  0  0  0  0  0  0  0  0
   -6.3300   -4.1001   23.2111 C   0  0  0  0  0  0  0  0  0  0  0  0
  -10.6606   -6.2665   20.3549 N   0  0  0  0  0  0  0  0  0  0  0  0
  -11.1714   -6.3584   18.9583 C   0  0  0  0  0  0  0  0  0  0  0  0
  -11.3100   -7.7587   18.2992 C   0  0  0  0  0  0  0  0  0  0  0  0
  -10.1473   -8.4045   18.5505 F   0  0  0  0  0  0  0  0  0  0  0  0
  -12.4997   -8.6139   18.7025 C   0  0  0  0  0  0  0  0  0  0  0  0
  -12.5483   -9.6738   17.6117 C   0  0  0  0  0  0  0  0  0  0  0  0
  -12.1326   -9.0154   16.4086 O   0  0  0  0  0  0  0  0  0  0  0  0
  -11.5297   -7.7515   16.7818 C   0  0  0  0  0  0  0  0  0  0  0  0
  -10.0569   -6.5145   22.8505 H   0  0  0  0  0  0  0  0  0  0  0  0
   -9.6837   -4.8037   22.5713 H   0  0  0  0  0  0  0  0  0  0  0  0
   -8.1341   -6.8108   23.9452 H   0  0  0  0  0  0  0  0  0  0  0  0
   -7.2202   -6.4937   22.5045 H   0  0  0  0  0  0  0  0  0  0  0  0
   -8.4253   -5.0693   25.7171 H   0  0  0  0  0  0  0  0  0  0  0  0
   -7.2643   -3.2308   26.9099 H   0  0  0  0  0  0  0  0  0  0  0  0
   -5.0508   -1.4815   26.6151 H   0  0  0  0  0  0  0  0  0  0  0  0
   -3.4035   -0.8018   24.8569 H   0  0  0  0  0  0  0  0  0  0  0  0
   -4.0054   -2.1997   22.6165 H   0  0  0  0  0  0  0  0  0  0  0  0
   -6.0475   -4.3480   22.1896 H   0  0  0  0  0  0  0  0  0  0  0  0
  -11.3200   -6.1667   21.1180 H   0  0  0  0  0  0  0  0  0  0  0  0
  -12.1311   -5.8316   18.9388 H   0  0  0  0  0  0  0  0  0  0  0  0
  -10.4581   -5.7775   18.3619 H   0  0  0  0  0  0  0  0  0  0  0  0
  -13.4146   -8.0088   18.6492 H   0  0  0  0  0  0  0  0  0  0  0  0
  -12.4564   -9.0291   19.7072 H   0  0  0  0  0  0  0  0  0  0  0  0
  -11.8628  -10.4985   17.8048 H   0  0  0  0  0  0  0  0  0  0  0  0
  -13.5535  -10.0826   17.4764 H   0  0  0  0  0  0  0  0  0  0  0  0
  -10.6060   -7.6139   16.2154 H   0  0  0  0  0  0  0  0  0  0  0  0
  -12.2353   -6.9662   16.4878 H   0  0  0  0  0  0  0  0  0  0  0  0
  1  2  2  0
  2  3  1  0
  3  4  1  0
  4  5  1  0
  5  6  2  0
  6  7  1  0
  7  8  2  0
  8  9  1  0
  9 10  1  0
 10 11  2  0
 11 12  1  0
 12 13  2  0
  2 14  1  0
 14 15  1  0
 15 16  1  0
 16 17  1  0
 16 18  1  0
 18 19  1  0
 19 20  1  0
 20 21  1  0
 13  5  1  0
 21 16  1  0
 12  8  1  0
  3 22  1  0
  3 23  1  0
  4 24  1  0
  4 25  1  0
  6 26  1  0
  7 27  1  0
  9 28  1  0
 10 29  1  0
 11 30  1  0
 13 31  1  0
 14 32  1  0
 15 33  1  0
 15 34  1  0
 18 35  1  0
 18 36  1  0
 19 37  1  0
 19 38  1  0
 21 39  1  0
 21 40  1  0
M  END
>  <Energy>  (1148) 
48.269942156866591

>  <compound_id>  (1148) 
35904

>  <target_id>  (1148) 
1

>  <reference_id>  (1148) 
28

>  <inspiration_ids>  (1148) 
[28, 40]

>  <energy_score>  (1148) 
-8.221070612335154

>  <distance_score>  (1148) 
12.268386190162088

>  <path>  (1148) 
/opt/xchem-fragalysis-2/maxwin/BulkDock/SCRATCH/511013/C35904-P28/C35904-P28.minimised.mol

>  <scratch_subdir>  (1148) 
/opt/xchem-fragalysis-2/maxwin/BulkDock/SCRATCH/511013/C35904-P28

>  <fragmenstein_runtime>  (1148) 
18.36538577079773

>  <fragmenstein_outcome>  (1148) 
too moved

>  <fragmenstein_mode>  (1148) 
expansion

>  <fragmenstein_error>  (1148) 


$$$$
C35904-P40
     RDKit          3D

 40 42  0  0  0  0  0  0  0  0999 V2000
   -3.7538  -14.8082   23.1754 O   0  0  0  0  0  0  0  0  0  0  0  0
   -4.6624  -14.2412   23.6984 C   0  0  0  0  0  0  0  0  0  0  0  0
   -4.0474  -12.3903   24.5526 C   0  0  0  0  0  0  0  0  0  0  0  0
   -2.9404  -12.1418   26.3223 C   0  0  0  0  0  0  0  0  0  0  0  0
   -2.0694  -11.2758   27.9022 C   0  0  0  0  0  0  0  0  0  0  0  0
   -2.3180  -11.5735   29.2434 C   0  0  0  0  0  0  0  0  0  0  0  0
   -1.3433  -10.7126   30.4159 C   0  0  0  0  0  0  0  0  0  0  0  0
   -0.9139   -9.4019   30.6340 C   0  0  0  0  0  0  0  0  0  0  0  0
   -0.6658   -8.4662   31.5818 N   0  0  0  0  0  0  0  0  0  0  0  0
   -0.0501   -7.3989   30.9554 C   0  0  0  0  0  0  0  0  0  0  0  0
    0.2279   -7.7743   29.6508 C   0  0  0  0  0  0  0  0  0  0  0  0
   -0.3156   -9.0877   29.4892 C   0  0  0  0  0  0  0  0  0  0  0  0
   -0.8544  -10.0349   28.4075 C   0  0  0  0  0  0  0  0  0  0  0  0
   -6.3093  -14.9595   23.8894 N   0  0  0  0  0  0  0  0  0  0  0  0
   -6.9932  -16.7402   23.4865 C   0  0  0  0  0  0  0  0  0  0  0  0
   -6.9154  -17.9703   22.4281 C   0  0  0  0  0  0  0  0  0  0  0  0
   -8.1887  -17.9092   21.8823 F   0  0  0  0  0  0  0  0  0  0  0  0
   -6.1207  -17.9011   21.1569 C   0  0  0  0  0  0  0  0  0  0  0  0
   -6.1567  -19.2838   20.6306 C   0  0  0  0  0  0  0  0  0  0  0  0
   -6.7205  -20.1423   21.6426 O   0  0  0  0  0  0  0  0  0  0  0  0
   -7.0266  -19.4078   22.8307 C   0  0  0  0  0  0  0  0  0  0  0  0
   -5.0108  -11.8536   24.7109 H   0  0  0  0  0  0  0  0  0  0  0  0
   -3.5389  -11.6561   23.9769 H   0  0  0  0  0  0  0  0  0  0  0  0
   -3.6606  -12.4905   27.0736 H   0  0  0  0  0  0  0  0  0  0  0  0
   -2.2828  -13.0058   26.1583 H   0  0  0  0  0  0  0  0  0  0  0  0
   -2.8542  -12.4857   29.5052 H   0  0  0  0  0  0  0  0  0  0  0  0
   -0.9762  -11.3012   31.2130 H   0  0  0  0  0  0  0  0  0  0  0  0
   -0.9439   -8.5152   32.5564 H   0  0  0  0  0  0  0  0  0  0  0  0
    0.1556   -6.4875   31.5026 H   0  0  0  0  0  0  0  0  0  0  0  0
    0.6830   -7.1381   28.9040 H   0  0  0  0  0  0  0  0  0  0  0  0
   -0.7236   -8.9861   28.0559 H   0  0  0  0  0  0  0  0  0  0  0  0
   -6.8526  -14.3712   24.4050 H   0  0  0  0  0  0  0  0  0  0  0  0
   -7.7323  -16.4737   22.7402 H   0  0  0  0  0  0  0  0  0  0  0  0
   -7.6259  -16.3512   24.2745 H   0  0  0  0  0  0  0  0  0  0  0  0
   -5.1475  -17.4567   21.2472 H   0  0  0  0  0  0  0  0  0  0  0  0
   -6.5917  -17.2576   20.4229 H   0  0  0  0  0  0  0  0  0  0  0  0
   -5.1786  -19.6640   20.3296 H   0  0  0  0  0  0  0  0  0  0  0  0
   -6.7767  -19.2714   19.7364 H   0  0  0  0  0  0  0  0  0  0  0  0
   -8.0366  -19.7139   23.1105 H   0  0  0  0  0  0  0  0  0  0  0  0
   -6.4594  -19.7135   23.7040 H   0  0  0  0  0  0  0  0  0  0  0  0
  1  2  2  0
  2  3  1  0
  3  4  1  0
  4  5  1  0
  5  6  2  0
  6  7  1  0
  7  8  2  0
  8  9  1  0
  9 10  1  0
 10 11  2  0
 11 12  1  0
 12 13  2  0
  2 14  1  0
 14 15  1  0
 15 16  1  0
 16 17  1  0
 16 18  1  0
 18 19  1  0
 19 20  1  0
 20 21  1  0
 13  5  1  0
 21 16  1  0
 12  8  1  0
  3 22  1  0
  3 23  1  0
  4 24  1  0
  4 25  1  0
  6 26  1  0
  7 27  1  0
  9 28  1  0
 10 29  1  0
 11 30  1  0
 13 31  1  0
 14 32  1  0
 15 33  1  0
 15 34  1  0
 18 35  1  0
 18 36  1  0
 19 37  1  0
 19 38  1  0
 21 39  1  0
 21 40  1  0
M  END
>  <Energy>  (1149) 
811.25632271044901

>  <compound_id>  (1149) 
35904

>  <target_id>  (1149) 
1

>  <reference_id>  (1149) 
40

>  <inspiration_ids>  (1149) 
[28, 40]

>  <energy_score>  (1149) 
754.7653099412423

>  <distance_score>  (1149) 
8.319682142954184

>  <path>  (1149) 
/opt/xchem-fragalysis-2/maxwin/BulkDock/SCRATCH/511013/C35904-P40/C35904-P40.minimised.mol

>  <scratch_subdir>  (1149) 
/opt/xchem-fragalysis-2/maxwin/BulkDock/SCRATCH/511013/C35904-P40

>  <fragmenstein_runtime>  (1149) 
13.740105152130127

>  <fragmenstein_outcome>  (1149) 
too moved

>  <fragmenstein_mode>  (1149) 
expansion

>  <fragmenstein_error>  (1149) 


$$$$
C35905-P28
     RDKit          3D

 45 47  0  0  0  0  0  0  0  0999 V2000
   -9.4930  -21.3708   12.3119 C   0  0  0  0  0  0  0  0  0  0  0  0
  -10.4713  -21.1906   13.5593 C   0  0  0  0  0  0  0  0  0  0  0  0
  -10.0607  -20.8301   14.9676 O   0  0  0  0  0  0  0  0  0  0  0  0
   -9.3943  -21.7429   16.0497 C   0  0  0  0  0  0  0  0  0  0  0  0
   -8.5667  -20.6496   17.7176 C   0  0  0  0  0  0  0  0  0  0  0  0
   -7.2135  -19.3744   18.5606 N   0  0  0  0  0  0  0  0  0  0  0  0
   -6.9434  -18.8669   20.3078 C   0  0  0  0  0  0  0  0  0  0  0  0
   -7.5482  -19.3400   21.2261 O   0  0  0  0  0  0  0  0  0  0  0  0
   -5.5747  -17.6461   20.9907 C   0  0  0  0  0  0  0  0  0  0  0  0
   -4.6260  -16.5476   21.9620 C   0  0  0  0  0  0  0  0  0  0  0  0
   -4.2385  -15.2508   23.5203 C   0  0  0  0  0  0  0  0  0  0  0  0
   -2.8779  -15.2829   24.6515 C   0  0  0  0  0  0  0  0  0  0  0  0
   -2.2034  -14.1919   25.6660 C   0  0  0  0  0  0  0  0  0  0  0  0
   -2.8606  -12.8245   25.6933 C   0  0  0  0  0  0  0  0  0  0  0  0
   -2.8092  -11.7036   26.3514 N   0  0  0  0  0  0  0  0  0  0  0  0
   -2.8551  -10.7345   25.3043 C   0  0  0  0  0  0  0  0  0  0  0  0
   -3.7997  -11.0654   24.4419 C   0  0  0  0  0  0  0  0  0  0  0  0
   -4.1025  -12.3872   24.6713 C   0  0  0  0  0  0  0  0  0  0  0  0
   -4.9625  -13.7272   23.7776 C   0  0  0  0  0  0  0  0  0  0  0  0
  -10.1090  -23.3078   15.5418 C   0  0  0  0  0  0  0  0  0  0  0  0
   -9.7425  -24.1396   14.3790 C   0  0  0  0  0  0  0  0  0  0  0  0
   -8.9784  -23.1664   13.8061 O   0  0  0  0  0  0  0  0  0  0  0  0
   -8.3633  -22.4018   14.9092 C   0  0  0  0  0  0  0  0  0  0  0  0
   -9.9638  -22.0300   11.5773 H   0  0  0  0  0  0  0  0  0  0  0  0
   -9.2472  -20.3979   11.8730 H   0  0  0  0  0  0  0  0  0  0  0  0
   -8.4823  -21.7551   12.4513 H   0  0  0  0  0  0  0  0  0  0  0  0
  -11.0370  -20.2939   13.3596 H   0  0  0  0  0  0  0  0  0  0  0  0
  -11.2198  -21.9767   13.4711 H   0  0  0  0  0  0  0  0  0  0  0  0
   -9.2780  -19.8532   17.5739 H   0  0  0  0  0  0  0  0  0  0  0  0
   -8.9561  -21.0663   18.6216 H   0  0  0  0  0  0  0  0  0  0  0  0
   -6.6688  -18.7946   17.9685 H   0  0  0  0  0  0  0  0  0  0  0  0
   -4.9681  -17.9342   20.1058 H   0  0  0  0  0  0  0  0  0  0  0  0
   -3.7099  -16.4838   21.3419 H   0  0  0  0  0  0  0  0  0  0  0  0
   -2.5387  -16.2358   25.0662 H   0  0  0  0  0  0  0  0  0  0  0  0
   -1.4406  -14.4780   26.3781 H   0  0  0  0  0  0  0  0  0  0  0  0
   -2.2487  -11.5348   27.1561 H   0  0  0  0  0  0  0  0  0  0  0  0
   -2.3910   -9.7867   25.4101 H   0  0  0  0  0  0  0  0  0  0  0  0
   -3.8467  -10.4549   23.5558 H   0  0  0  0  0  0  0  0  0  0  0  0
   -5.8983  -13.3433   23.3917 H   0  0  0  0  0  0  0  0  0  0  0  0
  -10.7298  -23.9964   16.0609 H   0  0  0  0  0  0  0  0  0  0  0  0
  -10.8698  -22.9005   14.9136 H   0  0  0  0  0  0  0  0  0  0  0  0
   -9.2659  -25.0824   14.6360 H   0  0  0  0  0  0  0  0  0  0  0  0
  -10.5755  -24.4056   13.7139 H   0  0  0  0  0  0  0  0  0  0  0  0
   -7.7699  -23.0468   15.5000 H   0  0  0  0  0  0  0  0  0  0  0  0
   -7.7281  -21.7489   14.3282 H   0  0  0  0  0  0  0  0  0  0  0  0
  1  2  1  0
  2  3  1  0
  3  4  1  0
  4  5  1  0
  5  6  1  0
  6  7  1  0
  7  8  2  0
  7  9  1  0
  9 10  2  3
 10 11  1  0
 11 12  2  0
 12 13  1  0
 13 14  2  0
 14 15  1  0
 15 16  1  0
 16 17  2  0
 17 18  1  0
 18 19  2  0
  4 20  1  0
 20 21  1  0
 21 22  1  0
 22 23  1  0
 23  4  1  0
 19 11  1  0
 18 14  1  0
  1 24  1  0
  1 25  1  0
  1 26  1  0
  2 27  1  0
  2 28  1  0
  5 29  1  0
  5 30  1  0
  6 31  1  0
  9 32  1  0
 10 33  1  0
 12 34  1  0
 13 35  1  0
 15 36  1  0
 16 37  1  0
 17 38  1  0
 19 39  1  0
 20 40  1  0
 20 41  1  0
 21 42  1  0
 21 43  1  0
 23 44  1  0
 23 45  1  0
M  END
>  <Energy>  (1150) 
1027.5841494394724

>  <compound_id>  (1150) 
35905

>  <target_id>  (1150) 
1

>  <reference_id>  (1150) 
28

>  <inspiration_ids>  (1150) 
[28, 40]

>  <energy_score>  (1150) 
919.8552310398366

>  <distance_score>  (1150) 
9.786208724449523

>  <path>  (1150) 
/opt/xchem-fragalysis-2/maxwin/BulkDock/SCRATCH/511013/C35905-P28/C35905-P28.minimised.mol

>  <scratch_subdir>  (1150) 
/opt/xchem-fragalysis-2/maxwin/BulkDock/SCRATCH/511013/C35905-P28

>  <fragmenstein_runtime>  (1150) 
19.034910917282104

>  <fragmenstein_outcome>  (1150) 
too moved

>  <fragmenstein_mode>  (1150) 
expansion

>  <fragmenstein_error>  (1150) 


$$$$
C35905-P40
     RDKit          3D

 45 47  0  0  0  0  0  0  0  0999 V2000
    0.7764  -20.2429   16.6560 C   0  0  0  0  0  0  0  0  0  0  0  0
    0.0897  -19.0937   15.9323 C   0  0  0  0  0  0  0  0  0  0  0  0
   -1.0377  -18.5939   16.6724 O   0  0  0  0  0  0  0  0  0  0  0  0
   -2.4566  -18.5842   16.1466 C   0  0  0  0  0  0  0  0  0  0  0  0
   -3.5392  -17.1318   16.9153 C   0  0  0  0  0  0  0  0  0  0  0  0
   -3.0860  -16.5995   18.2948 N   0  0  0  0  0  0  0  0  0  0  0  0
   -2.1962  -15.4053   18.6852 C   0  0  0  0  0  0  0  0  0  0  0  0
   -1.7120  -14.5321   18.0041 O   0  0  0  0  0  0  0  0  0  0  0  0
   -1.9005  -15.6427   20.3522 C   0  0  0  0  0  0  0  0  0  0  0  0
   -0.7287  -15.7972   21.3389 C   0  0  0  0  0  0  0  0  0  0  0  0
    0.8266  -15.6535   21.7520 C   0  0  0  0  0  0  0  0  0  0  0  0
    1.9257  -15.9530   20.9601 C   0  0  0  0  0  0  0  0  0  0  0  0
    3.2261  -15.5097   21.3035 C   0  0  0  0  0  0  0  0  0  0  0  0
    3.4235  -14.8056   22.4986 C   0  0  0  0  0  0  0  0  0  0  0  0
    4.5436  -14.1966   23.0189 N   0  0  0  0  0  0  0  0  0  0  0  0
    4.2733  -13.7069   24.2653 C   0  0  0  0  0  0  0  0  0  0  0  0
    2.9482  -13.9630   24.5290 C   0  0  0  0  0  0  0  0  0  0  0  0
    2.3907  -14.5919   23.3961 C   0  0  0  0  0  0  0  0  0  0  0  0
    1.0982  -14.9948   23.0173 C   0  0  0  0  0  0  0  0  0  0  0  0
   -2.6583  -20.0992   16.3174 C   0  0  0  0  0  0  0  0  0  0  0  0
   -2.3050  -20.7276   14.9624 C   0  0  0  0  0  0  0  0  0  0  0  0
   -2.5075  -19.7417   13.9598 O   0  0  0  0  0  0  0  0  0  0  0  0
   -2.5043  -18.4471   14.5774 C   0  0  0  0  0  0  0  0  0  0  0  0
    1.6904  -20.5317   16.1279 H   0  0  0  0  0  0  0  0  0  0  0  0
    0.1402  -21.1267   16.7335 H   0  0  0  0  0  0  0  0  0  0  0  0
    1.0457  -19.9520   17.6754 H   0  0  0  0  0  0  0  0  0  0  0  0
    0.8402  -18.2970   15.8927 H   0  0  0  0  0  0  0  0  0  0  0  0
   -0.1259  -19.3356   14.8930 H   0  0  0  0  0  0  0  0  0  0  0  0
   -4.2760  -17.8109   17.3109 H   0  0  0  0  0  0  0  0  0  0  0  0
   -3.8989  -16.3940   16.1969 H   0  0  0  0  0  0  0  0  0  0  0  0
   -3.3796  -17.0827   19.1268 H   0  0  0  0  0  0  0  0  0  0  0  0
   -2.8094  -16.1494   20.6596 H   0  0  0  0  0  0  0  0  0  0  0  0
   -0.9753  -15.0504   22.1221 H   0  0  0  0  0  0  0  0  0  0  0  0
    1.7966  -16.4366   19.9958 H   0  0  0  0  0  0  0  0  0  0  0  0
    4.0494  -15.6815   20.6154 H   0  0  0  0  0  0  0  0  0  0  0  0
    5.4392  -14.1495   22.5542 H   0  0  0  0  0  0  0  0  0  0  0  0
    5.0330  -13.2113   24.8538 H   0  0  0  0  0  0  0  0  0  0  0  0
    2.4305  -13.7028   25.4342 H   0  0  0  0  0  0  0  0  0  0  0  0
    0.2884  -14.7039   23.6861 H   0  0  0  0  0  0  0  0  0  0  0  0
   -3.6054  -20.3731   16.7802 H   0  0  0  0  0  0  0  0  0  0  0  0
   -1.9416  -20.6151   16.9405 H   0  0  0  0  0  0  0  0  0  0  0  0
   -2.8616  -21.6345   14.7665 H   0  0  0  0  0  0  0  0  0  0  0  0
   -1.2652  -21.0578   14.9079 H   0  0  0  0  0  0  0  0  0  0  0  0
   -1.6389  -17.9059   14.1816 H   0  0  0  0  0  0  0  0  0  0  0  0
   -3.3825  -17.9199   14.2091 H   0  0  0  0  0  0  0  0  0  0  0  0
  1  2  1  0
  2  3  1  0
  3  4  1  0
  4  5  1  0
  5  6  1  0
  6  7  1  0
  7  8  2  0
  7  9  1  0
  9 10  2  3
 10 11  1  0
 11 12  2  0
 12 13  1  0
 13 14  2  0
 14 15  1  0
 15 16  1  0
 16 17  2  0
 17 18  1  0
 18 19  2  0
  4 20  1  0
 20 21  1  0
 21 22  1  0
 22 23  1  0
 23  4  1  0
 19 11  1  0
 18 14  1  0
  1 24  1  0
  1 25  1  0
  1 26  1  0
  2 27  1  0
  2 28  1  0
  5 29  1  0
  5 30  1  0
  6 31  1  0
  9 32  1  0
 10 33  1  0
 12 34  1  0
 13 35  1  0
 15 36  1  0
 16 37  1  0
 17 38  1  0
 19 39  1  0
 20 40  1  0
 20 41  1  0
 21 42  1  0
 21 43  1  0
 23 44  1  0
 23 45  1  0
M  END
>  <Energy>  (1151) 
241.45621607547881

>  <compound_id>  (1151) 
35905

>  <target_id>  (1151) 
1

>  <reference_id>  (1151) 
40

>  <inspiration_ids>  (1151) 
[28, 40]

>  <energy_score>  (1151) 
133.72729767583974

>  <distance_score>  (1151) 
11.508200955478719

>  <path>  (1151) 
/opt/xchem-fragalysis-2/maxwin/BulkDock/SCRATCH/511013/C35905-P40/C35905-P40.minimised.mol

>  <scratch_subdir>  (1151) 
/opt/xchem-fragalysis-2/maxwin/BulkDock/SCRATCH/511013/C35905-P40

>  <fragmenstein_runtime>  (1151) 
21.444167852401733

>  <fragmenstein_outcome>  (1151) 
too moved

>  <fragmenstein_mode>  (1151) 
expansion

>  <fragmenstein_error>  (1151) 


$$$$
C35906-P28
     RDKit          3D

 45 47  0  0  0  0  0  0  0  0999 V2000
   -9.8888  -12.9173   13.5144 C   0  0  0  0  0  0  0  0  0  0  0  0
   -9.5694  -11.4462   13.8451 C   0  0  0  0  0  0  0  0  0  0  0  0
   -9.2212  -11.3182   15.2403 O   0  0  0  0  0  0  0  0  0  0  0  0
   -8.2582  -10.4053   15.5460 C   0  0  0  0  0  0  0  0  0  0  0  0
   -8.0498   -9.3921   14.8826 O   0  0  0  0  0  0  0  0  0  0  0  0
   -7.4454  -10.7399   16.8474 C   0  0  0  0  0  0  0  0  0  0  0  0
   -6.2499  -12.1049   17.0761 C   0  0  0  0  0  0  0  0  0  0  0  0
   -6.1800  -12.1100   18.5882 N   0  0  0  0  0  0  0  0  0  0  0  0
   -7.1786  -12.4872   19.5948 C   0  0  0  0  0  0  0  0  0  0  0  0
   -8.2669  -12.9843   19.4597 O   0  0  0  0  0  0  0  0  0  0  0  0
   -6.3641  -11.8124   21.1599 N   0  0  0  0  0  0  0  0  0  0  0  0
   -7.0300  -11.5732   22.9088 C   0  0  0  0  0  0  0  0  0  0  0  0
   -8.0562  -10.3484   23.5376 C   0  0  0  0  0  0  0  0  0  0  0  0
   -8.5503   -9.8623   24.8536 C   0  0  0  0  0  0  0  0  0  0  0  0
   -7.5900  -10.0793   25.8046 C   0  0  0  0  0  0  0  0  0  0  0  0
   -7.2988   -9.3061   26.9307 N   0  0  0  0  0  0  0  0  0  0  0  0
   -6.5376   -8.2906   26.3665 C   0  0  0  0  0  0  0  0  0  0  0  0
   -5.9231   -8.9231   25.2987 C   0  0  0  0  0  0  0  0  0  0  0  0
   -6.3308  -10.3461   25.2643 C   0  0  0  0  0  0  0  0  0  0  0  0
   -6.1522  -11.2938   24.0816 C   0  0  0  0  0  0  0  0  0  0  0  0
   -5.0400  -11.5903   16.3199 C   0  0  0  0  0  0  0  0  0  0  0  0
   -5.6003  -11.4254   14.9100 C   0  0  0  0  0  0  0  0  0  0  0  0
   -6.7444  -12.3430   14.8113 O   0  0  0  0  0  0  0  0  0  0  0  0
   -7.0133  -12.9211   16.1315 C   0  0  0  0  0  0  0  0  0  0  0  0
   -9.1116  -13.5887   13.8882 H   0  0  0  0  0  0  0  0  0  0  0  0
   -9.9917  -13.0495   12.4335 H   0  0  0  0  0  0  0  0  0  0  0  0
  -10.8372  -13.1925   13.9783 H   0  0  0  0  0  0  0  0  0  0  0  0
  -10.4456  -10.8202   13.6495 H   0  0  0  0  0  0  0  0  0  0  0  0
   -8.7429  -11.1123   13.2073 H   0  0  0  0  0  0  0  0  0  0  0  0
   -8.2182  -10.8385   17.6232 H   0  0  0  0  0  0  0  0  0  0  0  0
   -6.8911   -9.8068   17.0022 H   0  0  0  0  0  0  0  0  0  0  0  0
   -5.3540  -11.8051   19.0517 H   0  0  0  0  0  0  0  0  0  0  0  0
   -5.4079  -11.5365   20.9785 H   0  0  0  0  0  0  0  0  0  0  0  0
   -8.2301   -9.3483   23.0528 H   0  0  0  0  0  0  0  0  0  0  0  0
   -9.2821   -9.0672   24.9455 H   0  0  0  0  0  0  0  0  0  0  0  0
   -6.9395   -9.7440   27.7715 H   0  0  0  0  0  0  0  0  0  0  0  0
   -6.5656   -7.2982   26.7838 H   0  0  0  0  0  0  0  0  0  0  0  0
   -5.3887   -8.4637   24.4942 H   0  0  0  0  0  0  0  0  0  0  0  0
   -5.0996  -11.4760   24.1765 H   0  0  0  0  0  0  0  0  0  0  0  0
   -4.6454  -10.6353   16.6756 H   0  0  0  0  0  0  0  0  0  0  0  0
   -4.2099  -12.3012   16.3624 H   0  0  0  0  0  0  0  0  0  0  0  0
   -4.8654  -11.6218   14.1194 H   0  0  0  0  0  0  0  0  0  0  0  0
   -5.9224  -10.4016   14.7163 H   0  0  0  0  0  0  0  0  0  0  0  0
   -8.0372  -12.7611   16.3146 H   0  0  0  0  0  0  0  0  0  0  0  0
   -6.9105  -13.9874   16.2047 H   0  0  0  0  0  0  0  0  0  0  0  0
  1  2  1  0
  2  3  1  0
  3  4  1  0
  4  5  2  0
  4  6  1  0
  6  7  1  0
  7  8  1  0
  8  9  1  0
  9 10  2  0
  9 11  1  0
 11 12  1  0
 12 13  2  0
 13 14  1  0
 14 15  2  0
 15 16  1  0
 16 17  1  0
 17 18  2  0
 18 19  1  0
 19 20  2  0
  7 21  1  0
 21 22  1  0
 22 23  1  0
 23 24  1  0
 24  7  1  0
 20 12  1  0
 19 15  1  0
  1 25  1  0
  1 26  1  0
  1 27  1  0
  2 28  1  0
  2 29  1  0
  6 30  1  0
  6 31  1  0
  8 32  1  0
 11 33  1  0
 13 34  1  0
 14 35  1  0
 16 36  1  0
 17 37  1  0
 18 38  1  0
 20 39  1  0
 21 40  1  0
 21 41  1  0
 22 42  1  0
 22 43  1  0
 24 44  1  0
 24 45  1  0
M  END
>  <Energy>  (1152) 
378.38539983105852

>  <compound_id>  (1152) 
35906

>  <target_id>  (1152) 
1

>  <reference_id>  (1152) 
28

>  <inspiration_ids>  (1152) 
[28, 40]

>  <energy_score>  (1152) 
361.2175648253525

>  <distance_score>  (1152) 
13.357449588970889

>  <path>  (1152) 
/opt/xchem-fragalysis-2/maxwin/BulkDock/SCRATCH/511013/C35906-P28/C35906-P28.minimised.mol

>  <scratch_subdir>  (1152) 
/opt/xchem-fragalysis-2/maxwin/BulkDock/SCRATCH/511013/C35906-P28

>  <fragmenstein_runtime>  (1152) 
15.74197006225586

>  <fragmenstein_outcome>  (1152) 
too moved

>  <fragmenstein_mode>  (1152) 
expansion

>  <fragmenstein_error>  (1152) 


$$$$
C35906-P40
     RDKit          3D

 45 47  0  0  0  0  0  0  0  0999 V2000
   -1.0492  -20.9826   13.5937 C   0  0  0  0  0  0  0  0  0  0  0  0
    0.1731  -20.0841   13.7959 C   0  0  0  0  0  0  0  0  0  0  0  0
   -0.0994  -18.7172   14.1907 O   0  0  0  0  0  0  0  0  0  0  0  0
   -0.1944  -18.4839   15.5273 C   0  0  0  0  0  0  0  0  0  0  0  0
   -0.4000  -19.3483   16.3730 O   0  0  0  0  0  0  0  0  0  0  0  0
    0.0933  -17.0308   15.8932 C   0  0  0  0  0  0  0  0  0  0  0  0
   -1.0489  -15.9846   15.8662 C   0  0  0  0  0  0  0  0  0  0  0  0
   -0.8652  -15.0925   17.0727 N   0  0  0  0  0  0  0  0  0  0  0  0
   -0.1630  -13.7598   17.2176 C   0  0  0  0  0  0  0  0  0  0  0  0
    0.3345  -13.0737   16.4020 O   0  0  0  0  0  0  0  0  0  0  0  0
   -0.1976  -13.6128   18.7346 N   0  0  0  0  0  0  0  0  0  0  0  0
    0.4328  -12.6699   19.5857 C   0  0  0  0  0  0  0  0  0  0  0  0
    0.8288  -11.4126   19.1227 C   0  0  0  0  0  0  0  0  0  0  0  0
    1.5663  -10.5132   19.9166 C   0  0  0  0  0  0  0  0  0  0  0  0
    1.9737  -10.9532   21.1764 C   0  0  0  0  0  0  0  0  0  0  0  0
    2.8075  -10.3666   22.1002 N   0  0  0  0  0  0  0  0  0  0  0  0
    2.9979  -11.2054   23.1610 C   0  0  0  0  0  0  0  0  0  0  0  0
    2.1819  -12.3000   22.9828 C   0  0  0  0  0  0  0  0  0  0  0  0
    1.5644  -12.1779   21.7045 C   0  0  0  0  0  0  0  0  0  0  0  0
    0.7348  -13.0195   20.9165 C   0  0  0  0  0  0  0  0  0  0  0  0
   -2.4611  -16.5670   15.8655 C   0  0  0  0  0  0  0  0  0  0  0  0
   -3.2779  -15.5264   15.1367 C   0  0  0  0  0  0  0  0  0  0  0  0
   -2.4393  -15.0690   14.0829 O   0  0  0  0  0  0  0  0  0  0  0  0
   -1.0688  -15.2434   14.5042 C   0  0  0  0  0  0  0  0  0  0  0  0
   -0.7408  -21.9469   13.1780 H   0  0  0  0  0  0  0  0  0  0  0  0
   -1.7579  -20.5205   12.9024 H   0  0  0  0  0  0  0  0  0  0  0  0
   -1.5413  -21.1764   14.5482 H   0  0  0  0  0  0  0  0  0  0  0  0
    0.8672  -20.5450   14.5095 H   0  0  0  0  0  0  0  0  0  0  0  0
    0.7128  -20.0154   12.8448 H   0  0  0  0  0  0  0  0  0  0  0  0
    0.5098  -17.0861   16.9096 H   0  0  0  0  0  0  0  0  0  0  0  0
    0.9460  -16.6899   15.2907 H   0  0  0  0  0  0  0  0  0  0  0  0
   -1.2460  -15.3667   17.9607 H   0  0  0  0  0  0  0  0  0  0  0  0
   -0.6360  -14.4183   19.1371 H   0  0  0  0  0  0  0  0  0  0  0  0
    0.5823  -11.1140   18.1048 H   0  0  0  0  0  0  0  0  0  0  0  0
    1.8762   -9.5543   19.5168 H   0  0  0  0  0  0  0  0  0  0  0  0
    3.2307   -9.4579   22.0047 H   0  0  0  0  0  0  0  0  0  0  0  0
    3.6572  -10.9279   23.9686 H   0  0  0  0  0  0  0  0  0  0  0  0
    2.0812  -13.1222   23.6772 H   0  0  0  0  0  0  0  0  0  0  0  0
    0.4428  -13.9845   21.3168 H   0  0  0  0  0  0  0  0  0  0  0  0
   -2.8695  -16.7930   16.8462 H   0  0  0  0  0  0  0  0  0  0  0  0
   -2.4806  -17.4728   15.2681 H   0  0  0  0  0  0  0  0  0  0  0  0
   -4.2080  -15.9096   14.7154 H   0  0  0  0  0  0  0  0  0  0  0  0
   -3.5118  -14.6669   15.7709 H   0  0  0  0  0  0  0  0  0  0  0  0
   -0.5884  -14.2645   14.5189 H   0  0  0  0  0  0  0  0  0  0  0  0
   -0.5888  -15.8342   13.7163 H   0  0  0  0  0  0  0  0  0  0  0  0
  1  2  1  0
  2  3  1  0
  3  4  1  0
  4  5  2  0
  4  6  1  0
  6  7  1  0
  7  8  1  0
  8  9  1  0
  9 10  2  0
  9 11  1  0
 11 12  1  0
 12 13  2  0
 13 14  1  0
 14 15  2  0
 15 16  1  0
 16 17  1  0
 17 18  2  0
 18 19  1  0
 19 20  2  0
  7 21  1  0
 21 22  1  0
 22 23  1  0
 23 24  1  0
 24  7  1  0
 20 12  1  0
 19 15  1  0
  1 25  1  0
  1 26  1  0
  1 27  1  0
  2 28  1  0
  2 29  1  0
  6 30  1  0
  6 31  1  0
  8 32  1  0
 11 33  1  0
 13 34  1  0
 14 35  1  0
 16 36  1  0
 17 37  1  0
 18 38  1  0
 20 39  1  0
 21 40  1  0
 21 41  1  0
 22 42  1  0
 22 43  1  0
 24 44  1  0
 24 45  1  0
M  END
>  <Energy>  (1153) 
-12.19243122858618

>  <compound_id>  (1153) 
35906

>  <target_id>  (1153) 
1

>  <reference_id>  (1153) 
40

>  <inspiration_ids>  (1153) 
[28, 40]

>  <energy_score>  (1153) 
-29.360266234287337

>  <distance_score>  (1153) 
12.436401243408007

>  <path>  (1153) 
/opt/xchem-fragalysis-2/maxwin/BulkDock/SCRATCH/511013/C35906-P40/C35906-P40.minimised.mol

>  <scratch_subdir>  (1153) 
/opt/xchem-fragalysis-2/maxwin/BulkDock/SCRATCH/511013/C35906-P40

>  <fragmenstein_runtime>  (1153) 
20.474623441696167

>  <fragmenstein_outcome>  (1153) 
too moved

>  <fragmenstein_mode>  (1153) 
expansion

>  <fragmenstein_error>  (1153) 


$$$$
C35907-P28
     RDKit          3D

 40 42  0  0  0  0  0  0  0  0999 V2000
   -8.5931   -9.7147   17.9526 C   0  0  0  0  0  0  0  0  0  0  0  0
   -8.0020  -10.5594   16.8228 C   0  0  0  0  0  0  0  0  0  0  0  0
   -7.8821  -12.1054   17.0151 N   0  0  0  0  0  0  0  0  0  0  0  0
   -8.5909  -13.0235   17.9498 C   0  0  0  0  0  0  0  0  0  0  0  0
   -9.3659  -12.7805   18.8494 O   0  0  0  0  0  0  0  0  0  0  0  0
   -8.4209  -14.6949   17.6678 C   0  0  0  0  0  0  0  0  0  0  0  0
   -7.7453  -14.8682   16.4858 F   0  0  0  0  0  0  0  0  0  0  0  0
   -9.7534  -14.7869   17.3237 F   0  0  0  0  0  0  0  0  0  0  0  0
   -8.2845  -16.2574   18.6738 C   0  0  0  0  0  0  0  0  0  0  0  0
   -7.8707  -17.3892   17.7122 C   0  0  0  0  0  0  0  0  0  0  0  0
   -6.7546  -18.4235   18.4960 C   0  0  0  0  0  0  0  0  0  0  0  0
   -5.9988  -17.7388   19.4278 O   0  0  0  0  0  0  0  0  0  0  0  0
   -6.9902  -17.0229   20.0289 C   0  0  0  0  0  0  0  0  0  0  0  0
   -6.3893  -11.6422   17.6362 C   0  0  0  0  0  0  0  0  0  0  0  0
   -5.3812  -11.1055   16.8023 C   0  0  0  0  0  0  0  0  0  0  0  0
   -4.3910  -10.1795   17.2493 C   0  0  0  0  0  0  0  0  0  0  0  0
   -4.4347   -9.7593   18.5809 C   0  0  0  0  0  0  0  0  0  0  0  0
   -3.7599   -8.7584   19.2511 N   0  0  0  0  0  0  0  0  0  0  0  0
   -4.1495   -8.7292   20.5642 C   0  0  0  0  0  0  0  0  0  0  0  0
   -5.0672   -9.7428   20.7448 C   0  0  0  0  0  0  0  0  0  0  0  0
   -5.2761  -10.3902   19.4882 C   0  0  0  0  0  0  0  0  0  0  0  0
   -6.1449  -11.4171   18.9951 C   0  0  0  0  0  0  0  0  0  0  0  0
   -7.8627   -9.4465   18.7155 H   0  0  0  0  0  0  0  0  0  0  0  0
   -8.9669   -8.7705   17.5399 H   0  0  0  0  0  0  0  0  0  0  0  0
   -9.4397  -10.2151   18.4297 H   0  0  0  0  0  0  0  0  0  0  0  0
   -7.2679  -10.0411   16.1940 H   0  0  0  0  0  0  0  0  0  0  0  0
   -8.8409  -10.5747   16.1048 H   0  0  0  0  0  0  0  0  0  0  0  0
   -9.1163  -15.9223   19.3268 H   0  0  0  0  0  0  0  0  0  0  0  0
   -8.7521  -17.8593   17.3233 H   0  0  0  0  0  0  0  0  0  0  0  0
   -7.5008  -16.8453   16.8651 H   0  0  0  0  0  0  0  0  0  0  0  0
   -7.2099  -19.2882   18.9582 H   0  0  0  0  0  0  0  0  0  0  0  0
   -5.8518  -18.8025   18.0570 H   0  0  0  0  0  0  0  0  0  0  0  0
   -7.2517  -17.8003   20.8137 H   0  0  0  0  0  0  0  0  0  0  0  0
   -6.8072  -16.3633   20.8141 H   0  0  0  0  0  0  0  0  0  0  0  0
   -5.4315  -11.3037   15.7313 H   0  0  0  0  0  0  0  0  0  0  0  0
   -3.7026   -9.7374   16.5355 H   0  0  0  0  0  0  0  0  0  0  0  0
   -3.1000   -8.1273   18.8176 H   0  0  0  0  0  0  0  0  0  0  0  0
   -3.7484   -8.0104   21.2621 H   0  0  0  0  0  0  0  0  0  0  0  0
   -5.5639   -9.9769   21.6772 H   0  0  0  0  0  0  0  0  0  0  0  0
   -6.7259  -11.9661   19.6868 H   0  0  0  0  0  0  0  0  0  0  0  0
  1  2  1  0
  2  3  1  0
  3  4  1  0
  4  5  2  0
  4  6  1  0
  6  7  1  0
  6  8  1  0
  6  9  1  0
  9 10  1  0
 10 11  1  0
 11 12  1  0
 12 13  1  0
  3 14  1  0
 14 15  2  0
 15 16  1  0
 16 17  2  0
 17 18  1  0
 18 19  1  0
 19 20  2  0
 20 21  1  0
 21 22  2  0
 13  9  1  0
 22 14  1  0
 21 17  1  0
  1 23  1  0
  1 24  1  0
  1 25  1  0
  2 26  1  0
  2 27  1  0
  9 28  1  0
 10 29  1  0
 10 30  1  0
 11 31  1  0
 11 32  1  0
 13 33  1  0
 13 34  1  0
 15 35  1  0
 16 36  1  0
 18 37  1  0
 19 38  1  0
 20 39  1  0
 22 40  1  0
M  END
>  <Energy>  (1154) 
373.41659429859976

>  <compound_id>  (1154) 
35907

>  <target_id>  (1154) 
1

>  <reference_id>  (1154) 
28

>  <inspiration_ids>  (1154) 
[28, 40]

>  <energy_score>  (1154) 
275.0848537073525

>  <distance_score>  (1154) 
12.98176797689216

>  <path>  (1154) 
/opt/xchem-fragalysis-2/maxwin/BulkDock/SCRATCH/511013/C35907-P28/C35907-P28.minimised.mol

>  <scratch_subdir>  (1154) 
/opt/xchem-fragalysis-2/maxwin/BulkDock/SCRATCH/511013/C35907-P28

>  <fragmenstein_runtime>  (1154) 
22.36491060256958

>  <fragmenstein_outcome>  (1154) 
too moved

>  <fragmenstein_mode>  (1154) 
expansion

>  <fragmenstein_error>  (1154) 


$$$$
C35907-P40
     RDKit          3D

 40 42  0  0  0  0  0  0  0  0999 V2000
   -2.9146  -14.1503   29.0885 C   0  0  0  0  0  0  0  0  0  0  0  0
   -2.8363  -12.8597   28.1536 C   0  0  0  0  0  0  0  0  0  0  0  0
   -3.0893  -13.1482   26.6309 N   0  0  0  0  0  0  0  0  0  0  0  0
   -2.4015  -14.5285   25.4947 C   0  0  0  0  0  0  0  0  0  0  0  0
   -1.5332  -15.3499   25.8119 O   0  0  0  0  0  0  0  0  0  0  0  0
   -3.3725  -14.8935   23.5837 C   0  0  0  0  0  0  0  0  0  0  0  0
   -4.2973  -15.6016   24.3655 F   0  0  0  0  0  0  0  0  0  0  0  0
   -4.3477  -13.8468   23.5286 F   0  0  0  0  0  0  0  0  0  0  0  0
   -4.2442  -16.1491   22.0590 C   0  0  0  0  0  0  0  0  0  0  0  0
   -3.6989  -16.5728   20.5955 C   0  0  0  0  0  0  0  0  0  0  0  0
   -4.7276  -17.8027   19.8181 C   0  0  0  0  0  0  0  0  0  0  0  0
   -5.9562  -17.8507   20.4439 O   0  0  0  0  0  0  0  0  0  0  0  0
   -5.6792  -17.5346   21.7827 C   0  0  0  0  0  0  0  0  0  0  0  0
   -2.3205  -11.3808   26.7257 C   0  0  0  0  0  0  0  0  0  0  0  0
   -2.5239   -9.8310   25.8446 C   0  0  0  0  0  0  0  0  0  0  0  0
   -2.6368   -7.9911   26.6868 C   0  0  0  0  0  0  0  0  0  0  0  0
   -1.5266   -7.7667   28.1802 C   0  0  0  0  0  0  0  0  0  0  0  0
   -1.5573   -7.0325   29.3508 N   0  0  0  0  0  0  0  0  0  0  0  0
   -0.4410   -7.2524   30.1161 C   0  0  0  0  0  0  0  0  0  0  0  0
   -0.4062   -8.6253   30.0910 C   0  0  0  0  0  0  0  0  0  0  0  0
   -0.7722   -9.0964   28.7964 C   0  0  0  0  0  0  0  0  0  0  0  0
   -1.4073  -10.6640   28.1722 C   0  0  0  0  0  0  0  0  0  0  0  0
   -2.1152  -14.8582   28.9017 H   0  0  0  0  0  0  0  0  0  0  0  0
   -3.8004  -14.7841   29.1364 H   0  0  0  0  0  0  0  0  0  0  0  0
   -2.9828  -13.7963   30.1117 H   0  0  0  0  0  0  0  0  0  0  0  0
   -3.9409  -12.7029   28.2060 H   0  0  0  0  0  0  0  0  0  0  0  0
   -2.9805  -11.9981   28.7838 H   0  0  0  0  0  0  0  0  0  0  0  0
   -3.7769  -16.9689   22.3311 H   0  0  0  0  0  0  0  0  0  0  0  0
   -3.3604  -15.8339   19.8822 H   0  0  0  0  0  0  0  0  0  0  0  0
   -2.7124  -16.9388   20.8245 H   0  0  0  0  0  0  0  0  0  0  0  0
   -4.4196  -18.8425   19.9086 H   0  0  0  0  0  0  0  0  0  0  0  0
   -4.8474  -17.6065   18.7444 H   0  0  0  0  0  0  0  0  0  0  0  0
   -5.6206  -18.3485   22.4521 H   0  0  0  0  0  0  0  0  0  0  0  0
   -6.7447  -17.4407   22.1229 H   0  0  0  0  0  0  0  0  0  0  0  0
   -3.0149   -9.9440   24.8351 H   0  0  0  0  0  0  0  0  0  0  0  0
   -3.6459   -7.5961   26.9189 H   0  0  0  0  0  0  0  0  0  0  0  0
   -2.4425   -6.9658   29.8029 H   0  0  0  0  0  0  0  0  0  0  0  0
   -0.2397   -6.5835   30.9452 H   0  0  0  0  0  0  0  0  0  0  0  0
   -0.3990   -9.1700   31.0153 H   0  0  0  0  0  0  0  0  0  0  0  0
   -1.7575  -10.9858   29.1901 H   0  0  0  0  0  0  0  0  0  0  0  0
  1  2  1  0
  2  3  1  0
  3  4  1  0
  4  5  2  0
  4  6  1  0
  6  7  1  0
  6  8  1  0
  6  9  1  0
  9 10  1  0
 10 11  1  0
 11 12  1  0
 12 13  1  0
  3 14  1  0
 14 15  2  0
 15 16  1  0
 16 17  2  0
 17 18  1  0
 18 19  1  0
 19 20  2  0
 20 21  1  0
 21 22  2  0
 13  9  1  0
 22 14  1  0
 21 17  1  0
  1 23  1  0
  1 24  1  0
  1 25  1  0
  2 26  1  0
  2 27  1  0
  9 28  1  0
 10 29  1  0
 10 30  1  0
 11 31  1  0
 11 32  1  0
 13 33  1  0
 13 34  1  0
 15 35  1  0
 16 36  1  0
 18 37  1  0
 19 38  1  0
 20 39  1  0
 22 40  1  0
M  END
>  <Energy>  (1155) 
1229.3399876298395

>  <compound_id>  (1155) 
35907

>  <target_id>  (1155) 
1

>  <reference_id>  (1155) 
40

>  <inspiration_ids>  (1155) 
[28, 40]

>  <energy_score>  (1155) 
1131.008247038595

>  <distance_score>  (1155) 
8.59263115596752

>  <path>  (1155) 
/opt/xchem-fragalysis-2/maxwin/BulkDock/SCRATCH/511013/C35907-P40/C35907-P40.minimised.mol

>  <scratch_subdir>  (1155) 
/opt/xchem-fragalysis-2/maxwin/BulkDock/SCRATCH/511013/C35907-P40

>  <fragmenstein_runtime>  (1155) 
14.030686855316162

>  <fragmenstein_outcome>  (1155) 
too moved

>  <fragmenstein_mode>  (1155) 
expansion

>  <fragmenstein_error>  (1155) 


$$$$
C35908-P28
     RDKit          3D

 37 39  0  0  0  0  0  0  0  0999 V2000
   -2.4777   -7.1956   26.5584 O   0  0  0  0  0  0  0  0  0  0  0  0
   -3.0553   -7.3166   27.5954 C   0  0  0  0  0  0  0  0  0  0  0  0
   -4.7422   -7.7618   27.7495 N   0  0  0  0  0  0  0  0  0  0  0  0
   -5.7982   -8.1899   26.6650 C   0  0  0  0  0  0  0  0  0  0  0  0
   -6.9258   -7.5457   25.8234 C   0  0  0  0  0  0  0  0  0  0  0  0
   -6.9592   -8.1996   24.3662 C   0  0  0  0  0  0  0  0  0  0  0  0
   -6.4196   -9.6159   24.1749 C   0  0  0  0  0  0  0  0  0  0  0  0
   -6.9308   -9.9560   22.8076 C   0  0  0  0  0  0  0  0  0  0  0  0
   -8.3033   -9.3171   22.8056 C   0  0  0  0  0  0  0  0  0  0  0  0
   -8.2912   -8.2780   23.8082 O   0  0  0  0  0  0  0  0  0  0  0  0
   -1.8893   -6.9631   29.0299 C   0  0  0  0  0  0  0  0  0  0  0  0
   -1.1593   -5.6146   29.1710 C   0  0  0  0  0  0  0  0  0  0  0  0
   -0.2510   -5.1438   30.1363 C   0  0  0  0  0  0  0  0  0  0  0  0
   -0.0369   -6.0504   31.1330 C   0  0  0  0  0  0  0  0  0  0  0  0
    0.6415   -5.8984   32.3157 N   0  0  0  0  0  0  0  0  0  0  0  0
    0.5198   -7.0385   33.0533 C   0  0  0  0  0  0  0  0  0  0  0  0
   -0.1936   -7.9408   32.3004 C   0  0  0  0  0  0  0  0  0  0  0  0
   -0.5089   -7.3544   31.0558 C   0  0  0  0  0  0  0  0  0  0  0  0
   -1.1999   -7.8272   29.8940 C   0  0  0  0  0  0  0  0  0  0  0  0
   -4.9744   -7.8855   28.7627 H   0  0  0  0  0  0  0  0  0  0  0  0
   -6.3678   -8.9900   27.1392 H   0  0  0  0  0  0  0  0  0  0  0  0
   -5.1417   -8.5672   25.9028 H   0  0  0  0  0  0  0  0  0  0  0  0
   -6.8775   -6.4572   25.7370 H   0  0  0  0  0  0  0  0  0  0  0  0
   -7.8917   -7.7370   26.3097 H   0  0  0  0  0  0  0  0  0  0  0  0
   -6.3906   -7.5216   23.7142 H   0  0  0  0  0  0  0  0  0  0  0  0
   -6.8426  -10.2934   24.9245 H   0  0  0  0  0  0  0  0  0  0  0  0
   -5.3315   -9.6930   24.2038 H   0  0  0  0  0  0  0  0  0  0  0  0
   -6.9072  -11.0298   22.6619 H   0  0  0  0  0  0  0  0  0  0  0  0
   -6.3017   -9.4935   22.0379 H   0  0  0  0  0  0  0  0  0  0  0  0
   -8.5493   -8.8716   21.8373 H   0  0  0  0  0  0  0  0  0  0  0  0
   -9.0978  -10.0178   23.0734 H   0  0  0  0  0  0  0  0  0  0  0  0
   -1.4171   -4.8252   28.4512 H   0  0  0  0  0  0  0  0  0  0  0  0
    0.1233   -4.1279   30.1329 H   0  0  0  0  0  0  0  0  0  0  0  0
    1.0682   -5.0369   32.6314 H   0  0  0  0  0  0  0  0  0  0  0  0
    0.9043   -7.0962   34.0629 H   0  0  0  0  0  0  0  0  0  0  0  0
   -0.5280   -8.9062   32.6378 H   0  0  0  0  0  0  0  0  0  0  0  0
   -1.0916   -8.8947   29.7360 H   0  0  0  0  0  0  0  0  0  0  0  0
  1  2  2  0
  2  3  1  0
  3  4  1  0
  4  5  1  0
  5  6  1  0
  6  7  1  0
  7  8  1  0
  8  9  1  0
  9 10  1  0
  2 11  1  0
 11 12  2  0
 12 13  1  0
 13 14  2  0
 14 15  1  0
 15 16  1  0
 16 17  2  0
 17 18  1  0
 18 19  2  0
 10  6  1  0
 19 11  1  0
 18 14  1  0
  3 20  1  0
  4 21  1  0
  4 22  1  0
  5 23  1  0
  5 24  1  0
  6 25  1  0
  7 26  1  0
  7 27  1  0
  8 28  1  0
  8 29  1  0
  9 30  1  0
  9 31  1  0
 12 32  1  0
 13 33  1  0
 15 34  1  0
 16 35  1  0
 17 36  1  0
 19 37  1  0
M  END
>  <Energy>  (1156) 
176.71916806075737

>  <compound_id>  (1156) 
35908

>  <target_id>  (1156) 
1

>  <reference_id>  (1156) 
28

>  <inspiration_ids>  (1156) 
[28, 40]

>  <energy_score>  (1156) 
138.1958679446093

>  <distance_score>  (1156) 
11.224771196418052

>  <path>  (1156) 
/opt/xchem-fragalysis-2/maxwin/BulkDock/SCRATCH/511013/C35908-P28/C35908-P28.minimised.mol

>  <scratch_subdir>  (1156) 
/opt/xchem-fragalysis-2/maxwin/BulkDock/SCRATCH/511013/C35908-P28

>  <fragmenstein_runtime>  (1156) 
13.086566686630249

>  <fragmenstein_outcome>  (1156) 
too moved

>  <fragmenstein_mode>  (1156) 
expansion

>  <fragmenstein_error>  (1156) 


$$$$
C35908-P40
     RDKit          3D

 37 39  0  0  0  0  0  0  0  0999 V2000
   -2.0809  -18.4569   16.2024 O   0  0  0  0  0  0  0  0  0  0  0  0
   -3.0739  -18.4102   16.8707 C   0  0  0  0  0  0  0  0  0  0  0  0
   -3.8885  -19.5577   17.4675 N   0  0  0  0  0  0  0  0  0  0  0  0
   -3.7023  -21.4087   17.2831 C   0  0  0  0  0  0  0  0  0  0  0  0
   -2.4719  -22.1415   15.9187 C   0  0  0  0  0  0  0  0  0  0  0  0
   -1.3825  -21.4795   15.0410 C   0  0  0  0  0  0  0  0  0  0  0  0
   -1.6125  -21.5080   13.5252 C   0  0  0  0  0  0  0  0  0  0  0  0
   -1.3388  -22.9371   13.1311 C   0  0  0  0  0  0  0  0  0  0  0  0
   -0.2591  -23.3366   14.1050 C   0  0  0  0  0  0  0  0  0  0  0  0
   -0.2312  -22.3692   15.1684 O   0  0  0  0  0  0  0  0  0  0  0  0
   -3.4783  -16.7226   17.2316 C   0  0  0  0  0  0  0  0  0  0  0  0
   -2.5488  -15.6961   18.2363 C   0  0  0  0  0  0  0  0  0  0  0  0
   -2.1653  -14.2157   17.7436 C   0  0  0  0  0  0  0  0  0  0  0  0
   -2.7463  -13.6720   16.5778 C   0  0  0  0  0  0  0  0  0  0  0  0
   -2.6787  -12.3740   16.1274 N   0  0  0  0  0  0  0  0  0  0  0  0
   -3.4360  -12.2513   15.0031 C   0  0  0  0  0  0  0  0  0  0  0  0
   -3.9856  -13.4889   14.7298 C   0  0  0  0  0  0  0  0  0  0  0  0
   -3.6040  -14.4122   15.7487 C   0  0  0  0  0  0  0  0  0  0  0  0
   -3.9063  -15.8622   16.0048 C   0  0  0  0  0  0  0  0  0  0  0  0
   -4.6250  -19.1732   18.0519 H   0  0  0  0  0  0  0  0  0  0  0  0
   -3.3686  -21.9759   18.2091 H   0  0  0  0  0  0  0  0  0  0  0  0
   -4.6251  -21.6167   16.8197 H   0  0  0  0  0  0  0  0  0  0  0  0
   -3.0434  -22.7448   15.2271 H   0  0  0  0  0  0  0  0  0  0  0  0
   -1.9378  -22.9143   16.5134 H   0  0  0  0  0  0  0  0  0  0  0  0
   -1.0691  -20.4990   15.3884 H   0  0  0  0  0  0  0  0  0  0  0  0
   -0.8584  -20.8673   13.0485 H   0  0  0  0  0  0  0  0  0  0  0  0
   -2.5808  -21.1677   13.1696 H   0  0  0  0  0  0  0  0  0  0  0  0
   -2.2157  -23.5763   13.2673 H   0  0  0  0  0  0  0  0  0  0  0  0
   -1.0222  -23.0415   12.0892 H   0  0  0  0  0  0  0  0  0  0  0  0
    0.7279  -23.3372   13.6320 H   0  0  0  0  0  0  0  0  0  0  0  0
   -0.4353  -24.3303   14.5284 H   0  0  0  0  0  0  0  0  0  0  0  0
   -2.3035  -15.9077   19.2705 H   0  0  0  0  0  0  0  0  0  0  0  0
   -1.7613  -13.4467   18.3806 H   0  0  0  0  0  0  0  0  0  0  0  0
   -2.1461  -11.6359   16.5668 H   0  0  0  0  0  0  0  0  0  0  0  0
   -3.5142  -11.3085   14.4791 H   0  0  0  0  0  0  0  0  0  0  0  0
   -4.6310  -13.7078   13.8891 H   0  0  0  0  0  0  0  0  0  0  0  0
   -4.2519  -16.3170   15.0892 H   0  0  0  0  0  0  0  0  0  0  0  0
  1  2  2  0
  2  3  1  0
  3  4  1  0
  4  5  1  0
  5  6  1  0
  6  7  1  0
  7  8  1  0
  8  9  1  0
  9 10  1  0
  2 11  1  0
 11 12  2  0
 12 13  1  0
 13 14  2  0
 14 15  1  0
 15 16  1  0
 16 17  2  0
 17 18  1  0
 18 19  2  0
 10  6  1  0
 19 11  1  0
 18 14  1  0
  3 20  1  0
  4 21  1  0
  4 22  1  0
  5 23  1  0
  5 24  1  0
  6 25  1  0
  7 26  1  0
  7 27  1  0
  8 28  1  0
  8 29  1  0
  9 30  1  0
  9 31  1  0
 12 32  1  0
 13 33  1  0
 15 34  1  0
 16 35  1  0
 17 36  1  0
 19 37  1  0
M  END
>  <Energy>  (1157) 
247.02552216062591

>  <compound_id>  (1157) 
35908

>  <target_id>  (1157) 
1

>  <reference_id>  (1157) 
40

>  <inspiration_ids>  (1157) 
[28, 40]

>  <energy_score>  (1157) 
208.50222204447812

>  <distance_score>  (1157) 
15.121161612910836

>  <path>  (1157) 
/opt/xchem-fragalysis-2/maxwin/BulkDock/SCRATCH/511013/C35908-P40/C35908-P40.minimised.mol

>  <scratch_subdir>  (1157) 
/opt/xchem-fragalysis-2/maxwin/BulkDock/SCRATCH/511013/C35908-P40

>  <fragmenstein_runtime>  (1157) 
10.456363916397095

>  <fragmenstein_outcome>  (1157) 
too moved

>  <fragmenstein_mode>  (1157) 
expansion

>  <fragmenstein_error>  (1157) 


$$$$
C35909-P28
     RDKit          3D

 36 38  0  0  0  0  0  0  0  0999 V2000
   -4.0204  -11.8404   24.4620 O   0  0  0  0  0  0  0  0  0  0  0  0
   -3.7818  -10.7807   23.9894 C   0  0  0  0  0  0  0  0  0  0  0  0
   -3.9440  -10.1826   22.2319 N   0  0  0  0  0  0  0  0  0  0  0  0
   -4.3997  -11.1409   20.6153 C   0  0  0  0  0  0  0  0  0  0  0  0
   -3.5408  -11.5310   18.9195 C   0  0  0  0  0  0  0  0  0  0  0  0
   -4.3374  -11.7828   17.5321 C   0  0  0  0  0  0  0  0  0  0  0  0
   -3.1923  -12.2001   16.6403 C   0  0  0  0  0  0  0  0  0  0  0  0
   -2.1175  -11.2228   17.1137 C   0  0  0  0  0  0  0  0  0  0  0  0
   -2.5585  -10.6139   18.3663 O   0  0  0  0  0  0  0  0  0  0  0  0
   -3.1862   -9.6665   24.5446 N   0  0  0  0  0  0  0  0  0  0  0  0
   -2.4870   -9.4270   25.9802 C   0  0  0  0  0  0  0  0  0  0  0  0
   -2.6249   -7.7372   26.7204 C   0  0  0  0  0  0  0  0  0  0  0  0
   -2.1694   -7.3063   28.2207 C   0  0  0  0  0  0  0  0  0  0  0  0
   -1.2815   -8.1276   29.0386 C   0  0  0  0  0  0  0  0  0  0  0  0
   -0.8029   -7.8200   30.2889 N   0  0  0  0  0  0  0  0  0  0  0  0
    0.5023   -8.0920   30.1307 C   0  0  0  0  0  0  0  0  0  0  0  0
    0.5467   -8.9775   29.0529 C   0  0  0  0  0  0  0  0  0  0  0  0
   -0.7832   -9.4858   28.6417 C   0  0  0  0  0  0  0  0  0  0  0  0
   -1.5614  -10.4191   27.2739 C   0  0  0  0  0  0  0  0  0  0  0  0
   -3.7384   -9.2016   22.1600 H   0  0  0  0  0  0  0  0  0  0  0  0
   -5.3626  -11.6409   20.5563 H   0  0  0  0  0  0  0  0  0  0  0  0
   -3.9883  -12.1017   20.7703 H   0  0  0  0  0  0  0  0  0  0  0  0
   -2.9906  -12.4596   19.0991 H   0  0  0  0  0  0  0  0  0  0  0  0
   -5.2249  -12.4124   17.5505 H   0  0  0  0  0  0  0  0  0  0  0  0
   -4.6834  -10.8485   17.0580 H   0  0  0  0  0  0  0  0  0  0  0  0
   -3.4076  -12.0944   15.5733 H   0  0  0  0  0  0  0  0  0  0  0  0
   -2.8763  -13.2320   16.8211 H   0  0  0  0  0  0  0  0  0  0  0  0
   -1.1606  -11.7258   17.2852 H   0  0  0  0  0  0  0  0  0  0  0  0
   -1.9616  -10.4129   16.3946 H   0  0  0  0  0  0  0  0  0  0  0  0
   -3.2301   -8.9415   23.9035 H   0  0  0  0  0  0  0  0  0  0  0  0
   -3.7218   -7.5033   26.8369 H   0  0  0  0  0  0  0  0  0  0  0  0
   -2.1711   -6.2663   28.4611 H   0  0  0  0  0  0  0  0  0  0  0  0
   -1.1566   -7.0740   30.8738 H   0  0  0  0  0  0  0  0  0  0  0  0
    1.2204   -7.4914   30.6617 H   0  0  0  0  0  0  0  0  0  0  0  0
    1.4735   -8.9818   28.5195 H   0  0  0  0  0  0  0  0  0  0  0  0
   -2.1514  -11.3394   27.4892 H   0  0  0  0  0  0  0  0  0  0  0  0
  1  2  2  0
  2  3  1  0
  3  4  1  0
  4  5  1  0
  5  6  1  0
  6  7  1  0
  7  8  1  0
  8  9  1  0
  2 10  1  0
 10 11  1  0
 11 12  2  0
 12 13  1  0
 13 14  2  0
 14 15  1  0
 15 16  1  0
 16 17  2  0
 17 18  1  0
 18 19  2  0
  9  5  1  0
 19 11  1  0
 18 14  1  0
  3 20  1  0
  4 21  1  0
  4 22  1  0
  5 23  1  0
  6 24  1  0
  6 25  1  0
  7 26  1  0
  7 27  1  0
  8 28  1  0
  8 29  1  0
 10 30  1  0
 12 31  1  0
 13 32  1  0
 15 33  1  0
 16 34  1  0
 17 35  1  0
 19 36  1  0
M  END
>  <Energy>  (1158) 
503.78813328885343

>  <compound_id>  (1158) 
35909

>  <target_id>  (1158) 
1

>  <reference_id>  (1158) 
28

>  <inspiration_ids>  (1158) 
[28, 40]

>  <energy_score>  (1158) 
514.2171115089088

>  <distance_score>  (1158) 
10.229877006115185

>  <path>  (1158) 
/opt/xchem-fragalysis-2/maxwin/BulkDock/SCRATCH/511013/C35909-P28/C35909-P28.minimised.mol

>  <scratch_subdir>  (1158) 
/opt/xchem-fragalysis-2/maxwin/BulkDock/SCRATCH/511013/C35909-P28

>  <fragmenstein_runtime>  (1158) 
9.748053312301636

>  <fragmenstein_outcome>  (1158) 
too moved

>  <fragmenstein_mode>  (1158) 
expansion

>  <fragmenstein_error>  (1158) 


$$$$
C35909-P40
     RDKit          3D

 36 38  0  0  0  0  0  0  0  0999 V2000
   -2.7518  -16.8405   25.4309 O   0  0  0  0  0  0  0  0  0  0  0  0
   -2.8641  -15.9681   24.6394 C   0  0  0  0  0  0  0  0  0  0  0  0
   -3.9666  -15.8472   23.0616 N   0  0  0  0  0  0  0  0  0  0  0  0
   -5.1104  -17.2141   22.1586 C   0  0  0  0  0  0  0  0  0  0  0  0
   -5.4422  -17.7556   20.7166 C   0  0  0  0  0  0  0  0  0  0  0  0
   -5.7638  -19.1886   20.4734 C   0  0  0  0  0  0  0  0  0  0  0  0
   -5.8864  -19.1832   19.0005 C   0  0  0  0  0  0  0  0  0  0  0  0
   -6.3463  -17.8116   18.7666 C   0  0  0  0  0  0  0  0  0  0  0  0
   -6.5603  -17.2621   20.0620 O   0  0  0  0  0  0  0  0  0  0  0  0
   -2.1722  -14.8350   24.4972 N   0  0  0  0  0  0  0  0  0  0  0  0
   -1.0187  -14.3551   25.1627 C   0  0  0  0  0  0  0  0  0  0  0  0
   -0.0761  -13.7253   24.2882 C   0  0  0  0  0  0  0  0  0  0  0  0
    1.3249  -13.7558   24.3814 C   0  0  0  0  0  0  0  0  0  0  0  0
    1.8355  -14.5559   25.3804 C   0  0  0  0  0  0  0  0  0  0  0  0
    3.1310  -14.6981   25.8077 N   0  0  0  0  0  0  0  0  0  0  0  0
    3.1825  -15.6355   26.8005 C   0  0  0  0  0  0  0  0  0  0  0  0
    1.8963  -16.0741   27.0335 C   0  0  0  0  0  0  0  0  0  0  0  0
    1.0155  -15.3239   26.2017 C   0  0  0  0  0  0  0  0  0  0  0  0
   -0.4098  -15.2080   26.0924 C   0  0  0  0  0  0  0  0  0  0  0  0
   -3.9013  -14.9631   22.6539 H   0  0  0  0  0  0  0  0  0  0  0  0
   -5.5893  -17.9647   22.8003 H   0  0  0  0  0  0  0  0  0  0  0  0
   -4.2316  -16.8906   21.5902 H   0  0  0  0  0  0  0  0  0  0  0  0
   -4.5833  -17.5488   20.0772 H   0  0  0  0  0  0  0  0  0  0  0  0
   -5.0380  -19.9532   20.7219 H   0  0  0  0  0  0  0  0  0  0  0  0
   -6.7542  -19.3089   20.9117 H   0  0  0  0  0  0  0  0  0  0  0  0
   -6.6689  -19.7880   18.6030 H   0  0  0  0  0  0  0  0  0  0  0  0
   -4.9363  -19.4042   18.5061 H   0  0  0  0  0  0  0  0  0  0  0  0
   -7.2140  -17.7282   18.1171 H   0  0  0  0  0  0  0  0  0  0  0  0
   -5.4913  -17.2724   18.3608 H   0  0  0  0  0  0  0  0  0  0  0  0
   -2.4675  -14.4090   23.7166 H   0  0  0  0  0  0  0  0  0  0  0  0
   -0.3817  -13.1691   23.4162 H   0  0  0  0  0  0  0  0  0  0  0  0
    1.9501  -13.1686   23.7174 H   0  0  0  0  0  0  0  0  0  0  0  0
    3.9114  -14.1629   25.4485 H   0  0  0  0  0  0  0  0  0  0  0  0
    4.1240  -15.9086   27.2571 H   0  0  0  0  0  0  0  0  0  0  0  0
    1.6062  -16.8022   27.7798 H   0  0  0  0  0  0  0  0  0  0  0  0
   -1.0149  -15.8843   26.6923 H   0  0  0  0  0  0  0  0  0  0  0  0
  1  2  2  0
  2  3  1  0
  3  4  1  0
  4  5  1  0
  5  6  1  0
  6  7  1  0
  7  8  1  0
  8  9  1  0
  2 10  1  0
 10 11  1  0
 11 12  2  0
 12 13  1  0
 13 14  2  0
 14 15  1  0
 15 16  1  0
 16 17  2  0
 17 18  1  0
 18 19  2  0
  9  5  1  0
 19 11  1  0
 18 14  1  0
  3 20  1  0
  4 21  1  0
  4 22  1  0
  5 23  1  0
  6 24  1  0
  6 25  1  0
  7 26  1  0
  7 27  1  0
  8 28  1  0
  8 29  1  0
 10 30  1  0
 12 31  1  0
 13 32  1  0
 15 33  1  0
 16 34  1  0
 17 35  1  0
 19 36  1  0
M  END
>  <Energy>  (1159) 
265.65784575402756

>  <compound_id>  (1159) 
35909

>  <target_id>  (1159) 
1

>  <reference_id>  (1159) 
40

>  <inspiration_ids>  (1159) 
[28, 40]

>  <energy_score>  (1159) 
276.0868239740792

>  <distance_score>  (1159) 
10.444315861193106

>  <path>  (1159) 
/opt/xchem-fragalysis-2/maxwin/BulkDock/SCRATCH/511013/C35909-P40/C35909-P40.minimised.mol

>  <scratch_subdir>  (1159) 
/opt/xchem-fragalysis-2/maxwin/BulkDock/SCRATCH/511013/C35909-P40

>  <fragmenstein_runtime>  (1159) 
12.211718559265137

>  <fragmenstein_outcome>  (1159) 
too moved

>  <fragmenstein_mode>  (1159) 
expansion

>  <fragmenstein_error>  (1159) 


$$$$
C35910-P28
     RDKit          3D

 39 41  0  0  0  0  0  0  0  0999 V2000
   -4.6069  -16.2742   30.0963 O   0  0  0  0  0  0  0  0  0  0  0  0
   -3.9016  -16.3515   29.1149 C   0  0  0  0  0  0  0  0  0  0  0  0
   -3.9634  -17.5382   27.8830 N   0  0  0  0  0  0  0  0  0  0  0  0
   -5.2628  -19.0152   27.5452 C   0  0  0  0  0  0  0  0  0  0  0  0
   -5.8116  -19.2449   25.4534 C   0  0  0  0  0  0  0  0  0  0  0  0
   -6.2631  -18.1460   23.7503 C   0  0  0  0  0  0  0  0  0  0  0  0
   -7.3960  -18.0854   22.5171 C   0  0  0  0  0  0  0  0  0  0  0  0
   -7.0336  -19.4179   22.5014 C   0  0  0  0  0  0  0  0  0  0  0  0
   -6.2447  -19.1824   20.9202 C   0  0  0  0  0  0  0  0  0  0  0  0
   -5.2958  -20.1079   20.6258 F   0  0  0  0  0  0  0  0  0  0  0  0
   -5.6725  -17.9999   20.6582 F   0  0  0  0  0  0  0  0  0  0  0  0
   -7.1697  -19.2986   19.9335 F   0  0  0  0  0  0  0  0  0  0  0  0
   -7.0304  -18.9441   24.0084 O   0  0  0  0  0  0  0  0  0  0  0  0
   -2.6761  -15.0894   28.5275 N   0  0  0  0  0  0  0  0  0  0  0  0
   -2.3252  -13.3166   29.1507 C   0  0  0  0  0  0  0  0  0  0  0  0
   -2.8800  -12.3331   29.8002 C   0  0  0  0  0  0  0  0  0  0  0  0
   -1.9902  -10.8153   30.4218 C   0  0  0  0  0  0  0  0  0  0  0  0
   -1.0119  -10.0392   30.1737 C   0  0  0  0  0  0  0  0  0  0  0  0
   -0.5553   -8.8931   30.6947 N   0  0  0  0  0  0  0  0  0  0  0  0
    0.0926   -8.3778   29.6572 C   0  0  0  0  0  0  0  0  0  0  0  0
   -0.4423   -9.1092   28.5885 C   0  0  0  0  0  0  0  0  0  0  0  0
   -1.2914  -10.2677   28.8556 C   0  0  0  0  0  0  0  0  0  0  0  0
   -2.3695  -11.7156   28.4032 C   0  0  0  0  0  0  0  0  0  0  0  0
   -3.2016  -17.3937   27.2397 H   0  0  0  0  0  0  0  0  0  0  0  0
   -4.6509  -19.9091   27.7602 H   0  0  0  0  0  0  0  0  0  0  0  0
   -6.0523  -18.9035   28.2927 H   0  0  0  0  0  0  0  0  0  0  0  0
   -5.1310  -20.1119   25.2384 H   0  0  0  0  0  0  0  0  0  0  0  0
   -6.6004  -17.1612   23.8900 H   0  0  0  0  0  0  0  0  0  0  0  0
   -5.5088  -18.0964   22.9613 H   0  0  0  0  0  0  0  0  0  0  0  0
   -7.2205  -17.3982   21.7002 H   0  0  0  0  0  0  0  0  0  0  0  0
   -8.4379  -18.0751   22.6473 H   0  0  0  0  0  0  0  0  0  0  0  0
   -7.9391  -20.0154   22.4525 H   0  0  0  0  0  0  0  0  0  0  0  0
   -2.1686  -15.4480   27.7313 H   0  0  0  0  0  0  0  0  0  0  0  0
   -3.9516  -12.4502   30.0456 H   0  0  0  0  0  0  0  0  0  0  0  0
   -2.5230  -10.2037   31.2001 H   0  0  0  0  0  0  0  0  0  0  0  0
   -0.5183   -8.6357   31.6748 H   0  0  0  0  0  0  0  0  0  0  0  0
    0.7327   -7.5148   29.7793 H   0  0  0  0  0  0  0  0  0  0  0  0
   -0.3452   -8.7422   27.6317 H   0  0  0  0  0  0  0  0  0  0  0  0
   -2.5339  -11.7636   27.2989 H   0  0  0  0  0  0  0  0  0  0  0  0
  1  2  2  0
  2  3  1  0
  3  4  1  0
  4  5  1  0
  5  6  1  0
  6  7  1  0
  7  8  1  0
  8  9  1  0
  9 10  1  0
  9 11  1  0
  9 12  1  0
  8 13  1  0
  2 14  1  0
 14 15  1  0
 15 16  2  0
 16 17  1  0
 17 18  2  0
 18 19  1  0
 19 20  1  0
 20 21  2  0
 21 22  1  0
 22 23  2  0
 13  5  1  0
 23 15  1  0
 22 18  1  0
  3 24  1  0
  4 25  1  0
  4 26  1  0
  5 27  1  0
  6 28  1  0
  6 29  1  0
  7 30  1  0
  7 31  1  0
  8 32  1  0
 14 33  1  0
 16 34  1  0
 17 35  1  0
 19 36  1  0
 20 37  1  0
 21 38  1  0
 23 39  1  0
M  END
>  <Energy>  (1160) 
1337.5906130228304

>  <compound_id>  (1160) 
35910

>  <target_id>  (1160) 
1

>  <reference_id>  (1160) 
28

>  <inspiration_ids>  (1160) 
[28, 40]

>  <energy_score>  (1160) 
1279.2452619109265

>  <distance_score>  (1160) 
9.672286217851992

>  <path>  (1160) 
/opt/xchem-fragalysis-2/maxwin/BulkDock/SCRATCH/511013/C35910-P28/C35910-P28.minimised.mol

>  <scratch_subdir>  (1160) 
/opt/xchem-fragalysis-2/maxwin/BulkDock/SCRATCH/511013/C35910-P28

>  <fragmenstein_runtime>  (1160) 
12.975670099258423

>  <fragmenstein_outcome>  (1160) 
too moved

>  <fragmenstein_mode>  (1160) 
expansion

>  <fragmenstein_error>  (1160) 


$$$$
C35910-P40
     RDKit          3D

 39 41  0  0  0  0  0  0  0  0999 V2000
   -6.9747  -13.5827   26.8337 O   0  0  0  0  0  0  0  0  0  0  0  0
   -5.8828  -13.8858   26.3740 C   0  0  0  0  0  0  0  0  0  0  0  0
   -5.2807  -15.4772   24.8880 N   0  0  0  0  0  0  0  0  0  0  0  0
   -6.4531  -16.8697   23.6962 C   0  0  0  0  0  0  0  0  0  0  0  0
   -6.5239  -17.7678   21.8788 C   0  0  0  0  0  0  0  0  0  0  0  0
   -5.4991  -17.8030   20.7515 C   0  0  0  0  0  0  0  0  0  0  0  0
   -6.0933  -18.0445   19.3508 C   0  0  0  0  0  0  0  0  0  0  0  0
   -6.9700  -19.1911   19.6532 C   0  0  0  0  0  0  0  0  0  0  0  0
   -8.0658  -20.1130   18.3573 C   0  0  0  0  0  0  0  0  0  0  0  0
   -7.2596  -20.9004   17.6548 F   0  0  0  0  0  0  0  0  0  0  0  0
   -9.0022  -19.6446   17.5428 F   0  0  0  0  0  0  0  0  0  0  0  0
   -8.9272  -20.8476   19.1403 F   0  0  0  0  0  0  0  0  0  0  0  0
   -7.3041  -18.9673   21.2976 O   0  0  0  0  0  0  0  0  0  0  0  0
   -3.8393  -13.0892   26.7937 N   0  0  0  0  0  0  0  0  0  0  0  0
   -3.2017  -11.8764   28.0131 C   0  0  0  0  0  0  0  0  0  0  0  0
   -2.7242  -12.0544   29.4357 C   0  0  0  0  0  0  0  0  0  0  0  0
   -1.4279  -11.0232   30.2718 C   0  0  0  0  0  0  0  0  0  0  0  0
   -0.8692   -9.8197   30.0331 C   0  0  0  0  0  0  0  0  0  0  0  0
   -0.5426   -8.7226   30.7714 N   0  0  0  0  0  0  0  0  0  0  0  0
    0.0168   -7.8319   29.9335 C   0  0  0  0  0  0  0  0  0  0  0  0
   -0.0034   -8.4527   28.7039 C   0  0  0  0  0  0  0  0  0  0  0  0
   -0.6995   -9.8251   28.6942 C   0  0  0  0  0  0  0  0  0  0  0  0
   -1.7703  -11.0223   27.7258 C   0  0  0  0  0  0  0  0  0  0  0  0
   -4.2530  -15.5552   24.7468 H   0  0  0  0  0  0  0  0  0  0  0  0
   -7.0116  -15.8658   23.7264 H   0  0  0  0  0  0  0  0  0  0  0  0
   -7.4737  -16.8001   23.3916 H   0  0  0  0  0  0  0  0  0  0  0  0
   -7.2929  -17.0887   21.4905 H   0  0  0  0  0  0  0  0  0  0  0  0
   -4.7158  -17.0562   20.8537 H   0  0  0  0  0  0  0  0  0  0  0  0
   -5.0652  -18.7963   20.7967 H   0  0  0  0  0  0  0  0  0  0  0  0
   -5.3003  -18.2860   18.6394 H   0  0  0  0  0  0  0  0  0  0  0  0
   -6.7064  -17.2685   18.9726 H   0  0  0  0  0  0  0  0  0  0  0  0
   -6.1359  -19.8973   19.7584 H   0  0  0  0  0  0  0  0  0  0  0  0
   -3.0985  -13.4869   26.1872 H   0  0  0  0  0  0  0  0  0  0  0  0
   -3.0135  -12.9867   29.9234 H   0  0  0  0  0  0  0  0  0  0  0  0
   -1.0133  -11.3362   31.2059 H   0  0  0  0  0  0  0  0  0  0  0  0
   -0.6719   -8.6250   31.7722 H   0  0  0  0  0  0  0  0  0  0  0  0
    0.3652   -6.8592   30.2575 H   0  0  0  0  0  0  0  0  0  0  0  0
    0.3591   -7.8524   27.9066 H   0  0  0  0  0  0  0  0  0  0  0  0
   -1.9813  -10.7438   28.6643 H   0  0  0  0  0  0  0  0  0  0  0  0
  1  2  2  0
  2  3  1  0
  3  4  1  0
  4  5  1  0
  5  6  1  0
  6  7  1  0
  7  8  1  0
  8  9  1  0
  9 10  1  0
  9 11  1  0
  9 12  1  0
  8 13  1  0
  2 14  1  0
 14 15  1  0
 15 16  2  0
 16 17  1  0
 17 18  2  0
 18 19  1  0
 19 20  1  0
 20 21  2  0
 21 22  1  0
 22 23  2  0
 13  5  1  0
 23 15  1  0
 22 18  1  0
  3 24  1  0
  4 25  1  0
  4 26  1  0
  5 27  1  0
  6 28  1  0
  6 29  1  0
  7 30  1  0
  7 31  1  0
  8 32  1  0
 14 33  1  0
 16 34  1  0
 17 35  1  0
 19 36  1  0
 20 37  1  0
 21 38  1  0
 23 39  1  0
M  END
>  <Energy>  (1161) 
1557.3630063584289

>  <compound_id>  (1161) 
35910

>  <target_id>  (1161) 
1

>  <reference_id>  (1161) 
40

>  <inspiration_ids>  (1161) 
[28, 40]

>  <energy_score>  (1161) 
1499.0176552465489

>  <distance_score>  (1161) 
8.226244877257603

>  <path>  (1161) 
/opt/xchem-fragalysis-2/maxwin/BulkDock/SCRATCH/511013/C35910-P40/C35910-P40.minimised.mol

>  <scratch_subdir>  (1161) 
/opt/xchem-fragalysis-2/maxwin/BulkDock/SCRATCH/511013/C35910-P40

>  <fragmenstein_runtime>  (1161) 
17.741827726364136

>  <fragmenstein_outcome>  (1161) 
too moved

>  <fragmenstein_mode>  (1161) 
expansion

>  <fragmenstein_error>  (1161) 


$$$$
C35912-P28
     RDKit          3D

 46 49  0  0  0  0  0  0  0  0999 V2000
   -7.6436   -9.1293   23.6765 O   0  0  0  0  0  0  0  0  0  0  0  0
   -8.3866  -10.0202   23.5798 C   0  0  0  0  0  0  0  0  0  0  0  0
   -8.2537  -11.5670   22.6309 N   0  0  0  0  0  0  0  0  0  0  0  0
   -6.9165  -12.2237   21.3568 C   0  0  0  0  0  0  0  0  0  0  0  0
   -8.0073  -13.4783   19.8981 C   0  0  0  0  0  0  0  0  0  0  0  0
   -9.5605  -13.5457   19.4845 C   0  0  0  0  0  0  0  0  0  0  0  0
  -10.1616  -15.4040   18.8467 C   0  0  0  0  0  0  0  0  0  0  0  0
   -8.8149  -16.3693   17.9179 C   0  0  0  0  0  0  0  0  0  0  0  0
   -9.5478  -18.1966   17.2179 C   0  0  0  0  0  0  0  0  0  0  0  0
  -10.2568  -18.7147   15.7293 C   0  0  0  0  0  0  0  0  0  0  0  0
  -10.3954  -20.1125   14.6759 C   0  0  0  0  0  0  0  0  0  0  0  0
   -9.9814  -21.3585   15.0168 C   0  0  0  0  0  0  0  0  0  0  0  0
   -9.6073  -21.2438   16.3767 C   0  0  0  0  0  0  0  0  0  0  0  0
   -9.2475  -19.9017   17.5019 C   0  0  0  0  0  0  0  0  0  0  0  0
   -8.8373  -15.2047   19.4498 O   0  0  0  0  0  0  0  0  0  0  0  0
   -9.6922  -10.2202   24.3200 N   0  0  0  0  0  0  0  0  0  0  0  0
  -10.2848   -9.4723   25.3487 C   0  0  0  0  0  0  0  0  0  0  0  0
  -10.5197   -8.1317   24.9975 C   0  0  0  0  0  0  0  0  0  0  0  0
   -9.9273   -7.0285   25.6601 C   0  0  0  0  0  0  0  0  0  0  0  0
   -9.0494   -7.2912   26.7122 C   0  0  0  0  0  0  0  0  0  0  0  0
   -8.2423   -6.4460   27.4396 N   0  0  0  0  0  0  0  0  0  0  0  0
   -7.5551   -7.1565   28.3826 C   0  0  0  0  0  0  0  0  0  0  0  0
   -7.8861   -8.4847   28.2342 C   0  0  0  0  0  0  0  0  0  0  0  0
   -8.8467   -8.5832   27.1873 C   0  0  0  0  0  0  0  0  0  0  0  0
   -9.5305   -9.6593   26.5478 C   0  0  0  0  0  0  0  0  0  0  0  0
   -9.0505  -12.0674   22.6791 H   0  0  0  0  0  0  0  0  0  0  0  0
   -6.4173  -11.7418   20.4719 H   0  0  0  0  0  0  0  0  0  0  0  0
   -6.3890  -12.6241   22.2045 H   0  0  0  0  0  0  0  0  0  0  0  0
   -7.6576  -13.0346   18.9510 H   0  0  0  0  0  0  0  0  0  0  0  0
   -9.7645  -12.7552   18.7311 H   0  0  0  0  0  0  0  0  0  0  0  0
  -10.1034  -13.1539   20.3125 H   0  0  0  0  0  0  0  0  0  0  0  0
  -11.0150  -15.3794   18.1402 H   0  0  0  0  0  0  0  0  0  0  0  0
  -10.7126  -15.9576   19.5537 H   0  0  0  0  0  0  0  0  0  0  0  0
   -7.9800  -16.8902   18.3501 H   0  0  0  0  0  0  0  0  0  0  0  0
  -10.6843  -18.1770   14.8609 H   0  0  0  0  0  0  0  0  0  0  0  0
  -10.8594  -19.9375   13.7040 H   0  0  0  0  0  0  0  0  0  0  0  0
  -10.0587  -22.2605   14.4376 H   0  0  0  0  0  0  0  0  0  0  0  0
   -9.5591  -22.2555   16.6503 H   0  0  0  0  0  0  0  0  0  0  0  0
   -8.6271  -20.3132   18.2938 H   0  0  0  0  0  0  0  0  0  0  0  0
  -10.1471  -11.0404   23.9618 H   0  0  0  0  0  0  0  0  0  0  0  0
  -11.0413   -7.9255   24.0632 H   0  0  0  0  0  0  0  0  0  0  0  0
  -10.0768   -6.0217   25.2844 H   0  0  0  0  0  0  0  0  0  0  0  0
   -8.1956   -5.4457   27.3082 H   0  0  0  0  0  0  0  0  0  0  0  0
   -6.9086   -6.6597   29.0866 H   0  0  0  0  0  0  0  0  0  0  0  0
   -7.4899   -9.3049   28.8178 H   0  0  0  0  0  0  0  0  0  0  0  0
   -9.2325  -10.6673   26.8335 H   0  0  0  0  0  0  0  0  0  0  0  0
  1  2  2  0
  2  3  1  0
  3  4  1  0
  4  5  1  0
  5  6  1  0
  6  7  1  0
  7  8  1  0
  8  9  1  0
  9 10  2  0
 10 11  1  0
 11 12  2  0
 12 13  1  0
 13 14  2  0
  8 15  1  0
  2 16  1  0
 16 17  1  0
 17 18  2  0
 18 19  1  0
 19 20  2  0
 20 21  1  0
 21 22  1  0
 22 23  2  0
 23 24  1  0
 24 25  2  0
 15  5  1  0
 25 17  1  0
 14  9  1  0
 24 20  1  0
  3 26  1  0
  4 27  1  0
  4 28  1  0
  5 29  1  0
  6 30  1  0
  6 31  1  0
  7 32  1  0
  7 33  1  0
  8 34  1  0
 10 35  1  0
 11 36  1  0
 12 37  1  0
 13 38  1  0
 14 39  1  0
 16 40  1  0
 18 41  1  0
 19 42  1  0
 21 43  1  0
 22 44  1  0
 23 45  1  0
 25 46  1  0
M  END
>  <Energy>  (1162) 
1099.5904406666068

>  <compound_id>  (1162) 
35912

>  <target_id>  (1162) 
1

>  <reference_id>  (1162) 
28

>  <inspiration_ids>  (1162) 
[28, 40]

>  <energy_score>  (1162) 
1079.5040269497001

>  <distance_score>  (1162) 
10.753341063952616

>  <path>  (1162) 
/opt/xchem-fragalysis-2/maxwin/BulkDock/SCRATCH/511013/C35912-P28/C35912-P28.minimised.mol

>  <scratch_subdir>  (1162) 
/opt/xchem-fragalysis-2/maxwin/BulkDock/SCRATCH/511013/C35912-P28

>  <fragmenstein_runtime>  (1162) 
19.251126289367676

>  <fragmenstein_outcome>  (1162) 
too moved

>  <fragmenstein_mode>  (1162) 
expansion

>  <fragmenstein_error>  (1162) 


$$$$
C35912-P40
     RDKit          3D

 46 49  0  0  0  0  0  0  0  0999 V2000
   -1.6170  -14.3781   18.6993 O   0  0  0  0  0  0  0  0  0  0  0  0
   -1.4112  -14.9170   19.7282 C   0  0  0  0  0  0  0  0  0  0  0  0
   -2.2468  -15.9342   20.4893 N   0  0  0  0  0  0  0  0  0  0  0  0
   -3.6393  -16.4812   20.2167 C   0  0  0  0  0  0  0  0  0  0  0  0
   -4.8008  -17.9104   20.0563 C   0  0  0  0  0  0  0  0  0  0  0  0
   -4.8748  -17.7014   18.6086 C   0  0  0  0  0  0  0  0  0  0  0  0
   -5.5265  -18.9214   18.3482 C   0  0  0  0  0  0  0  0  0  0  0  0
   -6.5623  -19.4034   19.1974 C   0  0  0  0  0  0  0  0  0  0  0  0
   -7.6704  -20.2904   17.9780 C   0  0  0  0  0  0  0  0  0  0  0  0
   -7.1835  -21.2312   17.0589 C   0  0  0  0  0  0  0  0  0  0  0  0
   -7.8455  -22.2838   15.5302 C   0  0  0  0  0  0  0  0  0  0  0  0
   -9.1381  -22.4208   15.2579 C   0  0  0  0  0  0  0  0  0  0  0  0
   -9.5053  -21.3906   16.1087 C   0  0  0  0  0  0  0  0  0  0  0  0
   -8.9124  -20.4430   17.5039 C   0  0  0  0  0  0  0  0  0  0  0  0
   -6.4449  -18.1505   19.9612 O   0  0  0  0  0  0  0  0  0  0  0  0
   -0.2940  -14.7176   20.7313 N   0  0  0  0  0  0  0  0  0  0  0  0
    0.7521  -13.7704   20.7685 C   0  0  0  0  0  0  0  0  0  0  0  0
    0.6824  -12.6033   20.0029 C   0  0  0  0  0  0  0  0  0  0  0  0
    1.3731  -11.4282   20.3658 C   0  0  0  0  0  0  0  0  0  0  0  0
    2.1741  -11.4645   21.5097 C   0  0  0  0  0  0  0  0  0  0  0  0
    2.9062  -10.4734   22.1234 N   0  0  0  0  0  0  0  0  0  0  0  0
    3.5771  -10.9778   23.2006 C   0  0  0  0  0  0  0  0  0  0  0  0
    3.2211  -12.3026   23.3246 C   0  0  0  0  0  0  0  0  0  0  0  0
    2.3198  -12.6194   22.2731 C   0  0  0  0  0  0  0  0  0  0  0  0
    1.5875  -13.7761   21.9061 C   0  0  0  0  0  0  0  0  0  0  0  0
   -1.8214  -16.1216   21.3572 H   0  0  0  0  0  0  0  0  0  0  0  0
   -4.1328  -16.1791   21.1166 H   0  0  0  0  0  0  0  0  0  0  0  0
   -3.5918  -16.1063   19.2447 H   0  0  0  0  0  0  0  0  0  0  0  0
   -5.2205  -17.5454   20.9977 H   0  0  0  0  0  0  0  0  0  0  0  0
   -4.0553  -17.5734   17.8992 H   0  0  0  0  0  0  0  0  0  0  0  0
   -5.5156  -16.9021   18.2975 H   0  0  0  0  0  0  0  0  0  0  0  0
   -6.3844  -18.4811   17.8555 H   0  0  0  0  0  0  0  0  0  0  0  0
   -4.8037  -19.5948   17.9063 H   0  0  0  0  0  0  0  0  0  0  0  0
   -6.0203  -20.0646   19.8637 H   0  0  0  0  0  0  0  0  0  0  0  0
   -6.1526  -21.3220   17.2402 H   0  0  0  0  0  0  0  0  0  0  0  0
   -7.3561  -22.2019   14.5552 H   0  0  0  0  0  0  0  0  0  0  0  0
   -9.5617  -22.6492   14.2964 H   0  0  0  0  0  0  0  0  0  0  0  0
   -9.8923  -20.6302   15.4020 H   0  0  0  0  0  0  0  0  0  0  0  0
   -9.4553  -19.5206   17.5845 H   0  0  0  0  0  0  0  0  0  0  0  0
   -0.4665  -15.2846   21.5377 H   0  0  0  0  0  0  0  0  0  0  0  0
    0.0002  -12.5480   19.1563 H   0  0  0  0  0  0  0  0  0  0  0  0
    1.2540  -10.5209   19.7836 H   0  0  0  0  0  0  0  0  0  0  0  0
    2.9012   -9.5061   21.8433 H   0  0  0  0  0  0  0  0  0  0  0  0
    4.2103  -10.3511   23.8115 H   0  0  0  0  0  0  0  0  0  0  0  0
    3.5574  -12.9689   24.1069 H   0  0  0  0  0  0  0  0  0  0  0  0
    1.6306  -14.6418   22.5568 H   0  0  0  0  0  0  0  0  0  0  0  0
  1  2  2  0
  2  3  1  0
  3  4  1  0
  4  5  1  0
  5  6  1  0
  6  7  1  0
  7  8  1  0
  8  9  1  0
  9 10  2  0
 10 11  1  0
 11 12  2  0
 12 13  1  0
 13 14  2  0
  8 15  1  0
  2 16  1  0
 16 17  1  0
 17 18  2  0
 18 19  1  0
 19 20  2  0
 20 21  1  0
 21 22  1  0
 22 23  2  0
 23 24  1  0
 24 25  2  0
 15  5  1  0
 25 17  1  0
 14  9  1  0
 24 20  1  0
  3 26  1  0
  4 27  1  0
  4 28  1  0
  5 29  1  0
  6 30  1  0
  6 31  1  0
  7 32  1  0
  7 33  1  0
  8 34  1  0
 10 35  1  0
 11 36  1  0
 12 37  1  0
 13 38  1  0
 14 39  1  0
 16 40  1  0
 18 41  1  0
 19 42  1  0
 21 43  1  0
 22 44  1  0
 23 45  1  0
 25 46  1  0
M  END
>  <Energy>  (1163) 
520.96848617243666

>  <compound_id>  (1163) 
35912

>  <target_id>  (1163) 
1

>  <reference_id>  (1163) 
40

>  <inspiration_ids>  (1163) 
[28, 40]

>  <energy_score>  (1163) 
500.8820724555335

>  <distance_score>  (1163) 
10.45178488989516

>  <path>  (1163) 
/opt/xchem-fragalysis-2/maxwin/BulkDock/SCRATCH/511013/C35912-P40/C35912-P40.minimised.mol

>  <scratch_subdir>  (1163) 
/opt/xchem-fragalysis-2/maxwin/BulkDock/SCRATCH/511013/C35912-P40

>  <fragmenstein_runtime>  (1163) 
16.605441331863403

>  <fragmenstein_outcome>  (1163) 
too moved

>  <fragmenstein_mode>  (1163) 
expansion

>  <fragmenstein_error>  (1163) 


$$$$
C35915-P28
     RDKit          3D

 39 41  0  0  0  0  0  0  0  0999 V2000
   -6.7593  -18.2091   22.6956 C   0  0  0  0  0  0  0  0  0  0  0  0
   -5.7834  -17.6981   21.6163 C   0  0  0  0  0  0  0  0  0  0  0  0
   -4.5923  -16.1734   22.0600 C   0  0  0  0  0  0  0  0  0  0  0  0
   -3.9325  -14.8975   23.5012 N   0  0  0  0  0  0  0  0  0  0  0  0
   -4.6409  -13.2055   24.1903 C   0  0  0  0  0  0  0  0  0  0  0  0
   -5.6864  -12.6104   23.9475 O   0  0  0  0  0  0  0  0  0  0  0  0
   -3.2267  -12.8435   25.5225 N   0  0  0  0  0  0  0  0  0  0  0  0
   -3.1614  -11.9236   26.5401 C   0  0  0  0  0  0  0  0  0  0  0  0
   -3.2729  -12.5861   27.8068 C   0  0  0  0  0  0  0  0  0  0  0  0
   -2.9888  -12.2169   29.2221 C   0  0  0  0  0  0  0  0  0  0  0  0
   -2.0594  -11.1239   29.5399 C   0  0  0  0  0  0  0  0  0  0  0  0
   -1.4405  -10.3768   30.6109 N   0  0  0  0  0  0  0  0  0  0  0  0
   -0.7268   -9.2646   30.1789 C   0  0  0  0  0  0  0  0  0  0  0  0
   -0.5467   -9.4578   28.8475 C   0  0  0  0  0  0  0  0  0  0  0  0
   -1.4730  -10.5583   28.4044 C   0  0  0  0  0  0  0  0  0  0  0  0
   -2.1939  -11.1327   27.0393 C   0  0  0  0  0  0  0  0  0  0  0  0
   -6.6961  -17.5112   20.5042 C   0  0  0  0  0  0  0  0  0  0  0  0
   -6.1694  -17.8766   19.1521 C   0  0  0  0  0  0  0  0  0  0  0  0
   -5.5776  -19.1282   19.4887 C   0  0  0  0  0  0  0  0  0  0  0  0
   -5.3186  -19.0104   20.8519 O   0  0  0  0  0  0  0  0  0  0  0  0
   -7.6364  -17.5735   22.6819 H   0  0  0  0  0  0  0  0  0  0  0  0
   -6.3598  -18.2588   23.6808 H   0  0  0  0  0  0  0  0  0  0  0  0
   -7.1414  -19.2115   22.5110 H   0  0  0  0  0  0  0  0  0  0  0  0
   -3.8687  -16.1993   21.1899 H   0  0  0  0  0  0  0  0  0  0  0  0
   -3.9477  -16.8996   22.3214 H   0  0  0  0  0  0  0  0  0  0  0  0
   -2.9985  -15.0781   23.8403 H   0  0  0  0  0  0  0  0  0  0  0  0
   -2.5113  -13.5796   25.5316 H   0  0  0  0  0  0  0  0  0  0  0  0
   -3.1232  -13.6641   27.7625 H   0  0  0  0  0  0  0  0  0  0  0  0
   -3.3218  -12.9626   29.9395 H   0  0  0  0  0  0  0  0  0  0  0  0
   -1.6236  -10.4644   31.5923 H   0  0  0  0  0  0  0  0  0  0  0  0
   -0.3370   -8.5459   30.8881 H   0  0  0  0  0  0  0  0  0  0  0  0
    0.0741   -8.8692   28.2332 H   0  0  0  0  0  0  0  0  0  0  0  0
   -2.1894  -10.2898   26.2656 H   0  0  0  0  0  0  0  0  0  0  0  0
   -7.2452  -16.6068   20.6671 H   0  0  0  0  0  0  0  0  0  0  0  0
   -7.3551  -18.3803   20.6883 H   0  0  0  0  0  0  0  0  0  0  0  0
   -5.3371  -17.3124   18.7350 H   0  0  0  0  0  0  0  0  0  0  0  0
   -6.9639  -18.0050   18.4188 H   0  0  0  0  0  0  0  0  0  0  0  0
   -4.7409  -19.3307   18.8566 H   0  0  0  0  0  0  0  0  0  0  0  0
   -6.3039  -19.8685   19.3067 H   0  0  0  0  0  0  0  0  0  0  0  0
  1  2  1  0
  2  3  1  0
  3  4  1  0
  4  5  1  0
  5  6  2  0
  5  7  1  0
  7  8  1  0
  8  9  2  0
  9 10  1  0
 10 11  2  0
 11 12  1  0
 12 13  1  0
 13 14  2  0
 14 15  1  0
 15 16  2  0
  2 17  1  0
 17 18  1  0
 18 19  1  0
 19 20  1  0
 20  2  1  0
 16  8  1  0
 15 11  1  0
  1 21  1  0
  1 22  1  0
  1 23  1  0
  3 24  1  0
  3 25  1  0
  4 26  1  0
  7 27  1  0
  9 28  1  0
 10 29  1  0
 12 30  1  0
 13 31  1  0
 14 32  1  0
 16 33  1  0
 17 34  1  0
 17 35  1  0
 18 36  1  0
 18 37  1  0
 19 38  1  0
 19 39  1  0
M  END
>  <Energy>  (1164) 
531.72760104106464

>  <compound_id>  (1164) 
35915

>  <target_id>  (1164) 
1

>  <reference_id>  (1164) 
28

>  <inspiration_ids>  (1164) 
[28, 40]

>  <energy_score>  (1164) 
518.2201397786682

>  <distance_score>  (1164) 
8.814093571534835

>  <path>  (1164) 
/opt/xchem-fragalysis-2/maxwin/BulkDock/SCRATCH/511013/C35915-P28/C35915-P28.minimised.mol

>  <scratch_subdir>  (1164) 
/opt/xchem-fragalysis-2/maxwin/BulkDock/SCRATCH/511013/C35915-P28

>  <fragmenstein_runtime>  (1164) 
11.31961178779602

>  <fragmenstein_outcome>  (1164) 
too moved

>  <fragmenstein_mode>  (1164) 
expansion

>  <fragmenstein_error>  (1164) 


$$$$
C35915-P40
     RDKit          3D

 39 41  0  0  0  0  0  0  0  0999 V2000
   -7.5063  -19.0535   22.1644 C   0  0  0  0  0  0  0  0  0  0  0  0
   -6.7537  -17.8668   21.8197 C   0  0  0  0  0  0  0  0  0  0  0  0
   -7.2006  -16.8713   23.2248 C   0  0  0  0  0  0  0  0  0  0  0  0
   -7.0555  -15.2097   24.2390 N   0  0  0  0  0  0  0  0  0  0  0  0
   -7.7739  -14.7581   25.7603 C   0  0  0  0  0  0  0  0  0  0  0  0
   -8.5633  -15.3829   26.3852 O   0  0  0  0  0  0  0  0  0  0  0  0
   -7.0259  -13.3032   26.2561 N   0  0  0  0  0  0  0  0  0  0  0  0
   -7.2329  -12.4982   27.4090 C   0  0  0  0  0  0  0  0  0  0  0  0
   -7.4130  -11.1218   27.1588 C   0  0  0  0  0  0  0  0  0  0  0  0
   -7.6562  -10.1879   28.1711 C   0  0  0  0  0  0  0  0  0  0  0  0
   -7.5268  -10.6574   29.4737 C   0  0  0  0  0  0  0  0  0  0  0  0
   -7.5088   -9.9541   30.6559 N   0  0  0  0  0  0  0  0  0  0  0  0
   -7.2412  -10.8009   31.6953 C   0  0  0  0  0  0  0  0  0  0  0  0
   -7.1099  -12.0722   31.1814 C   0  0  0  0  0  0  0  0  0  0  0  0
   -7.2807  -12.0011   29.7704 C   0  0  0  0  0  0  0  0  0  0  0  0
   -7.2214  -12.9563   28.7212 C   0  0  0  0  0  0  0  0  0  0  0  0
   -6.5307  -17.2642   20.5209 C   0  0  0  0  0  0  0  0  0  0  0  0
   -6.1713  -18.1867   19.3863 C   0  0  0  0  0  0  0  0  0  0  0  0
   -5.4475  -19.1275   20.2176 C   0  0  0  0  0  0  0  0  0  0  0  0
   -5.6263  -18.6296   21.5580 O   0  0  0  0  0  0  0  0  0  0  0  0
   -6.9486  -19.6990   22.8190 H   0  0  0  0  0  0  0  0  0  0  0  0
   -7.7091  -19.5498   21.2291 H   0  0  0  0  0  0  0  0  0  0  0  0
   -8.3229  -18.8606   22.8083 H   0  0  0  0  0  0  0  0  0  0  0  0
   -8.0622  -16.7571   22.6605 H   0  0  0  0  0  0  0  0  0  0  0  0
   -6.6502  -17.6030   23.7998 H   0  0  0  0  0  0  0  0  0  0  0  0
   -6.4876  -14.4588   23.8975 H   0  0  0  0  0  0  0  0  0  0  0  0
   -6.4692  -12.9450   25.5075 H   0  0  0  0  0  0  0  0  0  0  0  0
   -7.3849  -10.7497   26.1382 H   0  0  0  0  0  0  0  0  0  0  0  0
   -7.7889   -9.1372   27.9466 H   0  0  0  0  0  0  0  0  0  0  0  0
   -7.5920   -8.9497   30.7234 H   0  0  0  0  0  0  0  0  0  0  0  0
   -7.1521  -10.4272   32.7060 H   0  0  0  0  0  0  0  0  0  0  0  0
   -6.8877  -12.9613   31.7557 H   0  0  0  0  0  0  0  0  0  0  0  0
   -7.0622  -14.0030   28.9486 H   0  0  0  0  0  0  0  0  0  0  0  0
   -5.5448  -16.8900   20.8217 H   0  0  0  0  0  0  0  0  0  0  0  0
   -7.1730  -16.4337   20.3368 H   0  0  0  0  0  0  0  0  0  0  0  0
   -5.4868  -17.7351   18.6747 H   0  0  0  0  0  0  0  0  0  0  0  0
   -6.9382  -18.6926   18.8258 H   0  0  0  0  0  0  0  0  0  0  0  0
   -5.7491  -20.1338   20.1332 H   0  0  0  0  0  0  0  0  0  0  0  0
   -4.4130  -19.1735   19.9652 H   0  0  0  0  0  0  0  0  0  0  0  0
  1  2  1  0
  2  3  1  0
  3  4  1  0
  4  5  1  0
  5  6  2  0
  5  7  1  0
  7  8  1  0
  8  9  2  0
  9 10  1  0
 10 11  2  0
 11 12  1  0
 12 13  1  0
 13 14  2  0
 14 15  1  0
 15 16  2  0
  2 17  1  0
 17 18  1  0
 18 19  1  0
 19 20  1  0
 20  2  1  0
 16  8  1  0
 15 11  1  0
  1 21  1  0
  1 22  1  0
  1 23  1  0
  3 24  1  0
  3 25  1  0
  4 26  1  0
  7 27  1  0
  9 28  1  0
 10 29  1  0
 12 30  1  0
 13 31  1  0
 14 32  1  0
 16 33  1  0
 17 34  1  0
 17 35  1  0
 18 36  1  0
 18 37  1  0
 19 38  1  0
 19 39  1  0
M  END
>  <Energy>  (1165) 
274.10213269446302

>  <compound_id>  (1165) 
35915

>  <target_id>  (1165) 
1

>  <reference_id>  (1165) 
40

>  <inspiration_ids>  (1165) 
[28, 40]

>  <energy_score>  (1165) 
260.5946714320591

>  <distance_score>  (1165) 
10.69677506736288

>  <path>  (1165) 
/opt/xchem-fragalysis-2/maxwin/BulkDock/SCRATCH/511013/C35915-P40/C35915-P40.minimised.mol

>  <scratch_subdir>  (1165) 
/opt/xchem-fragalysis-2/maxwin/BulkDock/SCRATCH/511013/C35915-P40

>  <fragmenstein_runtime>  (1165) 
12.31725788116455

>  <fragmenstein_outcome>  (1165) 
too moved

>  <fragmenstein_mode>  (1165) 
expansion

>  <fragmenstein_error>  (1165) 


$$$$
C35916-P28
     RDKit          3D

 46 49  0  0  0  0  0  0  0  0999 V2000
   -4.8662  -11.8748   15.2146 O   0  0  0  0  0  0  0  0  0  0  0  0
   -4.3524  -12.8613   15.6104 C   0  0  0  0  0  0  0  0  0  0  0  0
   -4.6891  -14.3333   15.3277 N   0  0  0  0  0  0  0  0  0  0  0  0
   -5.6925  -14.9440   14.3995 C   0  0  0  0  0  0  0  0  0  0  0  0
   -7.1134  -15.3737   14.9471 C   0  0  0  0  0  0  0  0  0  0  0  0
   -7.9069  -16.5657   14.2204 C   0  0  0  0  0  0  0  0  0  0  0  0
   -8.5720  -17.5982   15.6756 C   0  0  0  0  0  0  0  0  0  0  0  0
  -10.1250  -18.8995   15.5941 C   0  0  0  0  0  0  0  0  0  0  0  0
   -9.8408  -20.5592   15.8126 C   0  0  0  0  0  0  0  0  0  0  0  0
   -9.8289  -21.7995   14.9609 C   0  0  0  0  0  0  0  0  0  0  0  0
  -10.3763  -21.6718   13.7461 C   0  0  0  0  0  0  0  0  0  0  0  0
  -10.9175  -20.3756   13.5742 C   0  0  0  0  0  0  0  0  0  0  0  0
  -10.8192  -19.0058   14.2799 C   0  0  0  0  0  0  0  0  0  0  0  0
   -8.0516  -16.5851   16.9102 C   0  0  0  0  0  0  0  0  0  0  0  0
   -6.9991  -15.7132   16.3509 O   0  0  0  0  0  0  0  0  0  0  0  0
   -3.1170  -13.0426   16.5056 N   0  0  0  0  0  0  0  0  0  0  0  0
   -2.3016  -12.0733   17.1868 C   0  0  0  0  0  0  0  0  0  0  0  0
   -1.1562  -12.5553   17.8512 C   0  0  0  0  0  0  0  0  0  0  0  0
   -0.2579  -11.7329   18.5701 C   0  0  0  0  0  0  0  0  0  0  0  0
   -0.5604  -10.3749   18.6682 C   0  0  0  0  0  0  0  0  0  0  0  0
    0.0890   -9.3653   19.3458 N   0  0  0  0  0  0  0  0  0  0  0  0
   -0.6017   -8.1931   19.2061 C   0  0  0  0  0  0  0  0  0  0  0  0
   -1.7240   -8.4578   18.4485 C   0  0  0  0  0  0  0  0  0  0  0  0
   -1.7081   -9.8396   18.0790 C   0  0  0  0  0  0  0  0  0  0  0  0
   -2.5659  -10.6989   17.3060 C   0  0  0  0  0  0  0  0  0  0  0  0
   -4.1049  -14.9234   15.8904 H   0  0  0  0  0  0  0  0  0  0  0  0
   -5.1925  -15.8340   14.0030 H   0  0  0  0  0  0  0  0  0  0  0  0
   -5.8305  -14.2497   13.5636 H   0  0  0  0  0  0  0  0  0  0  0  0
   -7.7227  -14.4699   14.8415 H   0  0  0  0  0  0  0  0  0  0  0  0
   -8.7205  -16.1718   13.5960 H   0  0  0  0  0  0  0  0  0  0  0  0
   -7.2469  -17.1004   13.5308 H   0  0  0  0  0  0  0  0  0  0  0  0
   -7.8360  -17.9392   16.3486 H   0  0  0  0  0  0  0  0  0  0  0  0
   -9.4120  -20.7710   16.8309 H   0  0  0  0  0  0  0  0  0  0  0  0
   -9.4608  -22.7379   15.3506 H   0  0  0  0  0  0  0  0  0  0  0  0
  -10.6070  -22.5065   13.1027 H   0  0  0  0  0  0  0  0  0  0  0  0
  -11.8791  -20.5202   13.1361 H   0  0  0  0  0  0  0  0  0  0  0  0
  -11.0461  -18.0983   13.7516 H   0  0  0  0  0  0  0  0  0  0  0  0
   -7.6425  -17.2100   17.7388 H   0  0  0  0  0  0  0  0  0  0  0  0
   -8.7402  -16.0725   17.5672 H   0  0  0  0  0  0  0  0  0  0  0  0
   -2.9018  -14.0169   16.5828 H   0  0  0  0  0  0  0  0  0  0  0  0
   -0.9285  -13.6187   17.8130 H   0  0  0  0  0  0  0  0  0  0  0  0
    0.6069  -12.1618   19.0641 H   0  0  0  0  0  0  0  0  0  0  0  0
    0.9450   -9.4913   19.8690 H   0  0  0  0  0  0  0  0  0  0  0  0
   -0.2302   -7.2767   19.6381 H   0  0  0  0  0  0  0  0  0  0  0  0
   -2.4783   -7.7367   18.1631 H   0  0  0  0  0  0  0  0  0  0  0  0
   -3.4481  -10.2779   16.8331 H   0  0  0  0  0  0  0  0  0  0  0  0
  1  2  2  0
  2  3  1  0
  3  4  1  0
  4  5  1  0
  5  6  1  0
  6  7  1  0
  7  8  1  0
  8  9  2  0
  9 10  1  0
 10 11  2  0
 11 12  1  0
 12 13  2  0
  7 14  1  0
 14 15  1  0
  2 16  1  0
 16 17  1  0
 17 18  2  0
 18 19  1  0
 19 20  2  0
 20 21  1  0
 21 22  1  0
 22 23  2  0
 23 24  1  0
 24 25  2  0
 15  5  1  0
 25 17  1  0
 13  8  1  0
 24 20  1  0
  3 26  1  0
  4 27  1  0
  4 28  1  0
  5 29  1  0
  6 30  1  0
  6 31  1  0
  7 32  1  0
  9 33  1  0
 10 34  1  0
 11 35  1  0
 12 36  1  0
 13 37  1  0
 14 38  1  0
 14 39  1  0
 16 40  1  0
 18 41  1  0
 19 42  1  0
 21 43  1  0
 22 44  1  0
 23 45  1  0
 25 46  1  0
M  END
>  <Energy>  (1166) 
313.64669505684054

>  <compound_id>  (1166) 
35916

>  <target_id>  (1166) 
1

>  <reference_id>  (1166) 
28

>  <inspiration_ids>  (1166) 
[28, 40]

>  <energy_score>  (1166) 
267.8550749424303

>  <distance_score>  (1166) 
11.22800014471073

>  <path>  (1166) 
/opt/xchem-fragalysis-2/maxwin/BulkDock/SCRATCH/511013/C35916-P28/C35916-P28.minimised.mol

>  <scratch_subdir>  (1166) 
/opt/xchem-fragalysis-2/maxwin/BulkDock/SCRATCH/511013/C35916-P28

>  <fragmenstein_runtime>  (1166) 
19.46074867248535

>  <fragmenstein_outcome>  (1166) 
too moved

>  <fragmenstein_mode>  (1166) 
expansion

>  <fragmenstein_error>  (1166) 


$$$$
C35916-P40
     RDKit          3D

 46 49  0  0  0  0  0  0  0  0999 V2000
   -7.5026  -11.5236   22.5343 O   0  0  0  0  0  0  0  0  0  0  0  0
   -8.6659  -11.8031   22.5221 C   0  0  0  0  0  0  0  0  0  0  0  0
   -9.4967  -12.9285   21.3391 N   0  0  0  0  0  0  0  0  0  0  0  0
   -8.8425  -13.7945   19.8106 C   0  0  0  0  0  0  0  0  0  0  0  0
   -8.8159  -15.7332   19.1138 C   0  0  0  0  0  0  0  0  0  0  0  0
   -8.7437  -16.4208   17.5781 C   0  0  0  0  0  0  0  0  0  0  0  0
   -9.2091  -18.3116   17.2056 C   0  0  0  0  0  0  0  0  0  0  0  0
   -9.7898  -19.6305   15.7881 C   0  0  0  0  0  0  0  0  0  0  0  0
   -9.4938  -21.1470   16.1129 C   0  0  0  0  0  0  0  0  0  0  0  0
   -9.3346  -22.3523   15.2006 C   0  0  0  0  0  0  0  0  0  0  0  0
   -9.6712  -22.3684   13.8934 C   0  0  0  0  0  0  0  0  0  0  0  0
  -10.2241  -21.1876   13.4741 C   0  0  0  0  0  0  0  0  0  0  0  0
  -10.3473  -19.8738   14.2700 C   0  0  0  0  0  0  0  0  0  0  0  0
   -7.5134  -18.0801   17.9397 C   0  0  0  0  0  0  0  0  0  0  0  0
   -7.3206  -16.9001   19.1138 O   0  0  0  0  0  0  0  0  0  0  0  0
   -9.9057  -11.1046   23.5349 N   0  0  0  0  0  0  0  0  0  0  0  0
   -9.8269  -10.0215   24.5349 C   0  0  0  0  0  0  0  0  0  0  0  0
  -10.8903   -9.2075   24.8856 C   0  0  0  0  0  0  0  0  0  0  0  0
  -10.7136   -8.0591   25.7190 C   0  0  0  0  0  0  0  0  0  0  0  0
   -9.4395   -7.7492   26.2330 C   0  0  0  0  0  0  0  0  0  0  0  0
   -8.9809   -6.7100   27.0149 N   0  0  0  0  0  0  0  0  0  0  0  0
   -7.6442   -6.8654   27.2873 C   0  0  0  0  0  0  0  0  0  0  0  0
   -7.2319   -8.0242   26.6729 C   0  0  0  0  0  0  0  0  0  0  0  0
   -8.3545   -8.5709   25.9868 C   0  0  0  0  0  0  0  0  0  0  0  0
   -8.5763   -9.6921   25.1504 C   0  0  0  0  0  0  0  0  0  0  0  0
  -10.4604  -13.0665   21.6138 H   0  0  0  0  0  0  0  0  0  0  0  0
   -9.6909  -13.3868   19.2517 H   0  0  0  0  0  0  0  0  0  0  0  0
   -8.0247  -13.1765   19.4229 H   0  0  0  0  0  0  0  0  0  0  0  0
   -9.4322  -16.0841   19.8918 H   0  0  0  0  0  0  0  0  0  0  0  0
   -8.0410  -16.1147   16.7981 H   0  0  0  0  0  0  0  0  0  0  0  0
   -9.6505  -15.9593   17.6250 H   0  0  0  0  0  0  0  0  0  0  0  0
  -10.0558  -18.2979   17.8134 H   0  0  0  0  0  0  0  0  0  0  0  0
   -9.0701  -21.1925   17.1254 H   0  0  0  0  0  0  0  0  0  0  0  0
   -8.9613  -23.2882   15.5688 H   0  0  0  0  0  0  0  0  0  0  0  0
   -9.5829  -23.2419   13.2653 H   0  0  0  0  0  0  0  0  0  0  0  0
  -10.4901  -21.3221   12.4686 H   0  0  0  0  0  0  0  0  0  0  0  0
  -10.7542  -18.9885   13.7939 H   0  0  0  0  0  0  0  0  0  0  0  0
   -7.2273  -17.5448   17.1267 H   0  0  0  0  0  0  0  0  0  0  0  0
   -6.9905  -18.9496   18.3349 H   0  0  0  0  0  0  0  0  0  0  0  0
  -10.8105  -11.4638   23.2556 H   0  0  0  0  0  0  0  0  0  0  0  0
  -11.8786   -9.3986   24.4758 H   0  0  0  0  0  0  0  0  0  0  0  0
  -11.5667   -7.4218   25.9363 H   0  0  0  0  0  0  0  0  0  0  0  0
   -9.5589   -5.9556   27.3573 H   0  0  0  0  0  0  0  0  0  0  0  0
   -7.1249   -6.1543   27.9136 H   0  0  0  0  0  0  0  0  0  0  0  0
   -6.2386   -8.4431   26.7152 H   0  0  0  0  0  0  0  0  0  0  0  0
   -7.6854  -10.2834   24.9781 H   0  0  0  0  0  0  0  0  0  0  0  0
  1  2  2  0
  2  3  1  0
  3  4  1  0
  4  5  1  0
  5  6  1  0
  6  7  1  0
  7  8  1  0
  8  9  2  0
  9 10  1  0
 10 11  2  0
 11 12  1  0
 12 13  2  0
  7 14  1  0
 14 15  1  0
  2 16  1  0
 16 17  1  0
 17 18  2  0
 18 19  1  0
 19 20  2  0
 20 21  1  0
 21 22  1  0
 22 23  2  0
 23 24  1  0
 24 25  2  0
 15  5  1  0
 25 17  1  0
 13  8  1  0
 24 20  1  0
  3 26  1  0
  4 27  1  0
  4 28  1  0
  5 29  1  0
  6 30  1  0
  6 31  1  0
  7 32  1  0
  9 33  1  0
 10 34  1  0
 11 35  1  0
 12 36  1  0
 13 37  1  0
 14 38  1  0
 14 39  1  0
 16 40  1  0
 18 41  1  0
 19 42  1  0
 21 43  1  0
 22 44  1  0
 23 45  1  0
 25 46  1  0
M  END
>  <Energy>  (1167) 
676.71656667361322

>  <compound_id>  (1167) 
35916

>  <target_id>  (1167) 
1

>  <reference_id>  (1167) 
40

>  <inspiration_ids>  (1167) 
[28, 40]

>  <energy_score>  (1167) 
630.9249465592121

>  <distance_score>  (1167) 
9.947034529444528

>  <path>  (1167) 
/opt/xchem-fragalysis-2/maxwin/BulkDock/SCRATCH/511013/C35916-P40/C35916-P40.minimised.mol

>  <scratch_subdir>  (1167) 
/opt/xchem-fragalysis-2/maxwin/BulkDock/SCRATCH/511013/C35916-P40

>  <fragmenstein_runtime>  (1167) 
14.339837074279785

>  <fragmenstein_outcome>  (1167) 
too moved

>  <fragmenstein_mode>  (1167) 
expansion

>  <fragmenstein_error>  (1167) 


$$$$
C35917-P28
     RDKit          3D

 40 42  0  0  0  0  0  0  0  0999 V2000
  -10.8718  -20.2184   13.6060 N   0  0  0  0  0  0  0  0  0  0  0  0
  -10.5273  -21.5622   13.8330 C   0  0  0  0  0  0  0  0  0  0  0  0
  -10.6633  -22.5321   13.1414 O   0  0  0  0  0  0  0  0  0  0  0  0
   -9.8248  -21.6712   15.3447 C   0  0  0  0  0  0  0  0  0  0  0  0
   -9.0471  -22.8515   15.1509 C   0  0  0  0  0  0  0  0  0  0  0  0
   -7.8704  -22.2621   15.7430 C   0  0  0  0  0  0  0  0  0  0  0  0
   -7.8631  -20.9090   17.4304 C   0  0  0  0  0  0  0  0  0  0  0  0
   -7.0056  -19.4113   18.7285 C   0  0  0  0  0  0  0  0  0  0  0  0
   -5.6812  -18.3578   19.8067 N   0  0  0  0  0  0  0  0  0  0  0  0
   -5.7538  -17.6972   21.5886 C   0  0  0  0  0  0  0  0  0  0  0  0
   -6.6702  -17.9584   22.3233 O   0  0  0  0  0  0  0  0  0  0  0  0
   -4.2915  -16.5189   22.1001 N   0  0  0  0  0  0  0  0  0  0  0  0
   -3.8441  -15.6058   23.8557 C   0  0  0  0  0  0  0  0  0  0  0  0
   -2.7930  -16.2196   25.1607 C   0  0  0  0  0  0  0  0  0  0  0  0
   -1.7072  -16.1427   26.3860 C   0  0  0  0  0  0  0  0  0  0  0  0
   -1.7224  -14.8747   26.7956 C   0  0  0  0  0  0  0  0  0  0  0  0
   -2.1542  -14.3679   28.0013 N   0  0  0  0  0  0  0  0  0  0  0  0
   -2.8615  -13.2064   27.7609 C   0  0  0  0  0  0  0  0  0  0  0  0
   -2.6154  -12.8897   26.4408 C   0  0  0  0  0  0  0  0  0  0  0  0
   -1.9847  -14.0142   25.7491 C   0  0  0  0  0  0  0  0  0  0  0  0
   -2.5470  -14.8356   24.3651 C   0  0  0  0  0  0  0  0  0  0  0  0
   -9.4828  -20.7239   16.6495 O   0  0  0  0  0  0  0  0  0  0  0  0
  -10.5033  -19.6500   14.3694 H   0  0  0  0  0  0  0  0  0  0  0  0
  -10.7106  -19.6853   14.4663 H   0  0  0  0  0  0  0  0  0  0  0  0
  -10.4293  -22.3127   15.8450 H   0  0  0  0  0  0  0  0  0  0  0  0
   -8.9107  -23.0805   14.0940 H   0  0  0  0  0  0  0  0  0  0  0  0
   -9.4087  -23.7948   15.5440 H   0  0  0  0  0  0  0  0  0  0  0  0
   -7.3490  -23.1983   15.9043 H   0  0  0  0  0  0  0  0  0  0  0  0
   -7.5762  -21.8320   14.7309 H   0  0  0  0  0  0  0  0  0  0  0  0
   -8.5628  -21.1343   18.2299 H   0  0  0  0  0  0  0  0  0  0  0  0
   -7.6004  -19.4757   19.6407 H   0  0  0  0  0  0  0  0  0  0  0  0
   -7.2912  -18.5228   18.1532 H   0  0  0  0  0  0  0  0  0  0  0  0
   -4.8812  -17.9580   19.3376 H   0  0  0  0  0  0  0  0  0  0  0  0
   -3.5935  -16.5067   21.3669 H   0  0  0  0  0  0  0  0  0  0  0  0
   -2.6477  -17.3042   25.3093 H   0  0  0  0  0  0  0  0  0  0  0  0
   -1.5618  -17.0231   27.0045 H   0  0  0  0  0  0  0  0  0  0  0  0
   -2.1798  -14.8658   28.8812 H   0  0  0  0  0  0  0  0  0  0  0  0
   -3.4149  -12.6996   28.5422 H   0  0  0  0  0  0  0  0  0  0  0  0
   -3.0842  -12.0668   25.9220 H   0  0  0  0  0  0  0  0  0  0  0  0
   -1.5678  -14.8345   23.8183 H   0  0  0  0  0  0  0  0  0  0  0  0
  1  2  1  0
  2  3  2  0
  2  4  1  0
  4  5  1  0
  5  6  1  0
  6  7  1  0
  7  8  1  0
  8  9  1  0
  9 10  1  0
 10 11  2  0
 10 12  1  0
 12 13  1  0
 13 14  2  0
 14 15  1  0
 15 16  2  0
 16 17  1  0
 17 18  1  0
 18 19  2  0
 19 20  1  0
 20 21  2  0
  7 22  1  0
 22  4  1  0
 21 13  1  0
 20 16  1  0
  1 23  1  0
  1 24  1  0
  4 25  1  0
  5 26  1  0
  5 27  1  0
  6 28  1  0
  6 29  1  0
  7 30  1  0
  8 31  1  0
  8 32  1  0
  9 33  1  0
 12 34  1  0
 14 35  1  0
 15 36  1  0
 17 37  1  0
 18 38  1  0
 19 39  1  0
 21 40  1  0
M  END
>  <Energy>  (1168) 
1341.6343197690253

>  <compound_id>  (1168) 
35917

>  <target_id>  (1168) 
1

>  <reference_id>  (1168) 
28

>  <inspiration_ids>  (1168) 
[28, 40]

>  <energy_score>  (1168) 
1288.6451382925627

>  <distance_score>  (1168) 
9.709068760311064

>  <path>  (1168) 
/opt/xchem-fragalysis-2/maxwin/BulkDock/SCRATCH/511013/C35917-P28/C35917-P28.minimised.mol

>  <scratch_subdir>  (1168) 
/opt/xchem-fragalysis-2/maxwin/BulkDock/SCRATCH/511013/C35917-P28

>  <fragmenstein_runtime>  (1168) 
10.692693710327148

>  <fragmenstein_outcome>  (1168) 
too moved

>  <fragmenstein_mode>  (1168) 
expansion

>  <fragmenstein_error>  (1168) 


$$$$
C35917-P40
     RDKit          3D

 40 42  0  0  0  0  0  0  0  0999 V2000
  -10.0589  -20.3396   14.9035 N   0  0  0  0  0  0  0  0  0  0  0  0
   -9.4917  -20.7860   16.1841 C   0  0  0  0  0  0  0  0  0  0  0  0
   -9.2853  -21.8753   16.5012 O   0  0  0  0  0  0  0  0  0  0  0  0
   -8.7787  -19.4971   17.6082 C   0  0  0  0  0  0  0  0  0  0  0  0
   -9.4639  -18.3034   17.2674 C   0  0  0  0  0  0  0  0  0  0  0  0
   -8.5569  -16.5815   17.4643 C   0  0  0  0  0  0  0  0  0  0  0  0
   -8.5280  -16.1016   18.9679 C   0  0  0  0  0  0  0  0  0  0  0  0
   -8.8919  -14.0690   19.6776 C   0  0  0  0  0  0  0  0  0  0  0  0
   -9.5195  -13.0556   21.2605 N   0  0  0  0  0  0  0  0  0  0  0  0
   -8.6315  -11.9115   22.4359 C   0  0  0  0  0  0  0  0  0  0  0  0
   -7.4604  -11.6426   22.4950 O   0  0  0  0  0  0  0  0  0  0  0  0
   -9.9379  -11.1589   23.4073 N   0  0  0  0  0  0  0  0  0  0  0  0
   -9.8681  -10.1750   24.5046 C   0  0  0  0  0  0  0  0  0  0  0  0
  -10.0096  -10.6121   25.8306 C   0  0  0  0  0  0  0  0  0  0  0  0
   -9.3601   -9.9727   26.9189 C   0  0  0  0  0  0  0  0  0  0  0  0
   -8.6178   -8.8171   26.6623 C   0  0  0  0  0  0  0  0  0  0  0  0
   -7.7953   -8.0647   27.4738 N   0  0  0  0  0  0  0  0  0  0  0  0
   -7.3910   -6.9377   26.8070 C   0  0  0  0  0  0  0  0  0  0  0  0
   -7.8494   -7.0317   25.5118 C   0  0  0  0  0  0  0  0  0  0  0  0
   -8.6162   -8.2320   25.4023 C   0  0  0  0  0  0  0  0  0  0  0  0
   -9.2747   -8.9178   24.3343 C   0  0  0  0  0  0  0  0  0  0  0  0
   -7.8048  -17.7539   18.0158 O   0  0  0  0  0  0  0  0  0  0  0  0
  -10.0264  -19.3618   14.8736 H   0  0  0  0  0  0  0  0  0  0  0  0
  -10.2337  -19.3388   14.9581 H   0  0  0  0  0  0  0  0  0  0  0  0
   -7.8258  -19.9586   17.8881 H   0  0  0  0  0  0  0  0  0  0  0  0
  -10.3738  -17.9908   17.8149 H   0  0  0  0  0  0  0  0  0  0  0  0
   -9.8521  -18.4649   16.2714 H   0  0  0  0  0  0  0  0  0  0  0  0
   -7.8546  -16.3393   16.6381 H   0  0  0  0  0  0  0  0  0  0  0  0
   -9.3516  -15.9259   17.5330 H   0  0  0  0  0  0  0  0  0  0  0  0
   -7.6265  -16.3280   19.6734 H   0  0  0  0  0  0  0  0  0  0  0  0
   -9.8905  -13.8867   19.2665 H   0  0  0  0  0  0  0  0  0  0  0  0
   -8.3004  -13.2811   19.1724 H   0  0  0  0  0  0  0  0  0  0  0  0
  -10.4852  -13.1557   21.5146 H   0  0  0  0  0  0  0  0  0  0  0  0
  -10.8163  -11.6290   23.2174 H   0  0  0  0  0  0  0  0  0  0  0  0
  -10.4900  -11.5674   26.0303 H   0  0  0  0  0  0  0  0  0  0  0  0
   -9.3846  -10.4197   27.9081 H   0  0  0  0  0  0  0  0  0  0  0  0
   -7.5564   -8.3061   28.4275 H   0  0  0  0  0  0  0  0  0  0  0  0
   -6.8149   -6.1762   27.3089 H   0  0  0  0  0  0  0  0  0  0  0  0
   -7.6573   -6.3196   24.7206 H   0  0  0  0  0  0  0  0  0  0  0  0
   -9.2350   -8.4821   23.3458 H   0  0  0  0  0  0  0  0  0  0  0  0
  1  2  1  0
  2  3  2  0
  2  4  1  0
  4  5  1  0
  5  6  1  0
  6  7  1  0
  7  8  1  0
  8  9  1  0
  9 10  1  0
 10 11  2  0
 10 12  1  0
 12 13  1  0
 13 14  2  0
 14 15  1  0
 15 16  2  0
 16 17  1  0
 17 18  1  0
 18 19  2  0
 19 20  1  0
 20 21  2  0
  7 22  1  0
 22  4  1  0
 21 13  1  0
 20 16  1  0
  1 23  1  0
  1 24  1  0
  4 25  1  0
  5 26  1  0
  5 27  1  0
  6 28  1  0
  6 29  1  0
  7 30  1  0
  8 31  1  0
  8 32  1  0
  9 33  1  0
 12 34  1  0
 14 35  1  0
 15 36  1  0
 17 37  1  0
 18 38  1  0
 19 39  1  0
 21 40  1  0
M  END
>  <Energy>  (1169) 
1099.6437026037643

>  <compound_id>  (1169) 
35917

>  <target_id>  (1169) 
1

>  <reference_id>  (1169) 
40

>  <inspiration_ids>  (1169) 
[28, 40]

>  <energy_score>  (1169) 
1046.6545211273078

>  <distance_score>  (1169) 
10.24435675586871

>  <path>  (1169) 
/opt/xchem-fragalysis-2/maxwin/BulkDock/SCRATCH/511013/C35917-P40/C35917-P40.minimised.mol

>  <scratch_subdir>  (1169) 
/opt/xchem-fragalysis-2/maxwin/BulkDock/SCRATCH/511013/C35917-P40

>  <fragmenstein_runtime>  (1169) 
8.544190883636475

>  <fragmenstein_outcome>  (1169) 
too moved

>  <fragmenstein_mode>  (1169) 
expansion

>  <fragmenstein_error>  (1169) 


$$$$
C35918-P28
     RDKit          3D

 43 46  0  0  0  0  0  0  0  0999 V2000
   -2.6849  -22.2160   27.4640 O   0  0  0  0  0  0  0  0  0  0  0  0
   -3.7676  -21.8853   27.7780 C   0  0  0  0  0  0  0  0  0  0  0  0
   -4.2422  -20.6085   28.4532 N   0  0  0  0  0  0  0  0  0  0  0  0
   -3.5274  -19.4185   28.8064 C   0  0  0  0  0  0  0  0  0  0  0  0
   -4.1203  -18.4178   29.5965 C   0  0  0  0  0  0  0  0  0  0  0  0
   -3.5963  -17.1033   29.6859 C   0  0  0  0  0  0  0  0  0  0  0  0
   -2.5297  -16.7896   28.8383 C   0  0  0  0  0  0  0  0  0  0  0  0
   -1.9871  -15.5751   28.4802 N   0  0  0  0  0  0  0  0  0  0  0  0
   -1.1754  -15.7446   27.3810 C   0  0  0  0  0  0  0  0  0  0  0  0
   -0.9406  -17.0897   27.2478 C   0  0  0  0  0  0  0  0  0  0  0  0
   -1.8747  -17.7618   28.0858 C   0  0  0  0  0  0  0  0  0  0  0  0
   -2.3137  -19.1103   28.1625 C   0  0  0  0  0  0  0  0  0  0  0  0
   -5.1158  -22.5862   27.5235 N   0  0  0  0  0  0  0  0  0  0  0  0
   -5.4256  -23.9232   26.8989 C   0  0  0  0  0  0  0  0  0  0  0  0
   -5.3667  -24.9784   27.9988 C   0  0  0  0  0  0  0  0  0  0  0  0
   -6.4698  -25.9419   27.6480 C   0  0  0  0  0  0  0  0  0  0  0  0
   -7.4996  -25.1275   27.0842 O   0  0  0  0  0  0  0  0  0  0  0  0
   -6.8420  -24.1687   26.2089 C   0  0  0  0  0  0  0  0  0  0  0  0
   -7.0354  -24.7200   24.7609 C   0  0  0  0  0  0  0  0  0  0  0  0
   -8.4274  -24.8790   24.3191 C   0  0  0  0  0  0  0  0  0  0  0  0
   -8.7505  -25.4373   23.1391 C   0  0  0  0  0  0  0  0  0  0  0  0
   -7.6771  -25.9156   22.2387 C   0  0  0  0  0  0  0  0  0  0  0  0
   -7.9296  -26.5338   21.2141 O   0  0  0  0  0  0  0  0  0  0  0  0
   -6.4000  -25.6345   22.6528 N   0  0  0  0  0  0  0  0  0  0  0  0
   -6.0845  -25.0929   23.8825 C   0  0  0  0  0  0  0  0  0  0  0  0
   -5.2191  -20.6823   28.6536 H   0  0  0  0  0  0  0  0  0  0  0  0
   -5.0463  -18.6326   30.1240 H   0  0  0  0  0  0  0  0  0  0  0  0
   -4.1073  -16.3396   30.2623 H   0  0  0  0  0  0  0  0  0  0  0  0
   -2.2787  -14.6831   28.8613 H   0  0  0  0  0  0  0  0  0  0  0  0
   -0.8020  -14.8981   26.8200 H   0  0  0  0  0  0  0  0  0  0  0  0
   -0.2982  -17.5474   26.5099 H   0  0  0  0  0  0  0  0  0  0  0  0
   -1.8425  -19.8401   27.5108 H   0  0  0  0  0  0  0  0  0  0  0  0
   -5.8620  -22.0003   27.8513 H   0  0  0  0  0  0  0  0  0  0  0  0
   -4.6315  -24.1185   26.1813 H   0  0  0  0  0  0  0  0  0  0  0  0
   -4.3901  -25.4668   28.0708 H   0  0  0  0  0  0  0  0  0  0  0  0
   -5.5818  -24.5285   28.9764 H   0  0  0  0  0  0  0  0  0  0  0  0
   -6.8566  -26.4733   28.5218 H   0  0  0  0  0  0  0  0  0  0  0  0
   -6.1465  -26.6782   26.9038 H   0  0  0  0  0  0  0  0  0  0  0  0
   -7.4306  -23.2543   26.3015 H   0  0  0  0  0  0  0  0  0  0  0  0
   -9.2132  -24.5526   24.9951 H   0  0  0  0  0  0  0  0  0  0  0  0
   -9.7721  -25.5850   22.8183 H   0  0  0  0  0  0  0  0  0  0  0  0
   -5.6560  -25.9608   22.0467 H   0  0  0  0  0  0  0  0  0  0  0  0
   -5.0242  -25.0351   24.1010 H   0  0  0  0  0  0  0  0  0  0  0  0
  1  2  2  0
  2  3  1  0
  3  4  1  0
  4  5  2  0
  5  6  1  0
  6  7  2  0
  7  8  1  0
  8  9  1  0
  9 10  2  0
 10 11  1  0
 11 12  2  0
  2 13  1  0
 13 14  1  0
 14 15  1  0
 15 16  1  0
 16 17  1  0
 17 18  1  0
 18 19  1  0
 19 20  1  0
 20 21  2  0
 21 22  1  0
 22 23  2  0
 22 24  1  0
 24 25  1  0
 12  4  1  0
 18 14  1  0
 25 19  2  0
 11  7  1  0
  3 26  1  0
  5 27  1  0
  6 28  1  0
  8 29  1  0
  9 30  1  0
 10 31  1  0
 12 32  1  0
 13 33  1  0
 14 34  1  0
 15 35  1  0
 15 36  1  0
 16 37  1  0
 16 38  1  0
 18 39  1  0
 20 40  1  0
 21 41  1  0
 24 42  1  0
 25 43  1  0
M  END
>  <Energy>  (1170) 
9.8764178456324316

>  <compound_id>  (1170) 
35918

>  <target_id>  (1170) 
1

>  <reference_id>  (1170) 
28

>  <inspiration_ids>  (1170) 
[28, 40]

>  <energy_score>  (1170) 
-45.08244338004371

>  <distance_score>  (1170) 
13.642427961693205

>  <path>  (1170) 
/opt/xchem-fragalysis-2/maxwin/BulkDock/SCRATCH/511013/C35918-P28/C35918-P28.minimised.mol

>  <scratch_subdir>  (1170) 
/opt/xchem-fragalysis-2/maxwin/BulkDock/SCRATCH/511013/C35918-P28

>  <fragmenstein_runtime>  (1170) 
8.939070224761963

>  <fragmenstein_outcome>  (1170) 
too moved

>  <fragmenstein_mode>  (1170) 
expansion

>  <fragmenstein_error>  (1170) 


$$$$
C35918-P40
     RDKit          3D

 43 46  0  0  0  0  0  0  0  0999 V2000
    1.0315  -16.2731   17.0687 O   0  0  0  0  0  0  0  0  0  0  0  0
   -0.0740  -15.8822   16.9767 C   0  0  0  0  0  0  0  0  0  0  0  0
   -0.7922  -14.7784   17.7607 N   0  0  0  0  0  0  0  0  0  0  0  0
   -0.3035  -13.8711   18.7564 C   0  0  0  0  0  0  0  0  0  0  0  0
   -0.9872  -12.6739   19.0240 C   0  0  0  0  0  0  0  0  0  0  0  0
   -0.5359  -11.7279   19.9763 C   0  0  0  0  0  0  0  0  0  0  0  0
    0.5915  -12.0521   20.7385 C   0  0  0  0  0  0  0  0  0  0  0  0
    1.2027  -11.3959   21.7839 N   0  0  0  0  0  0  0  0  0  0  0  0
    2.2804  -12.1115   22.2343 C   0  0  0  0  0  0  0  0  0  0  0  0
    2.3725  -13.2472   21.4658 C   0  0  0  0  0  0  0  0  0  0  0  0
    1.3000  -13.2333   20.5250 C   0  0  0  0  0  0  0  0  0  0  0  0
    0.8611  -14.1253   19.5032 C   0  0  0  0  0  0  0  0  0  0  0  0
   -1.1670  -16.2639   15.9703 N   0  0  0  0  0  0  0  0  0  0  0  0
   -1.1171  -17.1384   14.7876 C   0  0  0  0  0  0  0  0  0  0  0  0
    0.0854  -18.0407   14.6278 C   0  0  0  0  0  0  0  0  0  0  0  0
   -0.1411  -18.5932   13.2235 C   0  0  0  0  0  0  0  0  0  0  0  0
   -1.4902  -18.2460   12.8192 O   0  0  0  0  0  0  0  0  0  0  0  0
   -2.2518  -17.9675   14.0565 C   0  0  0  0  0  0  0  0  0  0  0  0
   -2.8608  -19.3556   14.3434 C   0  0  0  0  0  0  0  0  0  0  0  0
   -2.5860  -20.0836   15.5663 C   0  0  0  0  0  0  0  0  0  0  0  0
   -3.0129  -21.3496   15.7366 C   0  0  0  0  0  0  0  0  0  0  0  0
   -3.7789  -22.0407   14.6689 C   0  0  0  0  0  0  0  0  0  0  0  0
   -4.1108  -23.2139   14.7736 O   0  0  0  0  0  0  0  0  0  0  0  0
   -4.0567  -21.2747   13.5644 N   0  0  0  0  0  0  0  0  0  0  0  0
   -3.6013  -19.9872   13.3985 C   0  0  0  0  0  0  0  0  0  0  0  0
   -1.7070  -14.6402   17.3775 H   0  0  0  0  0  0  0  0  0  0  0  0
   -1.8834  -12.4293   18.4582 H   0  0  0  0  0  0  0  0  0  0  0  0
   -1.0822  -10.8048   20.1361 H   0  0  0  0  0  0  0  0  0  0  0  0
    0.8726  -10.5448   22.2251 H   0  0  0  0  0  0  0  0  0  0  0  0
    2.8655  -11.7549   23.0723 H   0  0  0  0  0  0  0  0  0  0  0  0
    3.1188  -14.0220   21.5770 H   0  0  0  0  0  0  0  0  0  0  0  0
    1.4304  -15.0343   19.3297 H   0  0  0  0  0  0  0  0  0  0  0  0
   -1.9728  -15.6841   16.1186 H   0  0  0  0  0  0  0  0  0  0  0  0
   -0.9251  -16.3352   14.0526 H   0  0  0  0  0  0  0  0  0  0  0  0
    0.0999  -18.8391   15.3763 H   0  0  0  0  0  0  0  0  0  0  0  0
    1.0423  -17.5138   14.6918 H   0  0  0  0  0  0  0  0  0  0  0  0
    0.5469  -18.1494   12.4975 H   0  0  0  0  0  0  0  0  0  0  0  0
   -0.0245  -19.6812   13.1917 H   0  0  0  0  0  0  0  0  0  0  0  0
   -3.0660  -17.2824   13.7904 H   0  0  0  0  0  0  0  0  0  0  0  0
   -2.0366  -19.5803   16.3522 H   0  0  0  0  0  0  0  0  0  0  0  0
   -2.8365  -21.9137   16.6424 H   0  0  0  0  0  0  0  0  0  0  0  0
   -4.5686  -21.7384   12.8268 H   0  0  0  0  0  0  0  0  0  0  0  0
   -3.8311  -19.5220   12.4442 H   0  0  0  0  0  0  0  0  0  0  0  0
  1  2  2  0
  2  3  1  0
  3  4  1  0
  4  5  2  0
  5  6  1  0
  6  7  2  0
  7  8  1  0
  8  9  1  0
  9 10  2  0
 10 11  1  0
 11 12  2  0
  2 13  1  0
 13 14  1  0
 14 15  1  0
 15 16  1  0
 16 17  1  0
 17 18  1  0
 18 19  1  0
 19 20  1  0
 20 21  2  0
 21 22  1  0
 22 23  2  0
 22 24  1  0
 24 25  1  0
 12  4  1  0
 18 14  1  0
 25 19  2  0
 11  7  1  0
  3 26  1  0
  5 27  1  0
  6 28  1  0
  8 29  1  0
  9 30  1  0
 10 31  1  0
 12 32  1  0
 13 33  1  0
 14 34  1  0
 15 35  1  0
 15 36  1  0
 16 37  1  0
 16 38  1  0
 18 39  1  0
 20 40  1  0
 21 41  1  0
 24 42  1  0
 25 43  1  0
M  END
>  <Energy>  (1171) 
24.177612120034166

>  <compound_id>  (1171) 
35918

>  <target_id>  (1171) 
1

>  <reference_id>  (1171) 
40

>  <inspiration_ids>  (1171) 
[28, 40]

>  <energy_score>  (1171) 
-30.781249105642758

>  <distance_score>  (1171) 
12.980459923777522

>  <path>  (1171) 
/opt/xchem-fragalysis-2/maxwin/BulkDock/SCRATCH/511013/C35918-P40/C35918-P40.minimised.mol

>  <scratch_subdir>  (1171) 
/opt/xchem-fragalysis-2/maxwin/BulkDock/SCRATCH/511013/C35918-P40

>  <fragmenstein_runtime>  (1171) 
14.0501549243927

>  <fragmenstein_outcome>  (1171) 
too moved

>  <fragmenstein_mode>  (1171) 
expansion

>  <fragmenstein_error>  (1171) 


$$$$
C35921-P28
     RDKit          3D

 45 47  0  0  0  0  0  0  0  0999 V2000
   -6.1710  -18.7688   18.8370 C   0  0  0  0  0  0  0  0  0  0  0  0
   -7.1688  -19.3711   19.7564 N   0  0  0  0  0  0  0  0  0  0  0  0
   -7.6036  -20.6509   19.1358 C   0  0  0  0  0  0  0  0  0  0  0  0
   -6.7108  -19.5973   21.3459 S   0  0  0  0  0  0  0  0  0  0  0  0
   -5.4872  -20.2654   20.8863 O   0  0  0  0  0  0  0  0  0  0  0  0
   -7.6106  -20.4840   22.0532 O   0  0  0  0  0  0  0  0  0  0  0  0
   -6.3669  -17.8359   22.5409 C   0  0  0  0  0  0  0  0  0  0  0  0
   -7.3276  -16.6052   23.8433 C   0  0  0  0  0  0  0  0  0  0  0  0
   -8.2096  -16.9807   22.8265 C   0  0  0  0  0  0  0  0  0  0  0  0
   -9.6527  -16.4362   24.0325 O   0  0  0  0  0  0  0  0  0  0  0  0
   -9.0747  -15.8668   25.5906 C   0  0  0  0  0  0  0  0  0  0  0  0
   -7.8341  -15.0315   25.3352 C   0  0  0  0  0  0  0  0  0  0  0  0
   -7.4136  -14.0800   27.1662 N   0  0  0  0  0  0  0  0  0  0  0  0
   -6.3897  -12.5795   27.6072 C   0  0  0  0  0  0  0  0  0  0  0  0
   -5.9749  -11.9366   26.7142 O   0  0  0  0  0  0  0  0  0  0  0  0
   -5.5389  -11.8739   29.4323 C   0  0  0  0  0  0  0  0  0  0  0  0
   -6.1877  -10.8921   30.9105 C   0  0  0  0  0  0  0  0  0  0  0  0
   -5.5879   -9.4280   31.8199 C   0  0  0  0  0  0  0  0  0  0  0  0
   -3.8920   -8.9291   31.5328 C   0  0  0  0  0  0  0  0  0  0  0  0
   -2.7665   -8.3712   32.2407 N   0  0  0  0  0  0  0  0  0  0  0  0
   -1.5184   -8.6523   31.7099 C   0  0  0  0  0  0  0  0  0  0  0  0
   -1.5662   -9.8556   31.0536 C   0  0  0  0  0  0  0  0  0  0  0  0
   -3.0001  -10.2568   30.8570 C   0  0  0  0  0  0  0  0  0  0  0  0
   -3.8520  -11.6424   29.8285 C   0  0  0  0  0  0  0  0  0  0  0  0
   -5.4705  -19.5101   18.4391 H   0  0  0  0  0  0  0  0  0  0  0  0
   -5.5949  -18.0027   19.3521 H   0  0  0  0  0  0  0  0  0  0  0  0
   -6.6851  -18.2948   17.9970 H   0  0  0  0  0  0  0  0  0  0  0  0
   -8.4790  -21.0090   19.6766 H   0  0  0  0  0  0  0  0  0  0  0  0
   -6.7975  -21.3907   19.1492 H   0  0  0  0  0  0  0  0  0  0  0  0
   -7.8947  -20.4863   18.1019 H   0  0  0  0  0  0  0  0  0  0  0  0
   -5.5861  -17.4037   21.9093 H   0  0  0  0  0  0  0  0  0  0  0  0
   -6.0251  -18.5060   23.3068 H   0  0  0  0  0  0  0  0  0  0  0  0
   -6.8929  -17.5055   24.2700 H   0  0  0  0  0  0  0  0  0  0  0  0
   -8.4115  -18.0676   22.6585 H   0  0  0  0  0  0  0  0  0  0  0  0
   -8.1462  -16.5325   21.8205 H   0  0  0  0  0  0  0  0  0  0  0  0
   -9.9358  -15.5628   26.1845 H   0  0  0  0  0  0  0  0  0  0  0  0
   -8.9524  -16.6477   26.3247 H   0  0  0  0  0  0  0  0  0  0  0  0
   -7.1792  -14.5855   24.6684 H   0  0  0  0  0  0  0  0  0  0  0  0
   -7.7781  -14.4886   28.0351 H   0  0  0  0  0  0  0  0  0  0  0  0
   -7.2604  -10.7899   31.1557 H   0  0  0  0  0  0  0  0  0  0  0  0
   -6.2053   -8.8579   32.4924 H   0  0  0  0  0  0  0  0  0  0  0  0
   -2.7674   -8.2400   33.2348 H   0  0  0  0  0  0  0  0  0  0  0  0
   -0.6668   -8.0653   32.0273 H   0  0  0  0  0  0  0  0  0  0  0  0
   -0.7883  -10.3480   30.5396 H   0  0  0  0  0  0  0  0  0  0  0  0
   -3.0993  -12.1004   29.1825 H   0  0  0  0  0  0  0  0  0  0  0  0
  1  2  1  0
  2  3  1  0
  2  4  1  0
  4  5  2  0
  4  6  2  0
  4  7  1  0
  7  8  1  0
  8  9  1  0
  9 10  1  0
 10 11  1  0
 11 12  1  0
 12 13  1  0
 13 14  1  0
 14 15  2  0
 14 16  1  0
 16 17  2  0
 17 18  1  0
 18 19  2  0
 19 20  1  0
 20 21  1  0
 21 22  2  0
 22 23  1  0
 23 24  2  0
 12  8  1  0
 24 16  1  0
 23 19  1  0
  1 25  1  0
  1 26  1  0
  1 27  1  0
  3 28  1  0
  3 29  1  0
  3 30  1  0
  7 31  1  0
  7 32  1  0
  8 33  1  0
  9 34  1  0
  9 35  1  0
 11 36  1  0
 11 37  1  0
 12 38  1  0
 13 39  1  0
 17 40  1  0
 18 41  1  0
 20 42  1  0
 21 43  1  0
 22 44  1  0
 24 45  1  0
M  END
>  <Energy>  (1172) 
1257.1495462096862

>  <compound_id>  (1172) 
35921

>  <target_id>  (1172) 
1

>  <reference_id>  (1172) 
28

>  <inspiration_ids>  (1172) 
[28, 40]

>  <energy_score>  (1172) 
1263.4355592871063

>  <distance_score>  (1172) 
10.133128335688358

>  <path>  (1172) 
/opt/xchem-fragalysis-2/maxwin/BulkDock/SCRATCH/511013/C35921-P28/C35921-P28.minimised.mol

>  <scratch_subdir>  (1172) 
/opt/xchem-fragalysis-2/maxwin/BulkDock/SCRATCH/511013/C35921-P28

>  <fragmenstein_runtime>  (1172) 
13.559246063232422

>  <fragmenstein_outcome>  (1172) 
too moved

>  <fragmenstein_mode>  (1172) 
expansion

>  <fragmenstein_error>  (1172) 


$$$$
C35921-P40
     RDKit          3D

 45 47  0  0  0  0  0  0  0  0999 V2000
   -6.9850  -20.3659   18.7415 C   0  0  0  0  0  0  0  0  0  0  0  0
   -7.5191  -20.1358   20.0981 N   0  0  0  0  0  0  0  0  0  0  0  0
   -8.0601  -21.3727   20.7244 C   0  0  0  0  0  0  0  0  0  0  0  0
   -6.6357  -19.1717   21.1582 S   0  0  0  0  0  0  0  0  0  0  0  0
   -5.4402  -18.9450   20.3695 O   0  0  0  0  0  0  0  0  0  0  0  0
   -6.7522  -19.9637   22.3600 O   0  0  0  0  0  0  0  0  0  0  0  0
   -7.3254  -17.4192   21.7096 C   0  0  0  0  0  0  0  0  0  0  0  0
   -7.2050  -16.3936   23.4272 C   0  0  0  0  0  0  0  0  0  0  0  0
   -6.1886  -17.3624   23.4588 C   0  0  0  0  0  0  0  0  0  0  0  0
   -5.1640  -15.8236   24.0608 O   0  0  0  0  0  0  0  0  0  0  0  0
   -4.8282  -14.7261   23.3378 C   0  0  0  0  0  0  0  0  0  0  0  0
   -6.2725  -14.4168   23.6670 C   0  0  0  0  0  0  0  0  0  0  0  0
   -6.2025  -12.4292   24.1981 N   0  0  0  0  0  0  0  0  0  0  0  0
   -6.7280  -11.5340   25.7699 C   0  0  0  0  0  0  0  0  0  0  0  0
   -7.0368  -12.3105   26.5615 O   0  0  0  0  0  0  0  0  0  0  0  0
   -7.1432   -9.5856   26.5068 C   0  0  0  0  0  0  0  0  0  0  0  0
   -8.3960   -9.1130   27.5511 C   0  0  0  0  0  0  0  0  0  0  0  0
   -9.1118   -8.2613   28.5952 C   0  0  0  0  0  0  0  0  0  0  0  0
   -8.3039   -8.2518   29.6206 C   0  0  0  0  0  0  0  0  0  0  0  0
   -8.6730   -8.2332   30.9250 N   0  0  0  0  0  0  0  0  0  0  0  0
   -7.5967   -8.4775   31.6685 C   0  0  0  0  0  0  0  0  0  0  0  0
   -6.5742   -8.6049   30.7620 C   0  0  0  0  0  0  0  0  0  0  0  0
   -6.9780   -8.4686   29.3541 C   0  0  0  0  0  0  0  0  0  0  0  0
   -6.5219   -8.7224   27.7346 C   0  0  0  0  0  0  0  0  0  0  0  0
   -6.5580  -19.4533   18.3158 H   0  0  0  0  0  0  0  0  0  0  0  0
   -7.8219  -20.6303   18.1014 H   0  0  0  0  0  0  0  0  0  0  0  0
   -6.2316  -21.1576   18.7349 H   0  0  0  0  0  0  0  0  0  0  0  0
   -9.0071  -21.6260   20.2480 H   0  0  0  0  0  0  0  0  0  0  0  0
   -7.3041  -22.1637   20.7079 H   0  0  0  0  0  0  0  0  0  0  0  0
   -8.3517  -21.2876   21.7748 H   0  0  0  0  0  0  0  0  0  0  0  0
   -8.2863  -17.8586   21.8188 H   0  0  0  0  0  0  0  0  0  0  0  0
   -7.1412  -16.7592   20.8664 H   0  0  0  0  0  0  0  0  0  0  0  0
   -8.1173  -16.5761   22.9463 H   0  0  0  0  0  0  0  0  0  0  0  0
   -6.2484  -18.2240   24.1057 H   0  0  0  0  0  0  0  0  0  0  0  0
   -5.5782  -17.6782   22.5835 H   0  0  0  0  0  0  0  0  0  0  0  0
   -3.7751  -14.9233   23.4930 H   0  0  0  0  0  0  0  0  0  0  0  0
   -4.5792  -13.7193   23.6414 H   0  0  0  0  0  0  0  0  0  0  0  0
   -6.9078  -14.6376   24.6073 H   0  0  0  0  0  0  0  0  0  0  0  0
   -6.0233  -11.7307   23.5012 H   0  0  0  0  0  0  0  0  0  0  0  0
   -9.3175   -9.6448   27.5867 H   0  0  0  0  0  0  0  0  0  0  0  0
  -10.1935   -8.3096   28.7142 H   0  0  0  0  0  0  0  0  0  0  0  0
   -9.6199   -8.1389   31.2655 H   0  0  0  0  0  0  0  0  0  0  0  0
   -7.6410   -8.5702   32.7399 H   0  0  0  0  0  0  0  0  0  0  0  0
   -5.6455   -8.7957   31.2665 H   0  0  0  0  0  0  0  0  0  0  0  0
   -5.5489   -8.2669   27.6071 H   0  0  0  0  0  0  0  0  0  0  0  0
  1  2  1  0
  2  3  1  0
  2  4  1  0
  4  5  2  0
  4  6  2  0
  4  7  1  0
  7  8  1  0
  8  9  1  0
  9 10  1  0
 10 11  1  0
 11 12  1  0
 12 13  1  0
 13 14  1  0
 14 15  2  0
 14 16  1  0
 16 17  2  0
 17 18  1  0
 18 19  2  0
 19 20  1  0
 20 21  1  0
 21 22  2  0
 22 23  1  0
 23 24  2  0
 12  8  1  0
 24 16  1  0
 23 19  1  0
  1 25  1  0
  1 26  1  0
  1 27  1  0
  3 28  1  0
  3 29  1  0
  3 30  1  0
  7 31  1  0
  7 32  1  0
  8 33  1  0
  9 34  1  0
  9 35  1  0
 11 36  1  0
 11 37  1  0
 12 38  1  0
 13 39  1  0
 17 40  1  0
 18 41  1  0
 20 42  1  0
 21 43  1  0
 22 44  1  0
 24 45  1  0
M  END
>  <Energy>  (1173) 
1109.6477499304297

>  <compound_id>  (1173) 
35921

>  <target_id>  (1173) 
1

>  <reference_id>  (1173) 
40

>  <inspiration_ids>  (1173) 
[28, 40]

>  <energy_score>  (1173) 
1115.9337630078594

>  <distance_score>  (1173) 
10.765124256689697

>  <path>  (1173) 
/opt/xchem-fragalysis-2/maxwin/BulkDock/SCRATCH/511013/C35921-P40/C35921-P40.minimised.mol

>  <scratch_subdir>  (1173) 
/opt/xchem-fragalysis-2/maxwin/BulkDock/SCRATCH/511013/C35921-P40

>  <fragmenstein_runtime>  (1173) 
18.764580726623535

>  <fragmenstein_outcome>  (1173) 
too moved

>  <fragmenstein_mode>  (1173) 
expansion

>  <fragmenstein_error>  (1173) 


$$$$
C35922-P28
     RDKit          3D

 41 43  0  0  0  0  0  0  0  0999 V2000
   -1.8208  -15.5511   24.7473 O   0  0  0  0  0  0  0  0  0  0  0  0
   -2.8673  -14.9510   24.5329 C   0  0  0  0  0  0  0  0  0  0  0  0
   -4.3533  -15.3747   23.3208 N   0  0  0  0  0  0  0  0  0  0  0  0
   -4.6454  -16.8746   21.8606 C   0  0  0  0  0  0  0  0  0  0  0  0
   -5.8186  -18.1295   20.4837 C   0  0  0  0  0  0  0  0  0  0  0  0
   -6.2072  -19.5631   18.9004 C   0  0  0  0  0  0  0  0  0  0  0  0
   -6.8856  -21.1564   17.6393 C   0  0  0  0  0  0  0  0  0  0  0  0
   -7.8962  -22.0597   16.0409 C   0  0  0  0  0  0  0  0  0  0  0  0
   -8.4819  -20.7183   17.5062 C   0  0  0  0  0  0  0  0  0  0  0  0
   -7.5527  -19.3079   18.1475 O   0  0  0  0  0  0  0  0  0  0  0  0
   -2.8739  -13.0831   25.5881 C   0  0  0  0  0  0  0  0  0  0  0  0
   -3.4907  -12.2780   24.9617 O   0  0  0  0  0  0  0  0  0  0  0  0
   -2.2935  -12.8906   26.9437 N   0  0  0  0  0  0  0  0  0  0  0  0
   -2.2466  -11.4190   28.0610 C   0  0  0  0  0  0  0  0  0  0  0  0
   -2.3969  -11.5271   29.4244 C   0  0  0  0  0  0  0  0  0  0  0  0
   -1.6625  -10.4739   30.5973 C   0  0  0  0  0  0  0  0  0  0  0  0
   -0.8807   -9.3368   30.4448 C   0  0  0  0  0  0  0  0  0  0  0  0
   -0.4847   -8.2891   31.2189 N   0  0  0  0  0  0  0  0  0  0  0  0
    0.5158   -7.6472   30.5410 C   0  0  0  0  0  0  0  0  0  0  0  0
    0.7532   -8.4086   29.4057 C   0  0  0  0  0  0  0  0  0  0  0  0
   -0.3588   -9.2587   29.2165 C   0  0  0  0  0  0  0  0  0  0  0  0
   -1.0374  -10.2020   28.2494 C   0  0  0  0  0  0  0  0  0  0  0  0
   -5.0446  -14.6464   23.3452 H   0  0  0  0  0  0  0  0  0  0  0  0
   -5.2740  -17.5559   22.4450 H   0  0  0  0  0  0  0  0  0  0  0  0
   -3.7289  -16.7749   21.2705 H   0  0  0  0  0  0  0  0  0  0  0  0
   -6.5550  -17.3924   20.1783 H   0  0  0  0  0  0  0  0  0  0  0  0
   -6.3360  -18.7242   21.2527 H   0  0  0  0  0  0  0  0  0  0  0  0
   -5.3828  -19.1530   18.2969 H   0  0  0  0  0  0  0  0  0  0  0  0
   -6.6238  -22.1704   17.7239 H   0  0  0  0  0  0  0  0  0  0  0  0
   -5.8860  -21.1597   17.1560 H   0  0  0  0  0  0  0  0  0  0  0  0
   -9.0223  -22.3277   15.9039 H   0  0  0  0  0  0  0  0  0  0  0  0
   -7.6795  -21.8956   14.9134 H   0  0  0  0  0  0  0  0  0  0  0  0
   -9.3566  -20.2272   17.1243 H   0  0  0  0  0  0  0  0  0  0  0  0
   -8.8862  -21.0994   18.4338 H   0  0  0  0  0  0  0  0  0  0  0  0
   -1.8996  -13.7792   27.2529 H   0  0  0  0  0  0  0  0  0  0  0  0
   -3.0562  -12.3539   29.7051 H   0  0  0  0  0  0  0  0  0  0  0  0
   -1.9125  -10.4554   31.6373 H   0  0  0  0  0  0  0  0  0  0  0  0
   -0.7911   -8.0996   32.1660 H   0  0  0  0  0  0  0  0  0  0  0  0
    1.0437   -6.8129   30.9839 H   0  0  0  0  0  0  0  0  0  0  0  0
    1.5988   -8.2718   28.7453 H   0  0  0  0  0  0  0  0  0  0  0  0
   -0.7650   -9.6387   27.4296 H   0  0  0  0  0  0  0  0  0  0  0  0
  1  2  2  0
  2  3  1  0
  3  4  1  0
  4  5  1  0
  5  6  1  0
  6  7  1  0
  7  8  1  0
  8  9  1  0
  9 10  1  0
  2 11  1  0
 11 12  2  0
 11 13  1  0
 13 14  1  0
 14 15  2  0
 15 16  1  0
 16 17  2  0
 17 18  1  0
 18 19  1  0
 19 20  2  0
 20 21  1  0
 21 22  2  0
 10  6  1  0
 22 14  1  0
 21 17  1  0
  3 23  1  0
  4 24  1  0
  4 25  1  0
  5 26  1  0
  5 27  1  0
  6 28  1  0
  7 29  1  0
  7 30  1  0
  8 31  1  0
  8 32  1  0
  9 33  1  0
  9 34  1  0
 13 35  1  0
 15 36  1  0
 16 37  1  0
 18 38  1  0
 19 39  1  0
 20 40  1  0
 22 41  1  0
M  END
>  <Energy>  (1174) 
1520.8227122654901

>  <compound_id>  (1174) 
35922

>  <target_id>  (1174) 
1

>  <reference_id>  (1174) 
28

>  <inspiration_ids>  (1174) 
[28, 40]

>  <energy_score>  (1174) 
1429.8112124968738

>  <distance_score>  (1174) 
6.589324100398776

>  <path>  (1174) 
/opt/xchem-fragalysis-2/maxwin/BulkDock/SCRATCH/511013/C35922-P28/C35922-P28.minimised.mol

>  <scratch_subdir>  (1174) 
/opt/xchem-fragalysis-2/maxwin/BulkDock/SCRATCH/511013/C35922-P28

>  <fragmenstein_runtime>  (1174) 
18.27687120437622

>  <fragmenstein_outcome>  (1174) 
too moved

>  <fragmenstein_mode>  (1174) 
expansion

>  <fragmenstein_error>  (1174) 


$$$$
C35922-P40
     RDKit          3D

 41 43  0  0  0  0  0  0  0  0999 V2000
   -5.0434  -15.0283   23.4413 O   0  0  0  0  0  0  0  0  0  0  0  0
   -3.9870  -15.3806   23.0177 C   0  0  0  0  0  0  0  0  0  0  0  0
   -4.0114  -16.6641   21.4326 N   0  0  0  0  0  0  0  0  0  0  0  0
   -5.5784  -17.7090   20.3906 C   0  0  0  0  0  0  0  0  0  0  0  0
   -6.2849  -19.1902   18.8536 C   0  0  0  0  0  0  0  0  0  0  0  0
   -7.3244  -20.6875   17.5076 C   0  0  0  0  0  0  0  0  0  0  0  0
   -7.6073  -22.0808   15.7585 C   0  0  0  0  0  0  0  0  0  0  0  0
   -9.0066  -22.2809   15.2858 C   0  0  0  0  0  0  0  0  0  0  0  0
   -9.4330  -21.3003   16.3246 C   0  0  0  0  0  0  0  0  0  0  0  0
   -8.7422  -20.6193   17.6201 O   0  0  0  0  0  0  0  0  0  0  0  0
   -2.4792  -14.6407   24.3137 C   0  0  0  0  0  0  0  0  0  0  0  0
   -1.4797  -15.2565   24.5847 O   0  0  0  0  0  0  0  0  0  0  0  0
   -2.9060  -12.9754   25.2183 N   0  0  0  0  0  0  0  0  0  0  0  0
   -2.2509  -12.2766   26.4032 C   0  0  0  0  0  0  0  0  0  0  0  0
   -2.9772  -12.0937   27.5587 C   0  0  0  0  0  0  0  0  0  0  0  0
   -2.6721  -11.7975   29.2194 C   0  0  0  0  0  0  0  0  0  0  0  0
   -1.6088  -10.7930   29.7147 C   0  0  0  0  0  0  0  0  0  0  0  0
   -1.1447   -9.9899   30.7648 N   0  0  0  0  0  0  0  0  0  0  0  0
   -0.5597   -8.8151   30.3157 C   0  0  0  0  0  0  0  0  0  0  0  0
   -0.4009   -8.9714   28.9733 C   0  0  0  0  0  0  0  0  0  0  0  0
   -1.0497  -10.2977   28.5452 C   0  0  0  0  0  0  0  0  0  0  0  0
   -1.8854  -11.1235   27.1321 C   0  0  0  0  0  0  0  0  0  0  0  0
   -3.0539  -16.8169   21.1164 H   0  0  0  0  0  0  0  0  0  0  0  0
   -4.8990  -17.5786   19.5365 H   0  0  0  0  0  0  0  0  0  0  0  0
   -6.4504  -17.0747   20.4922 H   0  0  0  0  0  0  0  0  0  0  0  0
   -5.3877  -19.7583   19.0481 H   0  0  0  0  0  0  0  0  0  0  0  0
   -7.0568  -19.3351   19.6111 H   0  0  0  0  0  0  0  0  0  0  0  0
   -6.8000  -21.4782   17.8563 H   0  0  0  0  0  0  0  0  0  0  0  0
   -7.2326  -23.1052   15.7765 H   0  0  0  0  0  0  0  0  0  0  0  0
   -7.3637  -21.7419   14.6839 H   0  0  0  0  0  0  0  0  0  0  0  0
   -9.2609  -21.9886   14.2616 H   0  0  0  0  0  0  0  0  0  0  0  0
   -9.3585  -23.3163   15.3467 H   0  0  0  0  0  0  0  0  0  0  0  0
   -9.7977  -20.4977   15.7165 H   0  0  0  0  0  0  0  0  0  0  0  0
   -9.6943  -22.1473   16.8121 H   0  0  0  0  0  0  0  0  0  0  0  0
   -3.7394  -12.5621   24.7880 H   0  0  0  0  0  0  0  0  0  0  0  0
   -4.0742  -12.1098   27.4217 H   0  0  0  0  0  0  0  0  0  0  0  0
   -3.5607  -12.0592   29.7795 H   0  0  0  0  0  0  0  0  0  0  0  0
   -1.3528  -10.0707   31.7446 H   0  0  0  0  0  0  0  0  0  0  0  0
   -0.3059   -8.0226   31.0081 H   0  0  0  0  0  0  0  0  0  0  0  0
   -0.0350   -8.1513   28.3724 H   0  0  0  0  0  0  0  0  0  0  0  0
   -2.0333  -10.3691   26.3422 H   0  0  0  0  0  0  0  0  0  0  0  0
  1  2  2  0
  2  3  1  0
  3  4  1  0
  4  5  1  0
  5  6  1  0
  6  7  1  0
  7  8  1  0
  8  9  1  0
  9 10  1  0
  2 11  1  0
 11 12  2  0
 11 13  1  0
 13 14  1  0
 14 15  2  0
 15 16  1  0
 16 17  2  0
 17 18  1  0
 18 19  1  0
 19 20  2  0
 20 21  1  0
 21 22  2  0
 10  6  1  0
 22 14  1  0
 21 17  1  0
  3 23  1  0
  4 24  1  0
  4 25  1  0
  5 26  1  0
  5 27  1  0
  6 28  1  0
  7 29  1  0
  7 30  1  0
  8 31  1  0
  8 32  1  0
  9 33  1  0
  9 34  1  0
 13 35  1  0
 15 36  1  0
 16 37  1  0
 18 38  1  0
 19 39  1  0
 20 40  1  0
 22 41  1  0
M  END
>  <Energy>  (1175) 
1553.7248352576391

>  <compound_id>  (1175) 
35922

>  <target_id>  (1175) 
1

>  <reference_id>  (1175) 
40

>  <inspiration_ids>  (1175) 
[28, 40]

>  <energy_score>  (1175) 
1462.7133354890432

>  <distance_score>  (1175) 
7.101888474452122

>  <path>  (1175) 
/opt/xchem-fragalysis-2/maxwin/BulkDock/SCRATCH/511013/C35922-P40/C35922-P40.minimised.mol

>  <scratch_subdir>  (1175) 
/opt/xchem-fragalysis-2/maxwin/BulkDock/SCRATCH/511013/C35922-P40

>  <fragmenstein_runtime>  (1175) 
19.968100786209106

>  <fragmenstein_outcome>  (1175) 
too moved

>  <fragmenstein_mode>  (1175) 
expansion

>  <fragmenstein_error>  (1175) 


$$$$
C35923-P28
     RDKit          3D

 41 43  0  0  0  0  0  0  0  0999 V2000
   -1.5031  -14.9589   27.1466 O   0  0  0  0  0  0  0  0  0  0  0  0
   -2.1224  -14.1707   26.4601 C   0  0  0  0  0  0  0  0  0  0  0  0
   -2.6349  -15.0439   24.7329 C   0  0  0  0  0  0  0  0  0  0  0  0
   -4.0749  -15.4121   23.5740 O   0  0  0  0  0  0  0  0  0  0  0  0
   -4.3330  -16.5001   22.0195 C   0  0  0  0  0  0  0  0  0  0  0  0
   -5.7231  -17.5210   21.3011 C   0  0  0  0  0  0  0  0  0  0  0  0
   -5.2839  -18.3370   20.0336 C   0  0  0  0  0  0  0  0  0  0  0  0
   -6.5442  -18.8531   19.5427 C   0  0  0  0  0  0  0  0  0  0  0  0
   -7.2456  -19.1565   20.7347 O   0  0  0  0  0  0  0  0  0  0  0  0
   -6.8169  -18.3616   21.8742 C   0  0  0  0  0  0  0  0  0  0  0  0
   -2.6180  -12.5710   26.9672 N   0  0  0  0  0  0  0  0  0  0  0  0
   -2.4800  -11.6812   28.6779 C   0  0  0  0  0  0  0  0  0  0  0  0
   -1.4121  -10.3155   29.6216 C   0  0  0  0  0  0  0  0  0  0  0  0
   -1.5053   -9.9245   31.0061 C   0  0  0  0  0  0  0  0  0  0  0  0
   -1.1414   -8.7152   31.7144 C   0  0  0  0  0  0  0  0  0  0  0  0
   -0.2978   -7.8595   31.0906 C   0  0  0  0  0  0  0  0  0  0  0  0
    0.2543   -6.6799   31.5132 N   0  0  0  0  0  0  0  0  0  0  0  0
    1.2452   -6.3171   30.6530 C   0  0  0  0  0  0  0  0  0  0  0  0
    1.2921   -7.2916   29.6817 C   0  0  0  0  0  0  0  0  0  0  0  0
    0.1937   -8.2165   29.8571 C   0  0  0  0  0  0  0  0  0  0  0  0
   -0.4546   -9.3413   29.1249 C   0  0  0  0  0  0  0  0  0  0  0  0
   -2.5939  -16.0469   25.1670 H   0  0  0  0  0  0  0  0  0  0  0  0
   -1.7345  -14.8726   24.1312 H   0  0  0  0  0  0  0  0  0  0  0  0
   -3.4268  -16.9856   21.7189 H   0  0  0  0  0  0  0  0  0  0  0  0
   -3.9223  -16.0342   21.1371 H   0  0  0  0  0  0  0  0  0  0  0  0
   -6.4306  -16.8126   20.8670 H   0  0  0  0  0  0  0  0  0  0  0  0
   -4.8419  -17.7601   19.2261 H   0  0  0  0  0  0  0  0  0  0  0  0
   -4.6968  -19.2353   20.2399 H   0  0  0  0  0  0  0  0  0  0  0  0
   -6.3776  -19.7105   18.9197 H   0  0  0  0  0  0  0  0  0  0  0  0
   -7.0116  -18.1042   18.9098 H   0  0  0  0  0  0  0  0  0  0  0  0
   -7.6747  -17.7607   22.1753 H   0  0  0  0  0  0  0  0  0  0  0  0
   -6.6174  -18.9951   22.7227 H   0  0  0  0  0  0  0  0  0  0  0  0
   -3.0378  -12.0986   26.1923 H   0  0  0  0  0  0  0  0  0  0  0  0
   -2.3612  -12.5564   29.3068 H   0  0  0  0  0  0  0  0  0  0  0  0
   -3.5171  -11.6485   28.9810 H   0  0  0  0  0  0  0  0  0  0  0  0
   -2.0779  -10.3882   31.7289 H   0  0  0  0  0  0  0  0  0  0  0  0
   -1.4865   -8.5500   32.7318 H   0  0  0  0  0  0  0  0  0  0  0  0
    0.0191   -6.2067   32.3764 H   0  0  0  0  0  0  0  0  0  0  0  0
    1.8488   -5.4356   30.8256 H   0  0  0  0  0  0  0  0  0  0  0  0
    2.0269   -7.2926   28.8837 H   0  0  0  0  0  0  0  0  0  0  0  0
   -0.1450   -9.4047   28.1216 H   0  0  0  0  0  0  0  0  0  0  0  0
  1  2  2  0
  2  3  1  0
  3  4  1  0
  4  5  1  0
  5  6  1  0
  6  7  1  0
  7  8  1  0
  8  9  1  0
  9 10  1  0
  2 11  1  0
 11 12  1  0
 12 13  1  0
 13 14  2  0
 14 15  1  0
 15 16  2  0
 16 17  1  0
 17 18  1  0
 18 19  2  0
 19 20  1  0
 20 21  2  0
 10  6  1  0
 21 13  1  0
 20 16  1  0
  3 22  1  0
  3 23  1  0
  5 24  1  0
  5 25  1  0
  6 26  1  0
  7 27  1  0
  7 28  1  0
  8 29  1  0
  8 30  1  0
 10 31  1  0
 10 32  1  0
 11 33  1  0
 12 34  1  0
 12 35  1  0
 14 36  1  0
 15 37  1  0
 17 38  1  0
 18 39  1  0
 19 40  1  0
 21 41  1  0
M  END
>  <Energy>  (1176) 
593.77011398520426

>  <compound_id>  (1176) 
35923

>  <target_id>  (1176) 
1

>  <reference_id>  (1176) 
28

>  <inspiration_ids>  (1176) 
[28, 40]

>  <energy_score>  (1176) 
533.2503654310833

>  <distance_score>  (1176) 
7.252616501363461

>  <path>  (1176) 
/opt/xchem-fragalysis-2/maxwin/BulkDock/SCRATCH/511013/C35923-P28/C35923-P28.minimised.mol

>  <scratch_subdir>  (1176) 
/opt/xchem-fragalysis-2/maxwin/BulkDock/SCRATCH/511013/C35923-P28

>  <fragmenstein_runtime>  (1176) 
15.944621324539185

>  <fragmenstein_outcome>  (1176) 
too moved

>  <fragmenstein_mode>  (1176) 
expansion

>  <fragmenstein_error>  (1176) 


$$$$
C35923-P40
     RDKit          3D

 41 43  0  0  0  0  0  0  0  0999 V2000
   -5.0084  -14.6780   23.4210 O   0  0  0  0  0  0  0  0  0  0  0  0
   -4.0593  -15.3102   23.1387 C   0  0  0  0  0  0  0  0  0  0  0  0
   -4.5722  -16.7488   21.5037 C   0  0  0  0  0  0  0  0  0  0  0  0
   -5.7085  -17.9806   20.2833 O   0  0  0  0  0  0  0  0  0  0  0  0
   -6.1732  -19.3352   18.8011 C   0  0  0  0  0  0  0  0  0  0  0  0
   -7.2694  -20.7723   17.4855 C   0  0  0  0  0  0  0  0  0  0  0  0
   -7.6493  -22.1057   15.7319 C   0  0  0  0  0  0  0  0  0  0  0  0
   -9.1257  -22.2013   15.5134 C   0  0  0  0  0  0  0  0  0  0  0  0
   -9.4724  -21.2775   16.5121 O   0  0  0  0  0  0  0  0  0  0  0  0
   -8.7185  -20.6690   17.6582 C   0  0  0  0  0  0  0  0  0  0  0  0
   -2.5258  -14.8808   24.2737 N   0  0  0  0  0  0  0  0  0  0  0  0
   -2.2997  -13.6619   25.9122 C   0  0  0  0  0  0  0  0  0  0  0  0
   -2.6925  -12.1202   27.2297 C   0  0  0  0  0  0  0  0  0  0  0  0
   -1.8067  -11.0142   27.5484 C   0  0  0  0  0  0  0  0  0  0  0  0
   -0.7968   -9.7935   28.5250 C   0  0  0  0  0  0  0  0  0  0  0  0
   -0.6260   -9.7078   29.7768 C   0  0  0  0  0  0  0  0  0  0  0  0
   -0.2282   -8.5762   30.4492 N   0  0  0  0  0  0  0  0  0  0  0  0
   -0.9007   -8.5188   31.5949 C   0  0  0  0  0  0  0  0  0  0  0  0
   -1.7061   -9.6338   31.5023 C   0  0  0  0  0  0  0  0  0  0  0  0
   -1.5482  -10.6531   30.1207 C   0  0  0  0  0  0  0  0  0  0  0  0
   -2.5192  -11.8124   28.9900 C   0  0  0  0  0  0  0  0  0  0  0  0
   -5.0379  -17.4903   22.1408 H   0  0  0  0  0  0  0  0  0  0  0  0
   -3.7151  -16.7670   20.8450 H   0  0  0  0  0  0  0  0  0  0  0  0
   -6.6467  -18.4687   18.3340 H   0  0  0  0  0  0  0  0  0  0  0  0
   -5.1218  -19.4345   18.5048 H   0  0  0  0  0  0  0  0  0  0  0  0
   -6.6180  -21.5354   17.6514 H   0  0  0  0  0  0  0  0  0  0  0  0
   -7.4352  -21.7895   14.6559 H   0  0  0  0  0  0  0  0  0  0  0  0
   -7.2975  -23.1233   15.7377 H   0  0  0  0  0  0  0  0  0  0  0  0
   -9.5004  -23.2159   15.5977 H   0  0  0  0  0  0  0  0  0  0  0  0
   -9.4625  -21.8585   14.5302 H   0  0  0  0  0  0  0  0  0  0  0  0
   -8.9842  -20.9821   18.6518 H   0  0  0  0  0  0  0  0  0  0  0  0
   -9.0923  -19.6777   17.5900 H   0  0  0  0  0  0  0  0  0  0  0  0
   -1.7371  -15.3838   23.9295 H   0  0  0  0  0  0  0  0  0  0  0  0
   -1.2437  -13.5025   25.6994 H   0  0  0  0  0  0  0  0  0  0  0  0
   -2.1759  -14.4644   26.6546 H   0  0  0  0  0  0  0  0  0  0  0  0
   -0.8120  -11.0217   27.7014 H   0  0  0  0  0  0  0  0  0  0  0  0
   -0.6283   -8.7254   28.1948 H   0  0  0  0  0  0  0  0  0  0  0  0
    0.3815   -7.8542   30.0936 H   0  0  0  0  0  0  0  0  0  0  0  0
   -0.8551   -7.7027   32.3043 H   0  0  0  0  0  0  0  0  0  0  0  0
   -2.5290   -9.5610   32.1800 H   0  0  0  0  0  0  0  0  0  0  0  0
   -3.2345  -12.3753   29.5980 H   0  0  0  0  0  0  0  0  0  0  0  0
  1  2  2  0
  2  3  1  0
  3  4  1  0
  4  5  1  0
  5  6  1  0
  6  7  1  0
  7  8  1  0
  8  9  1  0
  9 10  1  0
  2 11  1  0
 11 12  1  0
 12 13  1  0
 13 14  2  0
 14 15  1  0
 15 16  2  0
 16 17  1  0
 17 18  1  0
 18 19  2  0
 19 20  1  0
 20 21  2  0
 10  6  1  0
 21 13  1  0
 20 16  1  0
  3 22  1  0
  3 23  1  0
  5 24  1  0
  5 25  1  0
  6 26  1  0
  7 27  1  0
  7 28  1  0
  8 29  1  0
  8 30  1  0
 10 31  1  0
 10 32  1  0
 11 33  1  0
 12 34  1  0
 12 35  1  0
 14 36  1  0
 15 37  1  0
 17 38  1  0
 18 39  1  0
 19 40  1  0
 21 41  1  0
M  END
>  <Energy>  (1177) 
1856.3476062338541

>  <compound_id>  (1177) 
35923

>  <target_id>  (1177) 
1

>  <reference_id>  (1177) 
40

>  <inspiration_ids>  (1177) 
[28, 40]

>  <energy_score>  (1177) 
1795.8278576797238

>  <distance_score>  (1177) 
6.730216758326115

>  <path>  (1177) 
/opt/xchem-fragalysis-2/maxwin/BulkDock/SCRATCH/511013/C35923-P40/C35923-P40.minimised.mol

>  <scratch_subdir>  (1177) 
/opt/xchem-fragalysis-2/maxwin/BulkDock/SCRATCH/511013/C35923-P40

>  <fragmenstein_runtime>  (1177) 
16.351681232452393

>  <fragmenstein_outcome>  (1177) 
too moved

>  <fragmenstein_mode>  (1177) 
expansion

>  <fragmenstein_error>  (1177) 


$$$$
C35924-P28
     RDKit          3D

 45 47  0  0  0  0  0  0  0  0999 V2000
   -7.9920  -22.2963   15.4772 C   0  0  0  0  0  0  0  0  0  0  0  0
   -7.3735  -21.2785   17.0750 O   0  0  0  0  0  0  0  0  0  0  0  0
   -8.1988  -20.3465   18.0812 C   0  0  0  0  0  0  0  0  0  0  0  0
   -9.2159  -19.9073   17.5564 O   0  0  0  0  0  0  0  0  0  0  0  0
   -8.1473  -19.8319   19.9671 C   0  0  0  0  0  0  0  0  0  0  0  0
   -7.0653  -18.1601   21.0767 C   0  0  0  0  0  0  0  0  0  0  0  0
   -5.5005  -17.6925   22.4572 N   0  0  0  0  0  0  0  0  0  0  0  0
   -4.7330  -15.9178   23.3629 C   0  0  0  0  0  0  0  0  0  0  0  0
   -4.9973  -14.8199   23.2024 O   0  0  0  0  0  0  0  0  0  0  0  0
   -3.2209  -16.0574   24.6184 N   0  0  0  0  0  0  0  0  0  0  0  0
   -2.3061  -15.0034   25.2959 C   0  0  0  0  0  0  0  0  0  0  0  0
   -1.0571  -14.6901   24.6890 C   0  0  0  0  0  0  0  0  0  0  0  0
    0.2249  -14.7015   25.2603 C   0  0  0  0  0  0  0  0  0  0  0  0
    0.2995  -15.4216   26.4258 C   0  0  0  0  0  0  0  0  0  0  0  0
    1.4036  -15.8930   27.0935 N   0  0  0  0  0  0  0  0  0  0  0  0
    1.0004  -16.6769   28.1431 C   0  0  0  0  0  0  0  0  0  0  0  0
   -0.3793  -16.6383   28.1957 C   0  0  0  0  0  0  0  0  0  0  0  0
   -0.8373  -15.8272   27.1152 C   0  0  0  0  0  0  0  0  0  0  0  0
   -2.1131  -15.4251   26.6424 C   0  0  0  0  0  0  0  0  0  0  0  0
   -9.5098  -21.5366   19.3476 C   0  0  0  0  0  0  0  0  0  0  0  0
   -9.8569  -22.4361   17.3058 C   0  0  0  0  0  0  0  0  0  0  0  0
  -11.3277  -24.0798   16.8975 C   0  0  0  0  0  0  0  0  0  0  0  0
  -12.7554  -23.2353   18.3414 O   0  0  0  0  0  0  0  0  0  0  0  0
  -11.7003  -21.9780   19.6637 C   0  0  0  0  0  0  0  0  0  0  0  0
   -7.7958  -23.2984   15.7023 H   0  0  0  0  0  0  0  0  0  0  0  0
   -7.5506  -21.9216   14.5338 H   0  0  0  0  0  0  0  0  0  0  0  0
   -9.0386  -22.0914   15.1639 H   0  0  0  0  0  0  0  0  0  0  0  0
   -8.1808  -20.4194   20.8615 H   0  0  0  0  0  0  0  0  0  0  0  0
   -6.2158  -18.5542   20.5031 H   0  0  0  0  0  0  0  0  0  0  0  0
   -7.4874  -18.6270   21.9724 H   0  0  0  0  0  0  0  0  0  0  0  0
   -5.1467  -18.5464   22.8458 H   0  0  0  0  0  0  0  0  0  0  0  0
   -3.0758  -16.9819   24.8068 H   0  0  0  0  0  0  0  0  0  0  0  0
   -0.9395  -14.6799   23.6179 H   0  0  0  0  0  0  0  0  0  0  0  0
    1.1023  -14.4394   24.6772 H   0  0  0  0  0  0  0  0  0  0  0  0
    2.3607  -15.7187   26.8148 H   0  0  0  0  0  0  0  0  0  0  0  0
    1.7262  -17.1716   28.7742 H   0  0  0  0  0  0  0  0  0  0  0  0
   -0.9966  -17.1334   28.9333 H   0  0  0  0  0  0  0  0  0  0  0  0
   -2.9770  -15.7534   27.2148 H   0  0  0  0  0  0  0  0  0  0  0  0
   -9.6205  -21.9527   20.3908 H   0  0  0  0  0  0  0  0  0  0  0  0
   -9.4720  -23.0625   16.4602 H   0  0  0  0  0  0  0  0  0  0  0  0
   -9.8994  -21.5959   16.5597 H   0  0  0  0  0  0  0  0  0  0  0  0
  -11.3830  -25.2439   17.0821 H   0  0  0  0  0  0  0  0  0  0  0  0
  -11.1711  -24.1796   15.7038 H   0  0  0  0  0  0  0  0  0  0  0  0
  -11.8807  -22.4718   20.6576 H   0  0  0  0  0  0  0  0  0  0  0  0
  -12.4023  -21.1056   19.7004 H   0  0  0  0  0  0  0  0  0  0  0  0
  1  2  1  0
  2  3  1  0
  3  4  2  0
  3  5  1  0
  5  6  1  0
  6  7  1  0
  7  8  1  0
  8  9  2  0
  8 10  1  0
 10 11  1  0
 11 12  2  0
 12 13  1  0
 13 14  2  0
 14 15  1  0
 15 16  1  0
 16 17  2  0
 17 18  1  0
 18 19  2  0
  5 20  1  0
 20 21  1  0
 21 22  1  0
 22 23  1  0
 23 24  1  0
 19 11  1  0
 24 20  1  0
 18 14  1  0
  1 25  1  0
  1 26  1  0
  1 27  1  0
  5 28  1  0
  6 29  1  0
  6 30  1  0
  7 31  1  0
 10 32  1  0
 12 33  1  0
 13 34  1  0
 15 35  1  0
 16 36  1  0
 17 37  1  0
 19 38  1  0
 20 39  1  0
 21 40  1  0
 21 41  1  0
 22 42  1  0
 22 43  1  0
 24 44  1  0
 24 45  1  0
M  END
>  <Energy>  (1178) 
2129.0364145869698

>  <compound_id>  (1178) 
35924

>  <target_id>  (1178) 
1

>  <reference_id>  (1178) 
28

>  <inspiration_ids>  (1178) 
[28, 40]

>  <energy_score>  (1178) 
2122.6117970512746

>  <distance_score>  (1178) 
9.882099225390492

>  <path>  (1178) 
/opt/xchem-fragalysis-2/maxwin/BulkDock/SCRATCH/511013/C35924-P28/C35924-P28.minimised.mol

>  <scratch_subdir>  (1178) 
/opt/xchem-fragalysis-2/maxwin/BulkDock/SCRATCH/511013/C35924-P28

>  <fragmenstein_runtime>  (1178) 
18.992608547210693

>  <fragmenstein_outcome>  (1178) 
too moved

>  <fragmenstein_mode>  (1178) 
expansion

>  <fragmenstein_error>  (1178) 


$$$$
C35924-P40
     RDKit          3D

 45 47  0  0  0  0  0  0  0  0999 V2000
   -8.8396  -20.5582   19.9135 C   0  0  0  0  0  0  0  0  0  0  0  0
   -7.6298  -19.3908   20.5487 O   0  0  0  0  0  0  0  0  0  0  0  0
   -7.1505  -18.7616   21.7454 C   0  0  0  0  0  0  0  0  0  0  0  0
   -7.6126  -19.0991   22.8270 O   0  0  0  0  0  0  0  0  0  0  0  0
   -5.8601  -17.6598   21.5222 C   0  0  0  0  0  0  0  0  0  0  0  0
   -4.4585  -16.4103   22.1768 C   0  0  0  0  0  0  0  0  0  0  0  0
   -4.2159  -14.7804   23.2455 N   0  0  0  0  0  0  0  0  0  0  0  0
   -5.3072  -13.3486   23.5077 C   0  0  0  0  0  0  0  0  0  0  0  0
   -6.3221  -13.3630   23.0989 O   0  0  0  0  0  0  0  0  0  0  0  0
   -4.8338  -11.8077   24.2512 N   0  0  0  0  0  0  0  0  0  0  0  0
   -5.5813  -10.5978   24.5013 C   0  0  0  0  0  0  0  0  0  0  0  0
   -6.9036  -10.5656   24.1671 C   0  0  0  0  0  0  0  0  0  0  0  0
   -7.9164   -9.5801   24.4631 C   0  0  0  0  0  0  0  0  0  0  0  0
   -7.5191   -8.6136   25.3325 C   0  0  0  0  0  0  0  0  0  0  0  0
   -8.1864   -7.6264   26.0061 N   0  0  0  0  0  0  0  0  0  0  0  0
   -7.3839   -7.1701   27.0141 C   0  0  0  0  0  0  0  0  0  0  0  0
   -6.1873   -7.8203   26.8547 C   0  0  0  0  0  0  0  0  0  0  0  0
   -6.1852   -8.5474   25.6495 C   0  0  0  0  0  0  0  0  0  0  0  0
   -5.2663   -9.3673   24.9389 C   0  0  0  0  0  0  0  0  0  0  0  0
   -5.2869  -18.0488   20.2087 C   0  0  0  0  0  0  0  0  0  0  0  0
   -6.1675  -17.6092   19.1520 C   0  0  0  0  0  0  0  0  0  0  0  0
   -6.5360  -18.7680   18.4605 C   0  0  0  0  0  0  0  0  0  0  0  0
   -5.2477  -19.3616   18.4944 O   0  0  0  0  0  0  0  0  0  0  0  0
   -5.0330  -19.4430   19.8787 C   0  0  0  0  0  0  0  0  0  0  0  0
   -8.6692  -20.8004   18.8394 H   0  0  0  0  0  0  0  0  0  0  0  0
   -9.1312  -21.2862   20.6810 H   0  0  0  0  0  0  0  0  0  0  0  0
   -9.6453  -20.0444   19.5197 H   0  0  0  0  0  0  0  0  0  0  0  0
   -5.5067  -18.3444   22.2122 H   0  0  0  0  0  0  0  0  0  0  0  0
   -4.5801  -15.9571   21.2335 H   0  0  0  0  0  0  0  0  0  0  0  0
   -3.5878  -16.7229   21.6231 H   0  0  0  0  0  0  0  0  0  0  0  0
   -3.3036  -14.5714   23.6087 H   0  0  0  0  0  0  0  0  0  0  0  0
   -3.8570  -11.8715   24.5159 H   0  0  0  0  0  0  0  0  0  0  0  0
   -7.1227  -11.2559   23.3424 H   0  0  0  0  0  0  0  0  0  0  0  0
   -8.9223   -9.6663   24.0755 H   0  0  0  0  0  0  0  0  0  0  0  0
   -9.1757   -7.4405   25.9211 H   0  0  0  0  0  0  0  0  0  0  0  0
   -7.7669   -6.5327   27.7992 H   0  0  0  0  0  0  0  0  0  0  0  0
   -5.4092   -7.8847   27.5783 H   0  0  0  0  0  0  0  0  0  0  0  0
   -4.2245   -9.2195   24.8946 H   0  0  0  0  0  0  0  0  0  0  0  0
   -4.3720  -17.5161   20.0253 H   0  0  0  0  0  0  0  0  0  0  0  0
   -5.5290  -17.1014   18.4251 H   0  0  0  0  0  0  0  0  0  0  0  0
   -6.9192  -16.9614   19.5124 H   0  0  0  0  0  0  0  0  0  0  0  0
   -7.1959  -19.5503   18.6532 H   0  0  0  0  0  0  0  0  0  0  0  0
   -7.0932  -18.3482   17.6339 H   0  0  0  0  0  0  0  0  0  0  0  0
   -4.1118  -19.8478   20.2202 H   0  0  0  0  0  0  0  0  0  0  0  0
   -5.6757  -20.1471   20.3173 H   0  0  0  0  0  0  0  0  0  0  0  0
  1  2  1  0
  2  3  1  0
  3  4  2  0
  3  5  1  0
  5  6  1  0
  6  7  1  0
  7  8  1  0
  8  9  2  0
  8 10  1  0
 10 11  1  0
 11 12  2  0
 12 13  1  0
 13 14  2  0
 14 15  1  0
 15 16  1  0
 16 17  2  0
 17 18  1  0
 18 19  2  0
  5 20  1  0
 20 21  1  0
 21 22  1  0
 22 23  1  0
 23 24  1  0
 19 11  1  0
 24 20  1  0
 18 14  1  0
  1 25  1  0
  1 26  1  0
  1 27  1  0
  5 28  1  0
  6 29  1  0
  6 30  1  0
  7 31  1  0
 10 32  1  0
 12 33  1  0
 13 34  1  0
 15 35  1  0
 16 36  1  0
 17 37  1  0
 19 38  1  0
 20 39  1  0
 21 40  1  0
 21 41  1  0
 22 42  1  0
 22 43  1  0
 24 44  1  0
 24 45  1  0
M  END
>  <Energy>  (1179) 
507.81261542117278

>  <compound_id>  (1179) 
35924

>  <target_id>  (1179) 
1

>  <reference_id>  (1179) 
40

>  <inspiration_ids>  (1179) 
[28, 40]

>  <energy_score>  (1179) 
501.3879978854581

>  <distance_score>  (1179) 
10.646894774262798

>  <path>  (1179) 
/opt/xchem-fragalysis-2/maxwin/BulkDock/SCRATCH/511013/C35924-P40/C35924-P40.minimised.mol

>  <scratch_subdir>  (1179) 
/opt/xchem-fragalysis-2/maxwin/BulkDock/SCRATCH/511013/C35924-P40

>  <fragmenstein_runtime>  (1179) 
20.881285429000854

>  <fragmenstein_outcome>  (1179) 
too moved

>  <fragmenstein_mode>  (1179) 
expansion

>  <fragmenstein_error>  (1179) 


$$$$
C35926-P28
     RDKit          3D

 40 42  0  0  0  0  0  0  0  0999 V2000
   -5.8374  -24.3982   23.3148 O   0  0  0  0  0  0  0  0  0  0  0  0
   -5.0518  -24.3196   22.4038 C   0  0  0  0  0  0  0  0  0  0  0  0
   -3.5560  -23.7439   22.8359 C   0  0  0  0  0  0  0  0  0  0  0  0
   -3.5320  -22.2971   23.5646 C   0  0  0  0  0  0  0  0  0  0  0  0
   -2.5225  -21.6337   24.5767 C   0  0  0  0  0  0  0  0  0  0  0  0
   -3.0103  -21.1478   25.8117 C   0  0  0  0  0  0  0  0  0  0  0  0
   -2.2792  -20.2856   26.6712 C   0  0  0  0  0  0  0  0  0  0  0  0
   -1.0132  -19.8681   26.2662 C   0  0  0  0  0  0  0  0  0  0  0  0
   -0.1513  -18.9454   26.8243 N   0  0  0  0  0  0  0  0  0  0  0  0
    1.0073  -18.8941   26.0955 C   0  0  0  0  0  0  0  0  0  0  0  0
    0.8803  -19.7848   25.0472 C   0  0  0  0  0  0  0  0  0  0  0  0
   -0.4243  -20.3779   25.1089 C   0  0  0  0  0  0  0  0  0  0  0  0
   -1.1937  -21.2542   24.2592 C   0  0  0  0  0  0  0  0  0  0  0  0
   -5.2304  -24.5848   20.9422 N   0  0  0  0  0  0  0  0  0  0  0  0
   -6.5518  -24.9590   20.0886 C   0  0  0  0  0  0  0  0  0  0  0  0
   -6.8494  -24.3802   18.3065 C   0  0  0  0  0  0  0  0  0  0  0  0
   -8.1307  -24.7074   16.9354 C   0  0  0  0  0  0  0  0  0  0  0  0
   -8.7107  -23.5773   15.7340 C   0  0  0  0  0  0  0  0  0  0  0  0
   -7.4338  -22.9071   15.7303 O   0  0  0  0  0  0  0  0  0  0  0  0
   -6.4567  -22.9953   17.3505 C   0  0  0  0  0  0  0  0  0  0  0  0
   -2.9152  -23.7124   21.9486 H   0  0  0  0  0  0  0  0  0  0  0  0
   -3.1378  -24.4866   23.5249 H   0  0  0  0  0  0  0  0  0  0  0  0
   -3.4917  -21.6421   22.6935 H   0  0  0  0  0  0  0  0  0  0  0  0
   -4.5301  -22.1744   24.0002 H   0  0  0  0  0  0  0  0  0  0  0  0
   -4.0314  -21.3882   26.1113 H   0  0  0  0  0  0  0  0  0  0  0  0
   -2.7416  -19.9055   27.5778 H   0  0  0  0  0  0  0  0  0  0  0  0
   -0.3512  -18.4088   27.6580 H   0  0  0  0  0  0  0  0  0  0  0  0
    1.8189  -18.2397   26.3852 H   0  0  0  0  0  0  0  0  0  0  0  0
    1.6277  -19.9636   24.2844 H   0  0  0  0  0  0  0  0  0  0  0  0
   -0.7549  -21.5794   23.3186 H   0  0  0  0  0  0  0  0  0  0  0  0
   -4.3326  -24.4989   20.4758 H   0  0  0  0  0  0  0  0  0  0  0  0
   -7.4012  -24.7842   20.7487 H   0  0  0  0  0  0  0  0  0  0  0  0
   -6.4236  -26.0482   20.0264 H   0  0  0  0  0  0  0  0  0  0  0  0
   -6.0554  -25.1450   18.2398 H   0  0  0  0  0  0  0  0  0  0  0  0
   -8.7248  -25.6681   16.5877 H   0  0  0  0  0  0  0  0  0  0  0  0
   -7.1624  -25.1753   16.7805 H   0  0  0  0  0  0  0  0  0  0  0  0
   -9.5135  -22.8672   15.9667 H   0  0  0  0  0  0  0  0  0  0  0  0
   -9.1014  -24.0577   14.8224 H   0  0  0  0  0  0  0  0  0  0  0  0
   -5.4669  -22.6436   17.1313 H   0  0  0  0  0  0  0  0  0  0  0  0
   -6.7916  -21.8636   17.6318 H   0  0  0  0  0  0  0  0  0  0  0  0
  1  2  2  0
  2  3  1  0
  3  4  1  0
  4  5  1  0
  5  6  2  0
  6  7  1  0
  7  8  2  0
  8  9  1  0
  9 10  1  0
 10 11  2  0
 11 12  1  0
 12 13  2  0
  2 14  1  0
 14 15  1  0
 15 16  1  0
 16 17  1  0
 17 18  1  0
 18 19  1  0
 19 20  1  0
 13  5  1  0
 20 16  1  0
 12  8  1  0
  3 21  1  0
  3 22  1  0
  4 23  1  0
  4 24  1  0
  6 25  1  0
  7 26  1  0
  9 27  1  0
 10 28  1  0
 11 29  1  0
 13 30  1  0
 14 31  1  0
 15 32  1  0
 15 33  1  0
 16 34  1  0
 17 35  1  0
 17 36  1  0
 18 37  1  0
 18 38  1  0
 20 39  1  0
 20 40  1  0
M  END
>  <Energy>  (1180) 
334.97784604557114

>  <compound_id>  (1180) 
35926

>  <target_id>  (1180) 
1

>  <reference_id>  (1180) 
28

>  <inspiration_ids>  (1180) 
[28, 40]

>  <energy_score>  (1180) 
315.7266752606262

>  <distance_score>  (1180) 
13.672454282965994

>  <path>  (1180) 
/opt/xchem-fragalysis-2/maxwin/BulkDock/SCRATCH/511013/C35926-P28/C35926-P28.minimised.mol

>  <scratch_subdir>  (1180) 
/opt/xchem-fragalysis-2/maxwin/BulkDock/SCRATCH/511013/C35926-P28

>  <fragmenstein_runtime>  (1180) 
17.85826063156128

>  <fragmenstein_outcome>  (1180) 
too moved

>  <fragmenstein_mode>  (1180) 
expansion

>  <fragmenstein_error>  (1180) 


$$$$
C35926-P40
     RDKit          3D

 40 42  0  0  0  0  0  0  0  0999 V2000
   -6.3182  -12.7862   22.5869 O   0  0  0  0  0  0  0  0  0  0  0  0
   -5.6715  -13.2556   23.5062 C   0  0  0  0  0  0  0  0  0  0  0  0
   -5.8829  -12.0654   25.1207 C   0  0  0  0  0  0  0  0  0  0  0  0
   -6.1305  -10.3797   26.1399 C   0  0  0  0  0  0  0  0  0  0  0  0
   -5.5869   -8.4960   26.5229 C   0  0  0  0  0  0  0  0  0  0  0  0
   -6.3464   -8.1599   27.6090 C   0  0  0  0  0  0  0  0  0  0  0  0
   -5.5507   -7.8786   28.7968 C   0  0  0  0  0  0  0  0  0  0  0  0
   -3.7852   -7.5393   29.1411 C   0  0  0  0  0  0  0  0  0  0  0  0
   -2.7475   -7.4572   30.4343 N   0  0  0  0  0  0  0  0  0  0  0  0
   -1.4421   -7.2697   30.1035 C   0  0  0  0  0  0  0  0  0  0  0  0
   -1.4627   -7.4988   28.7641 C   0  0  0  0  0  0  0  0  0  0  0  0
   -2.9169   -7.3485   28.1287 C   0  0  0  0  0  0  0  0  0  0  0  0
   -4.0196   -7.8474   26.9130 C   0  0  0  0  0  0  0  0  0  0  0  0
   -4.6502  -14.8786   23.2932 N   0  0  0  0  0  0  0  0  0  0  0  0
   -4.4877  -16.1670   21.7519 C   0  0  0  0  0  0  0  0  0  0  0  0
   -5.5241  -17.6047   21.3487 C   0  0  0  0  0  0  0  0  0  0  0  0
   -5.0842  -18.6151   20.2181 C   0  0  0  0  0  0  0  0  0  0  0  0
   -6.2798  -18.9722   19.4936 C   0  0  0  0  0  0  0  0  0  0  0  0
   -6.6887  -17.6732   19.3485 O   0  0  0  0  0  0  0  0  0  0  0  0
   -6.8010  -17.3172   20.7629 C   0  0  0  0  0  0  0  0  0  0  0  0
   -6.5955  -11.5494   24.4700 H   0  0  0  0  0  0  0  0  0  0  0  0
   -6.4965  -12.6538   25.8351 H   0  0  0  0  0  0  0  0  0  0  0  0
   -7.1169  -10.1030   25.7384 H   0  0  0  0  0  0  0  0  0  0  0  0
   -5.2715  -10.4390   25.5541 H   0  0  0  0  0  0  0  0  0  0  0  0
   -7.3637   -8.5154   27.7426 H   0  0  0  0  0  0  0  0  0  0  0  0
   -6.1846   -8.1025   29.6837 H   0  0  0  0  0  0  0  0  0  0  0  0
   -3.1271   -7.7243   31.3385 H   0  0  0  0  0  0  0  0  0  0  0  0
   -0.6562   -7.2674   30.8476 H   0  0  0  0  0  0  0  0  0  0  0  0
   -0.5650   -7.8389   28.2644 H   0  0  0  0  0  0  0  0  0  0  0  0
   -3.4358   -7.1211   26.4678 H   0  0  0  0  0  0  0  0  0  0  0  0
   -4.2719  -15.1373   24.1525 H   0  0  0  0  0  0  0  0  0  0  0  0
   -3.8460  -16.1093   20.8432 H   0  0  0  0  0  0  0  0  0  0  0  0
   -3.8452  -16.7986   22.1989 H   0  0  0  0  0  0  0  0  0  0  0  0
   -5.7722  -18.0959   22.2938 H   0  0  0  0  0  0  0  0  0  0  0  0
   -4.5204  -18.0357   19.5063 H   0  0  0  0  0  0  0  0  0  0  0  0
   -4.6273  -19.5634   20.4891 H   0  0  0  0  0  0  0  0  0  0  0  0
   -6.9991  -19.4771   20.1152 H   0  0  0  0  0  0  0  0  0  0  0  0
   -6.0622  -19.4686   18.5875 H   0  0  0  0  0  0  0  0  0  0  0  0
   -7.2819  -16.3637   20.7743 H   0  0  0  0  0  0  0  0  0  0  0  0
   -7.4793  -17.9710   21.3540 H   0  0  0  0  0  0  0  0  0  0  0  0
  1  2  2  0
  2  3  1  0
  3  4  1  0
  4  5  1  0
  5  6  2  0
  6  7  1  0
  7  8  2  0
  8  9  1  0
  9 10  1  0
 10 11  2  0
 11 12  1  0
 12 13  2  0
  2 14  1  0
 14 15  1  0
 15 16  1  0
 16 17  1  0
 17 18  1  0
 18 19  1  0
 19 20  1  0
 13  5  1  0
 20 16  1  0
 12  8  1  0
  3 21  1  0
  3 22  1  0
  4 23  1  0
  4 24  1  0
  6 25  1  0
  7 26  1  0
  9 27  1  0
 10 28  1  0
 11 29  1  0
 13 30  1  0
 14 31  1  0
 15 32  1  0
 15 33  1  0
 16 34  1  0
 17 35  1  0
 17 36  1  0
 18 37  1  0
 18 38  1  0
 20 39  1  0
 20 40  1  0
M  END
>  <Energy>  (1181) 
831.39076916126749

>  <compound_id>  (1181) 
35926

>  <target_id>  (1181) 
1

>  <reference_id>  (1181) 
40

>  <inspiration_ids>  (1181) 
[28, 40]

>  <energy_score>  (1181) 
812.1395983763143

>  <distance_score>  (1181) 
8.235377723040477

>  <path>  (1181) 
/opt/xchem-fragalysis-2/maxwin/BulkDock/SCRATCH/511013/C35926-P40/C35926-P40.minimised.mol

>  <scratch_subdir>  (1181) 
/opt/xchem-fragalysis-2/maxwin/BulkDock/SCRATCH/511013/C35926-P40

>  <fragmenstein_runtime>  (1181) 
13.698555707931519

>  <fragmenstein_outcome>  (1181) 
too moved

>  <fragmenstein_mode>  (1181) 
expansion

>  <fragmenstein_error>  (1181) 


$$$$
C35927-P28
     RDKit          3D

 44 46  0  0  0  0  0  0  0  0999 V2000
   -2.5684  -16.5128   25.6066 O   0  0  0  0  0  0  0  0  0  0  0  0
   -3.0971  -15.4725   25.1816 C   0  0  0  0  0  0  0  0  0  0  0  0
   -2.5883  -13.8435   26.4325 C   0  0  0  0  0  0  0  0  0  0  0  0
   -2.8481  -12.4811   27.9614 C   0  0  0  0  0  0  0  0  0  0  0  0
   -1.9412  -11.0402   29.0300 C   0  0  0  0  0  0  0  0  0  0  0  0
   -1.7482  -10.6236   30.4394 C   0  0  0  0  0  0  0  0  0  0  0  0
   -1.4552   -9.3777   31.3343 C   0  0  0  0  0  0  0  0  0  0  0  0
   -0.6932   -8.4253   30.7667 C   0  0  0  0  0  0  0  0  0  0  0  0
   -0.1245   -7.2771   31.2242 N   0  0  0  0  0  0  0  0  0  0  0  0
    0.9463   -7.0024   30.4242 C   0  0  0  0  0  0  0  0  0  0  0  0
    1.0206   -8.0360   29.5023 C   0  0  0  0  0  0  0  0  0  0  0  0
   -0.1962   -8.7701   29.5404 C   0  0  0  0  0  0  0  0  0  0  0  0
   -0.8931   -9.8581   28.7566 C   0  0  0  0  0  0  0  0  0  0  0  0
   -4.0496  -15.3364   23.6209 N   0  0  0  0  0  0  0  0  0  0  0  0
   -4.3789  -16.6502   22.1637 C   0  0  0  0  0  0  0  0  0  0  0  0
   -5.7586  -17.7829   21.4556 C   0  0  0  0  0  0  0  0  0  0  0  0
   -6.9131  -17.0675   20.9565 C   0  0  0  0  0  0  0  0  0  0  0  0
   -7.9798  -17.0279   21.8322 O   0  0  0  0  0  0  0  0  0  0  0  0
   -5.2451  -18.4549   20.1020 C   0  0  0  0  0  0  0  0  0  0  0  0
   -6.3913  -19.1267   19.5015 C   0  0  0  0  0  0  0  0  0  0  0  0
   -7.2125  -19.4150   20.6204 O   0  0  0  0  0  0  0  0  0  0  0  0
   -6.6799  -18.8927   21.9084 C   0  0  0  0  0  0  0  0  0  0  0  0
   -1.9515  -13.2396   25.8054 H   0  0  0  0  0  0  0  0  0  0  0  0
   -1.9938  -14.4582   27.1191 H   0  0  0  0  0  0  0  0  0  0  0  0
   -3.8799  -12.1776   27.8414 H   0  0  0  0  0  0  0  0  0  0  0  0
   -2.9253  -13.1993   28.7993 H   0  0  0  0  0  0  0  0  0  0  0  0
   -1.3486  -11.3018   31.1488 H   0  0  0  0  0  0  0  0  0  0  0  0
   -1.6906   -9.3537   32.3850 H   0  0  0  0  0  0  0  0  0  0  0  0
   -0.3523   -6.8118   32.0941 H   0  0  0  0  0  0  0  0  0  0  0  0
    1.6018   -6.1666   30.6323 H   0  0  0  0  0  0  0  0  0  0  0  0
    1.8109   -8.1465   28.7719 H   0  0  0  0  0  0  0  0  0  0  0  0
   -0.5483   -9.7179   27.7949 H   0  0  0  0  0  0  0  0  0  0  0  0
   -4.4378  -14.4204   23.5497 H   0  0  0  0  0  0  0  0  0  0  0  0
   -4.7545  -15.9212   21.6206 H   0  0  0  0  0  0  0  0  0  0  0  0
   -3.5479  -16.7097   21.4170 H   0  0  0  0  0  0  0  0  0  0  0  0
   -6.8012  -16.0978   20.7903 H   0  0  0  0  0  0  0  0  0  0  0  0
   -7.0083  -17.1846   19.8951 H   0  0  0  0  0  0  0  0  0  0  0  0
   -7.5930  -16.8345   22.7114 H   0  0  0  0  0  0  0  0  0  0  0  0
   -4.5905  -19.2947   20.3052 H   0  0  0  0  0  0  0  0  0  0  0  0
   -4.8341  -17.7891   19.3513 H   0  0  0  0  0  0  0  0  0  0  0  0
   -6.0336  -19.9742   18.9803 H   0  0  0  0  0  0  0  0  0  0  0  0
   -6.9083  -18.5673   18.7220 H   0  0  0  0  0  0  0  0  0  0  0  0
   -7.5516  -18.7123   22.5398 H   0  0  0  0  0  0  0  0  0  0  0  0
   -6.4318  -19.6582   22.5922 H   0  0  0  0  0  0  0  0  0  0  0  0
  1  2  2  0
  2  3  1  0
  3  4  1  0
  4  5  1  0
  5  6  2  0
  6  7  1  0
  7  8  2  0
  8  9  1  0
  9 10  1  0
 10 11  2  0
 11 12  1  0
 12 13  2  0
  2 14  1  0
 14 15  1  0
 15 16  1  0
 16 17  1  0
 17 18  1  0
 16 19  1  0
 19 20  1  0
 20 21  1  0
 21 22  1  0
 13  5  1  0
 22 16  1  0
 12  8  1  0
  3 23  1  0
  3 24  1  0
  4 25  1  0
  4 26  1  0
  6 27  1  0
  7 28  1  0
  9 29  1  0
 10 30  1  0
 11 31  1  0
 13 32  1  0
 14 33  1  0
 15 34  1  0
 15 35  1  0
 17 36  1  0
 17 37  1  0
 18 38  1  0
 19 39  1  0
 19 40  1  0
 20 41  1  0
 20 42  1  0
 22 43  1  0
 22 44  1  0
M  END
>  <Energy>  (1182) 
786.22366009718451

>  <compound_id>  (1182) 
35927

>  <target_id>  (1182) 
1

>  <reference_id>  (1182) 
28

>  <inspiration_ids>  (1182) 
[28, 40]

>  <energy_score>  (1182) 
740.8958426229441

>  <distance_score>  (1182) 
7.556197462963436

>  <path>  (1182) 
/opt/xchem-fragalysis-2/maxwin/BulkDock/SCRATCH/511013/C35927-P28/C35927-P28.minimised.mol

>  <scratch_subdir>  (1182) 
/opt/xchem-fragalysis-2/maxwin/BulkDock/SCRATCH/511013/C35927-P28

>  <fragmenstein_runtime>  (1182) 
21.4186429977417

>  <fragmenstein_outcome>  (1182) 
too moved

>  <fragmenstein_mode>  (1182) 
expansion

>  <fragmenstein_error>  (1182) 


$$$$
C35927-P40
     RDKit          3D

 44 46  0  0  0  0  0  0  0  0999 V2000
   -8.3794  -15.1812   26.3450 O   0  0  0  0  0  0  0  0  0  0  0  0
   -7.5155  -14.6332   25.6639 C   0  0  0  0  0  0  0  0  0  0  0  0
   -6.7082  -13.1042   26.6866 C   0  0  0  0  0  0  0  0  0  0  0  0
   -5.6217  -12.7509   28.3129 C   0  0  0  0  0  0  0  0  0  0  0  0
   -4.0534  -12.2616   29.2496 C   0  0  0  0  0  0  0  0  0  0  0  0
   -4.2316  -11.4023   30.3248 C   0  0  0  0  0  0  0  0  0  0  0  0
   -3.2723   -9.8629   31.0969 C   0  0  0  0  0  0  0  0  0  0  0  0
   -1.8021   -9.7507   31.1432 C   0  0  0  0  0  0  0  0  0  0  0  0
   -0.9999   -8.6856   31.4275 N   0  0  0  0  0  0  0  0  0  0  0  0
   -0.3301   -8.4497   30.2651 C   0  0  0  0  0  0  0  0  0  0  0  0
   -0.5053   -9.6056   29.5067 C   0  0  0  0  0  0  0  0  0  0  0  0
   -1.4536  -10.6293   29.9952 C   0  0  0  0  0  0  0  0  0  0  0  0
   -2.6392  -11.7804   29.1725 C   0  0  0  0  0  0  0  0  0  0  0  0
   -6.9239  -15.1625   24.0889 N   0  0  0  0  0  0  0  0  0  0  0  0
   -7.3259  -16.8133   23.0338 C   0  0  0  0  0  0  0  0  0  0  0  0
   -6.7544  -17.5400   21.2985 C   0  0  0  0  0  0  0  0  0  0  0  0
   -5.3521  -17.7325   21.3374 C   0  0  0  0  0  0  0  0  0  0  0  0
   -4.9382  -18.9317   20.5456 O   0  0  0  0  0  0  0  0  0  0  0  0
   -6.5555  -17.6191   19.6244 C   0  0  0  0  0  0  0  0  0  0  0  0
   -6.7664  -19.0399   19.2630 C   0  0  0  0  0  0  0  0  0  0  0  0
   -7.4730  -19.5208   20.3979 O   0  0  0  0  0  0  0  0  0  0  0  0
   -7.2604  -18.8664   21.6123 C   0  0  0  0  0  0  0  0  0  0  0  0
   -6.5062  -12.2615   26.0111 H   0  0  0  0  0  0  0  0  0  0  0  0
   -7.6438  -12.8114   27.2008 H   0  0  0  0  0  0  0  0  0  0  0  0
   -6.2629  -11.9352   28.6831 H   0  0  0  0  0  0  0  0  0  0  0  0
   -5.9314  -13.5987   28.9503 H   0  0  0  0  0  0  0  0  0  0  0  0
   -5.3055  -11.4905   30.7190 H   0  0  0  0  0  0  0  0  0  0  0  0
   -3.8491   -9.0097   31.5574 H   0  0  0  0  0  0  0  0  0  0  0  0
   -1.1640   -8.0122   32.1656 H   0  0  0  0  0  0  0  0  0  0  0  0
    0.2412   -7.5462   30.1051 H   0  0  0  0  0  0  0  0  0  0  0  0
   -0.0571   -9.6743   28.5945 H   0  0  0  0  0  0  0  0  0  0  0  0
   -2.2273  -12.7884   29.0994 H   0  0  0  0  0  0  0  0  0  0  0  0
   -6.2764  -14.4774   23.7251 H   0  0  0  0  0  0  0  0  0  0  0  0
   -8.1577  -16.6921   22.4675 H   0  0  0  0  0  0  0  0  0  0  0  0
   -6.7874  -17.5992   23.5657 H   0  0  0  0  0  0  0  0  0  0  0  0
   -4.6817  -16.8980   21.1032 H   0  0  0  0  0  0  0  0  0  0  0  0
   -5.2796  -17.9350   22.3719 H   0  0  0  0  0  0  0  0  0  0  0  0
   -5.1057  -19.7256   21.0918 H   0  0  0  0  0  0  0  0  0  0  0  0
   -7.2032  -17.0789   18.9920 H   0  0  0  0  0  0  0  0  0  0  0  0
   -5.5851  -17.5006   19.1217 H   0  0  0  0  0  0  0  0  0  0  0  0
   -7.2835  -19.1909   18.3238 H   0  0  0  0  0  0  0  0  0  0  0  0
   -5.8734  -19.6142   19.0314 H   0  0  0  0  0  0  0  0  0  0  0  0
   -6.6270  -19.3837   22.3225 H   0  0  0  0  0  0  0  0  0  0  0  0
   -8.0802  -18.8136   22.2963 H   0  0  0  0  0  0  0  0  0  0  0  0
  1  2  2  0
  2  3  1  0
  3  4  1  0
  4  5  1  0
  5  6  2  0
  6  7  1  0
  7  8  2  0
  8  9  1  0
  9 10  1  0
 10 11  2  0
 11 12  1  0
 12 13  2  0
  2 14  1  0
 14 15  1  0
 15 16  1  0
 16 17  1  0
 17 18  1  0
 16 19  1  0
 19 20  1  0
 20 21  1  0
 21 22  1  0
 13  5  1  0
 22 16  1  0
 12  8  1  0
  3 23  1  0
  3 24  1  0
  4 25  1  0
  4 26  1  0
  6 27  1  0
  7 28  1  0
  9 29  1  0
 10 30  1  0
 11 31  1  0
 13 32  1  0
 14 33  1  0
 15 34  1  0
 15 35  1  0
 17 36  1  0
 17 37  1  0
 18 38  1  0
 19 39  1  0
 19 40  1  0
 20 41  1  0
 20 42  1  0
 22 43  1  0
 22 44  1  0
M  END
>  <Energy>  (1183) 
842.93213021552094

>  <compound_id>  (1183) 
35927

>  <target_id>  (1183) 
1

>  <reference_id>  (1183) 
40

>  <inspiration_ids>  (1183) 
[28, 40]

>  <energy_score>  (1183) 
797.6043127412687

>  <distance_score>  (1183) 
8.145140872372695

>  <path>  (1183) 
/opt/xchem-fragalysis-2/maxwin/BulkDock/SCRATCH/511013/C35927-P40/C35927-P40.minimised.mol

>  <scratch_subdir>  (1183) 
/opt/xchem-fragalysis-2/maxwin/BulkDock/SCRATCH/511013/C35927-P40

>  <fragmenstein_runtime>  (1183) 
25.240689277648926

>  <fragmenstein_outcome>  (1183) 
too moved

>  <fragmenstein_mode>  (1183) 
expansion

>  <fragmenstein_error>  (1183) 


$$$$
C35904-P28
     RDKit          3D

 40 42  0  0  0  0  0  0  0  0999 V2000
   -8.2526   -6.0406   20.2956 O   0  0  0  0  0  0  0  0  0  0  0  0
   -9.3040   -6.0832   20.8679 C   0  0  0  0  0  0  0  0  0  0  0  0
   -9.3207   -5.8263   22.4164 C   0  0  0  0  0  0  0  0  0  0  0  0
   -7.9642   -6.0460   23.1745 C   0  0  0  0  0  0  0  0  0  0  0  0
   -7.3274   -4.8455   23.8699 C   0  0  0  0  0  0  0  0  0  0  0  0
   -7.6586   -4.5022   25.1911 C   0  0  0  0  0  0  0  0  0  0  0  0
   -7.0121   -3.4569   25.8790 C   0  0  0  0  0  0  0  0  0  0  0  0
   -5.9885   -2.7725   25.2103 C   0  0  0  0  0  0  0  0  0  0  0  0
   -5.0903   -1.8313   25.6681 N   0  0  0  0  0  0  0  0  0  0  0  0
   -4.2043   -1.5076   24.6775 C   0  0  0  0  0  0  0  0  0  0  0  0
   -4.5339   -2.2355   23.5586 C   0  0  0  0  0  0  0  0  0  0  0  0
   -5.6381   -3.0671   23.8889 C   0  0  0  0  0  0  0  0  0  0  0  0
   -6.3300   -4.1001   23.2111 C   0  0  0  0  0  0  0  0  0  0  0  0
  -10.6606   -6.2665   20.3549 N   0  0  0  0  0  0  0  0  0  0  0  0
  -11.1714   -6.3584   18.9583 C   0  0  0  0  0  0  0  0  0  0  0  0
  -11.3100   -7.7587   18.2992 C   0  0  0  0  0  0  0  0  0  0  0  0
  -10.1473   -8.4045   18.5505 F   0  0  0  0  0  0  0  0  0  0  0  0
  -12.4997   -8.6139   18.7025 C   0  0  0  0  0  0  0  0  0  0  0  0
  -12.5483   -9.6738   17.6117 C   0  0  0  0  0  0  0  0  0  0  0  0
  -12.1326   -9.0154   16.4086 O   0  0  0  0  0  0  0  0  0  0  0  0
  -11.5297   -7.7515   16.7818 C   0  0  0  0  0  0  0  0  0  0  0  0
  -10.0569   -6.5145   22.8505 H   0  0  0  0  0  0  0  0  0  0  0  0
   -9.6837   -4.8037   22.5713 H   0  0  0  0  0  0  0  0  0  0  0  0
   -8.1341   -6.8108   23.9452 H   0  0  0  0  0  0  0  0  0  0  0  0
   -7.2202   -6.4937   22.5045 H   0  0  0  0  0  0  0  0  0  0  0  0
   -8.4253   -5.0693   25.7171 H   0  0  0  0  0  0  0  0  0  0  0  0
   -7.2643   -3.2308   26.9099 H   0  0  0  0  0  0  0  0  0  0  0  0
   -5.0508   -1.4815   26.6151 H   0  0  0  0  0  0  0  0  0  0  0  0
   -3.4035   -0.8018   24.8569 H   0  0  0  0  0  0  0  0  0  0  0  0
   -4.0054   -2.1997   22.6165 H   0  0  0  0  0  0  0  0  0  0  0  0
   -6.0475   -4.3480   22.1896 H   0  0  0  0  0  0  0  0  0  0  0  0
  -11.3200   -6.1667   21.1180 H   0  0  0  0  0  0  0  0  0  0  0  0
  -12.1311   -5.8316   18.9388 H   0  0  0  0  0  0  0  0  0  0  0  0
  -10.4581   -5.7775   18.3619 H   0  0  0  0  0  0  0  0  0  0  0  0
  -13.4146   -8.0088   18.6492 H   0  0  0  0  0  0  0  0  0  0  0  0
  -12.4564   -9.0291   19.7072 H   0  0  0  0  0  0  0  0  0  0  0  0
  -11.8628  -10.4985   17.8048 H   0  0  0  0  0  0  0  0  0  0  0  0
  -13.5535  -10.0826   17.4764 H   0  0  0  0  0  0  0  0  0  0  0  0
  -10.6060   -7.6139   16.2154 H   0  0  0  0  0  0  0  0  0  0  0  0
  -12.2353   -6.9662   16.4878 H   0  0  0  0  0  0  0  0  0  0  0  0
  1  2  2  0
  2  3  1  0
  3  4  1  0
  4  5  1  0
  5  6  2  0
  6  7  1  0
  7  8  2  0
  8  9  1  0
  9 10  1  0
 10 11  2  0
 11 12  1  0
 12 13  2  0
  2 14  1  0
 14 15  1  0
 15 16  1  0
 16 17  1  0
 16 18  1  0
 18 19  1  0
 19 20  1  0
 20 21  1  0
 13  5  1  0
 21 16  1  0
 12  8  1  0
  3 22  1  0
  3 23  1  0
  4 24  1  0
  4 25  1  0
  6 26  1  0
  7 27  1  0
  9 28  1  0
 10 29  1  0
 11 30  1  0
 13 31  1  0
 14 32  1  0
 15 33  1  0
 15 34  1  0
 18 35  1  0
 18 36  1  0
 19 37  1  0
 19 38  1  0
 21 39  1  0
 21 40  1  0
M  END
>  <Energy>  (1184) 
48.269942156866591

>  <compound_id>  (1184) 
35904

>  <target_id>  (1184) 
1

>  <reference_id>  (1184) 
28

>  <inspiration_ids>  (1184) 
[28, 40]

>  <energy_score>  (1184) 
-8.221070612335154

>  <distance_score>  (1184) 
12.268386190162088

>  <path>  (1184) 
/opt/xchem-fragalysis-2/maxwin/BulkDock/SCRATCH/511013/C35904-P28/C35904-P28.minimised.mol

>  <scratch_subdir>  (1184) 
/opt/xchem-fragalysis-2/maxwin/BulkDock/SCRATCH/511013/C35904-P28

>  <fragmenstein_runtime>  (1184) 
18.29034113883972

>  <fragmenstein_outcome>  (1184) 
too moved

>  <fragmenstein_mode>  (1184) 
expansion

>  <fragmenstein_error>  (1184) 


$$$$
C35904-P40
     RDKit          3D

 40 42  0  0  0  0  0  0  0  0999 V2000
   -3.7538  -14.8082   23.1754 O   0  0  0  0  0  0  0  0  0  0  0  0
   -4.6624  -14.2412   23.6984 C   0  0  0  0  0  0  0  0  0  0  0  0
   -4.0474  -12.3903   24.5526 C   0  0  0  0  0  0  0  0  0  0  0  0
   -2.9404  -12.1418   26.3223 C   0  0  0  0  0  0  0  0  0  0  0  0
   -2.0694  -11.2758   27.9022 C   0  0  0  0  0  0  0  0  0  0  0  0
   -2.3180  -11.5735   29.2434 C   0  0  0  0  0  0  0  0  0  0  0  0
   -1.3433  -10.7126   30.4159 C   0  0  0  0  0  0  0  0  0  0  0  0
   -0.9139   -9.4019   30.6340 C   0  0  0  0  0  0  0  0  0  0  0  0
   -0.6658   -8.4662   31.5818 N   0  0  0  0  0  0  0  0  0  0  0  0
   -0.0501   -7.3989   30.9554 C   0  0  0  0  0  0  0  0  0  0  0  0
    0.2279   -7.7743   29.6508 C   0  0  0  0  0  0  0  0  0  0  0  0
   -0.3156   -9.0877   29.4892 C   0  0  0  0  0  0  0  0  0  0  0  0
   -0.8544  -10.0349   28.4075 C   0  0  0  0  0  0  0  0  0  0  0  0
   -6.3093  -14.9595   23.8894 N   0  0  0  0  0  0  0  0  0  0  0  0
   -6.9932  -16.7402   23.4865 C   0  0  0  0  0  0  0  0  0  0  0  0
   -6.9154  -17.9703   22.4281 C   0  0  0  0  0  0  0  0  0  0  0  0
   -8.1887  -17.9092   21.8823 F   0  0  0  0  0  0  0  0  0  0  0  0
   -6.1207  -17.9011   21.1569 C   0  0  0  0  0  0  0  0  0  0  0  0
   -6.1567  -19.2838   20.6306 C   0  0  0  0  0  0  0  0  0  0  0  0
   -6.7205  -20.1423   21.6426 O   0  0  0  0  0  0  0  0  0  0  0  0
   -7.0266  -19.4078   22.8307 C   0  0  0  0  0  0  0  0  0  0  0  0
   -5.0108  -11.8536   24.7109 H   0  0  0  0  0  0  0  0  0  0  0  0
   -3.5389  -11.6561   23.9769 H   0  0  0  0  0  0  0  0  0  0  0  0
   -3.6606  -12.4905   27.0736 H   0  0  0  0  0  0  0  0  0  0  0  0
   -2.2828  -13.0058   26.1583 H   0  0  0  0  0  0  0  0  0  0  0  0
   -2.8542  -12.4857   29.5052 H   0  0  0  0  0  0  0  0  0  0  0  0
   -0.9762  -11.3012   31.2130 H   0  0  0  0  0  0  0  0  0  0  0  0
   -0.9439   -8.5152   32.5564 H   0  0  0  0  0  0  0  0  0  0  0  0
    0.1556   -6.4875   31.5026 H   0  0  0  0  0  0  0  0  0  0  0  0
    0.6830   -7.1381   28.9040 H   0  0  0  0  0  0  0  0  0  0  0  0
   -0.7236   -8.9861   28.0559 H   0  0  0  0  0  0  0  0  0  0  0  0
   -6.8526  -14.3712   24.4050 H   0  0  0  0  0  0  0  0  0  0  0  0
   -7.7323  -16.4737   22.7402 H   0  0  0  0  0  0  0  0  0  0  0  0
   -7.6259  -16.3512   24.2745 H   0  0  0  0  0  0  0  0  0  0  0  0
   -5.1475  -17.4567   21.2472 H   0  0  0  0  0  0  0  0  0  0  0  0
   -6.5917  -17.2576   20.4229 H   0  0  0  0  0  0  0  0  0  0  0  0
   -5.1786  -19.6640   20.3296 H   0  0  0  0  0  0  0  0  0  0  0  0
   -6.7767  -19.2714   19.7364 H   0  0  0  0  0  0  0  0  0  0  0  0
   -8.0366  -19.7139   23.1105 H   0  0  0  0  0  0  0  0  0  0  0  0
   -6.4594  -19.7135   23.7040 H   0  0  0  0  0  0  0  0  0  0  0  0
  1  2  2  0
  2  3  1  0
  3  4  1  0
  4  5  1  0
  5  6  2  0
  6  7  1  0
  7  8  2  0
  8  9  1  0
  9 10  1  0
 10 11  2  0
 11 12  1  0
 12 13  2  0
  2 14  1  0
 14 15  1  0
 15 16  1  0
 16 17  1  0
 16 18  1  0
 18 19  1  0
 19 20  1  0
 20 21  1  0
 13  5  1  0
 21 16  1  0
 12  8  1  0
  3 22  1  0
  3 23  1  0
  4 24  1  0
  4 25  1  0
  6 26  1  0
  7 27  1  0
  9 28  1  0
 10 29  1  0
 11 30  1  0
 13 31  1  0
 14 32  1  0
 15 33  1  0
 15 34  1  0
 18 35  1  0
 18 36  1  0
 19 37  1  0
 19 38  1  0
 21 39  1  0
 21 40  1  0
M  END
>  <Energy>  (1185) 
811.25632271044901

>  <compound_id>  (1185) 
35904

>  <target_id>  (1185) 
1

>  <reference_id>  (1185) 
40

>  <inspiration_ids>  (1185) 
[28, 40]

>  <energy_score>  (1185) 
754.7653099412423

>  <distance_score>  (1185) 
8.319682142954184

>  <path>  (1185) 
/opt/xchem-fragalysis-2/maxwin/BulkDock/SCRATCH/511013/C35904-P40/C35904-P40.minimised.mol

>  <scratch_subdir>  (1185) 
/opt/xchem-fragalysis-2/maxwin/BulkDock/SCRATCH/511013/C35904-P40

>  <fragmenstein_runtime>  (1185) 
14.030200481414795

>  <fragmenstein_outcome>  (1185) 
too moved

>  <fragmenstein_mode>  (1185) 
expansion

>  <fragmenstein_error>  (1185) 


$$$$
C35928-P28
     RDKit          3D

 43 45  0  0  0  0  0  0  0  0999 V2000
   -8.5472  -16.1632   18.0048 C   0  0  0  0  0  0  0  0  0  0  0  0
   -9.9414  -15.7906   18.8102 C   0  0  0  0  0  0  0  0  0  0  0  0
   -9.9539  -13.7979   19.6420 C   0  0  0  0  0  0  0  0  0  0  0  0
   -9.6923  -12.7633   21.3998 N   0  0  0  0  0  0  0  0  0  0  0  0
  -10.8677  -11.7915   22.5317 C   0  0  0  0  0  0  0  0  0  0  0  0
  -12.0553  -11.6569   22.4883 O   0  0  0  0  0  0  0  0  0  0  0  0
  -10.1757  -10.7883   23.7972 C   0  0  0  0  0  0  0  0  0  0  0  0
  -10.2222  -10.5312   25.3505 C   0  0  0  0  0  0  0  0  0  0  0  0
   -9.4076   -9.2676   25.7661 C   0  0  0  0  0  0  0  0  0  0  0  0
   -9.4513   -8.0920   24.9894 C   0  0  0  0  0  0  0  0  0  0  0  0
   -8.7774   -6.9113   25.3294 C   0  0  0  0  0  0  0  0  0  0  0  0
   -8.1077   -6.8980   26.5426 C   0  0  0  0  0  0  0  0  0  0  0  0
   -7.4815   -5.8563   27.1773 N   0  0  0  0  0  0  0  0  0  0  0  0
   -7.0985   -6.2589   28.4186 C   0  0  0  0  0  0  0  0  0  0  0  0
   -7.3397   -7.6091   28.5334 C   0  0  0  0  0  0  0  0  0  0  0  0
   -8.0388   -8.0183   27.3709 C   0  0  0  0  0  0  0  0  0  0  0  0
   -8.6669   -9.2258   26.9642 C   0  0  0  0  0  0  0  0  0  0  0  0
  -11.2928  -17.4002   18.5830 C   0  0  0  0  0  0  0  0  0  0  0  0
  -12.7070  -17.9665   17.1720 C   0  0  0  0  0  0  0  0  0  0  0  0
  -11.6619  -17.9350   16.3965 O   0  0  0  0  0  0  0  0  0  0  0  0
  -10.9984  -17.2703   17.7201 C   0  0  0  0  0  0  0  0  0  0  0  0
   -8.4427  -16.5499   17.0002 H   0  0  0  0  0  0  0  0  0  0  0  0
   -7.9424  -16.9337   18.4561 H   0  0  0  0  0  0  0  0  0  0  0  0
   -8.0734  -15.2398   17.8746 H   0  0  0  0  0  0  0  0  0  0  0  0
   -8.8460  -13.8615   19.6599 H   0  0  0  0  0  0  0  0  0  0  0  0
   -9.9226  -12.9407   18.9169 H   0  0  0  0  0  0  0  0  0  0  0  0
   -8.7907  -12.6003   21.6595 H   0  0  0  0  0  0  0  0  0  0  0  0
  -10.8586   -9.9364   23.6159 H   0  0  0  0  0  0  0  0  0  0  0  0
   -9.2278  -10.4108   23.4011 H   0  0  0  0  0  0  0  0  0  0  0  0
  -11.2648  -10.3599   25.6523 H   0  0  0  0  0  0  0  0  0  0  0  0
   -9.8975  -11.3842   25.9433 H   0  0  0  0  0  0  0  0  0  0  0  0
  -10.0425   -8.0611   24.0770 H   0  0  0  0  0  0  0  0  0  0  0  0
   -8.8499   -6.0296   24.7020 H   0  0  0  0  0  0  0  0  0  0  0  0
   -7.4331   -4.9104   26.8239 H   0  0  0  0  0  0  0  0  0  0  0  0
   -6.6878   -5.5494   29.1210 H   0  0  0  0  0  0  0  0  0  0  0  0
   -7.1275   -8.2197   29.4018 H   0  0  0  0  0  0  0  0  0  0  0  0
   -8.6098  -10.0958   27.6132 H   0  0  0  0  0  0  0  0  0  0  0  0
  -11.5508  -17.6215   19.5372 H   0  0  0  0  0  0  0  0  0  0  0  0
  -10.9272  -18.4790   18.7361 H   0  0  0  0  0  0  0  0  0  0  0  0
  -13.1717  -18.9083   17.4982 H   0  0  0  0  0  0  0  0  0  0  0  0
  -13.5233  -17.2982   16.8317 H   0  0  0  0  0  0  0  0  0  0  0  0
  -11.4522  -16.7306   16.9514 H   0  0  0  0  0  0  0  0  0  0  0  0
   -9.9507  -18.1960   17.5092 H   0  0  0  0  0  0  0  0  0  0  0  0
  1  2  1  0
  2  3  1  0
  3  4  1  0
  4  5  1  0
  5  6  2  0
  5  7  1  0
  7  8  1  0
  8  9  1  0
  9 10  2  0
 10 11  1  0
 11 12  2  0
 12 13  1  0
 13 14  1  0
 14 15  2  0
 15 16  1  0
 16 17  2  0
  2 18  1  0
 18 19  1  0
 19 20  1  0
 20 21  1  0
 21  2  1  0
 17  9  1  0
 16 12  1  0
  1 22  1  0
  1 23  1  0
  1 24  1  0
  3 25  1  0
  3 26  1  0
  4 27  1  0
  7 28  1  0
  7 29  1  0
  8 30  1  0
  8 31  1  0
 10 32  1  0
 11 33  1  0
 13 34  1  0
 14 35  1  0
 15 36  1  0
 17 37  1  0
 18 38  1  0
 18 39  1  0
 19 40  1  0
 19 41  1  0
 21 42  1  0
 21 43  1  0
M  END
>  <Energy>  (1186) 
1172.9520324190046

>  <compound_id>  (1186) 
35928

>  <target_id>  (1186) 
1

>  <reference_id>  (1186) 
28

>  <inspiration_ids>  (1186) 
[28, 40]

>  <energy_score>  (1186) 
1124.4946977548298

>  <distance_score>  (1186) 
10.08813017044888

>  <path>  (1186) 
/opt/xchem-fragalysis-2/maxwin/BulkDock/SCRATCH/511013/C35928-P28/C35928-P28.minimised.mol

>  <scratch_subdir>  (1186) 
/opt/xchem-fragalysis-2/maxwin/BulkDock/SCRATCH/511013/C35928-P28

>  <fragmenstein_runtime>  (1186) 
20.5161874294281

>  <fragmenstein_outcome>  (1186) 
too moved

>  <fragmenstein_mode>  (1186) 
expansion

>  <fragmenstein_error>  (1186) 


$$$$
C35928-P40
     RDKit          3D

 43 45  0  0  0  0  0  0  0  0999 V2000
   -6.4748  -17.2811   19.5678 C   0  0  0  0  0  0  0  0  0  0  0  0
   -5.6075  -17.5566   20.8301 C   0  0  0  0  0  0  0  0  0  0  0  0
   -4.4908  -16.2666   21.6162 C   0  0  0  0  0  0  0  0  0  0  0  0
   -4.6301  -14.9942   23.1479 N   0  0  0  0  0  0  0  0  0  0  0  0
   -5.6063  -13.4126   23.3347 C   0  0  0  0  0  0  0  0  0  0  0  0
   -6.3230  -12.9101   22.4811 O   0  0  0  0  0  0  0  0  0  0  0  0
   -5.5370  -12.4629   24.5406 C   0  0  0  0  0  0  0  0  0  0  0  0
   -6.4957  -12.1873   26.1302 C   0  0  0  0  0  0  0  0  0  0  0  0
   -7.1166  -11.1576   27.1309 C   0  0  0  0  0  0  0  0  0  0  0  0
   -7.1869  -11.3862   28.5123 C   0  0  0  0  0  0  0  0  0  0  0  0
   -7.4692  -10.3318   29.4179 C   0  0  0  0  0  0  0  0  0  0  0  0
   -7.5281   -9.0400   28.8696 C   0  0  0  0  0  0  0  0  0  0  0  0
   -7.3196   -7.7986   29.4199 N   0  0  0  0  0  0  0  0  0  0  0  0
   -7.3394   -6.8329   28.4387 C   0  0  0  0  0  0  0  0  0  0  0  0
   -7.6885   -7.4371   27.2601 C   0  0  0  0  0  0  0  0  0  0  0  0
   -7.6945   -8.8337   27.5101 C   0  0  0  0  0  0  0  0  0  0  0  0
   -7.6975   -9.9510   26.6664 C   0  0  0  0  0  0  0  0  0  0  0  0
   -4.9093  -18.6040   19.9828 C   0  0  0  0  0  0  0  0  0  0  0  0
   -5.8972  -19.6401   19.9732 C   0  0  0  0  0  0  0  0  0  0  0  0
   -7.0120  -19.2670   20.7996 O   0  0  0  0  0  0  0  0  0  0  0  0
   -6.6136  -18.2452   21.6985 C   0  0  0  0  0  0  0  0  0  0  0  0
   -5.9121  -17.0868   18.6430 H   0  0  0  0  0  0  0  0  0  0  0  0
   -7.1095  -16.5127   19.9564 H   0  0  0  0  0  0  0  0  0  0  0  0
   -7.0269  -18.0497   19.0418 H   0  0  0  0  0  0  0  0  0  0  0  0
   -3.9543  -16.9171   22.1617 H   0  0  0  0  0  0  0  0  0  0  0  0
   -3.7228  -16.1613   20.8224 H   0  0  0  0  0  0  0  0  0  0  0  0
   -4.0708  -15.1383   23.9490 H   0  0  0  0  0  0  0  0  0  0  0  0
   -6.2390  -11.8227   24.0626 H   0  0  0  0  0  0  0  0  0  0  0  0
   -4.5311  -12.0511   24.3768 H   0  0  0  0  0  0  0  0  0  0  0  0
   -6.8535  -13.1684   26.4530 H   0  0  0  0  0  0  0  0  0  0  0  0
   -7.1839  -11.6835   25.5087 H   0  0  0  0  0  0  0  0  0  0  0  0
   -6.8852  -12.3490   28.9163 H   0  0  0  0  0  0  0  0  0  0  0  0
   -7.3810  -10.4922   30.4872 H   0  0  0  0  0  0  0  0  0  0  0  0
   -7.0015   -7.6505   30.3689 H   0  0  0  0  0  0  0  0  0  0  0  0
   -7.1025   -5.8033   28.6648 H   0  0  0  0  0  0  0  0  0  0  0  0
   -7.7798   -6.9527   26.2977 H   0  0  0  0  0  0  0  0  0  0  0  0
   -7.8635   -9.7835   25.6054 H   0  0  0  0  0  0  0  0  0  0  0  0
   -4.6640  -18.3446   18.9476 H   0  0  0  0  0  0  0  0  0  0  0  0
   -4.0949  -19.2188   20.2927 H   0  0  0  0  0  0  0  0  0  0  0  0
   -5.3544  -20.4886   20.3805 H   0  0  0  0  0  0  0  0  0  0  0  0
   -6.2024  -19.7650   18.9376 H   0  0  0  0  0  0  0  0  0  0  0  0
   -7.4937  -17.6465   21.9295 H   0  0  0  0  0  0  0  0  0  0  0  0
   -6.2953  -18.6427   22.6496 H   0  0  0  0  0  0  0  0  0  0  0  0
  1  2  1  0
  2  3  1  0
  3  4  1  0
  4  5  1  0
  5  6  2  0
  5  7  1  0
  7  8  1  0
  8  9  1  0
  9 10  2  0
 10 11  1  0
 11 12  2  0
 12 13  1  0
 13 14  1  0
 14 15  2  0
 15 16  1  0
 16 17  2  0
  2 18  1  0
 18 19  1  0
 19 20  1  0
 20 21  1  0
 21  2  1  0
 17  9  1  0
 16 12  1  0
  1 22  1  0
  1 23  1  0
  1 24  1  0
  3 25  1  0
  3 26  1  0
  4 27  1  0
  7 28  1  0
  7 29  1  0
  8 30  1  0
  8 31  1  0
 10 32  1  0
 11 33  1  0
 13 34  1  0
 14 35  1  0
 15 36  1  0
 17 37  1  0
 18 38  1  0
 18 39  1  0
 19 40  1  0
 19 41  1  0
 21 42  1  0
 21 43  1  0
M  END
>  <Energy>  (1187) 
447.90668555930176

>  <compound_id>  (1187) 
35928

>  <target_id>  (1187) 
1

>  <reference_id>  (1187) 
40

>  <inspiration_ids>  (1187) 
[28, 40]

>  <energy_score>  (1187) 
399.4493508951167

>  <distance_score>  (1187) 
9.944856825499842

>  <path>  (1187) 
/opt/xchem-fragalysis-2/maxwin/BulkDock/SCRATCH/511013/C35928-P40/C35928-P40.minimised.mol

>  <scratch_subdir>  (1187) 
/opt/xchem-fragalysis-2/maxwin/BulkDock/SCRATCH/511013/C35928-P40

>  <fragmenstein_runtime>  (1187) 
21.5649197101593

>  <fragmenstein_outcome>  (1187) 
too moved

>  <fragmenstein_mode>  (1187) 
expansion

>  <fragmenstein_error>  (1187) 


$$$$
C35930-P28
     RDKit          3D

 38 40  0  0  0  0  0  0  0  0999 V2000
   -5.2116  -14.3499   23.5644 O   0  0  0  0  0  0  0  0  0  0  0  0
   -4.9041  -15.4538   23.9826 C   0  0  0  0  0  0  0  0  0  0  0  0
   -3.1373  -15.3088   25.1536 C   0  0  0  0  0  0  0  0  0  0  0  0
   -2.4711  -13.8471   26.3420 O   0  0  0  0  0  0  0  0  0  0  0  0
   -2.7927  -12.2989   27.3021 C   0  0  0  0  0  0  0  0  0  0  0  0
   -2.7397  -12.1418   28.9090 C   0  0  0  0  0  0  0  0  0  0  0  0
   -1.9252  -11.0083   29.9431 C   0  0  0  0  0  0  0  0  0  0  0  0
   -1.1473   -9.9044   29.7649 C   0  0  0  0  0  0  0  0  0  0  0  0
   -0.7054   -8.9234   30.5929 N   0  0  0  0  0  0  0  0  0  0  0  0
    0.2040   -8.2602   29.8796 C   0  0  0  0  0  0  0  0  0  0  0  0
    0.2527   -8.9765   28.6825 C   0  0  0  0  0  0  0  0  0  0  0  0
   -0.8590   -9.8916   28.4460 C   0  0  0  0  0  0  0  0  0  0  0  0
   -1.8375  -11.0637   27.4030 C   0  0  0  0  0  0  0  0  0  0  0  0
   -5.8879  -17.2011   23.4299 N   0  0  0  0  0  0  0  0  0  0  0  0
   -7.1548  -17.5004   22.2469 C   0  0  0  0  0  0  0  0  0  0  0  0
   -6.3912  -18.3666   21.1267 C   0  0  0  0  0  0  0  0  0  0  0  0
   -5.1721  -18.2168   20.2464 C   0  0  0  0  0  0  0  0  0  0  0  0
   -5.4696  -18.2052   18.8052 C   0  0  0  0  0  0  0  0  0  0  0  0
   -6.8436  -18.4561   18.8037 O   0  0  0  0  0  0  0  0  0  0  0  0
   -7.0006  -19.1298   20.0384 C   0  0  0  0  0  0  0  0  0  0  0  0
   -2.3687  -15.0203   24.4430 H   0  0  0  0  0  0  0  0  0  0  0  0
   -2.6995  -16.2126   25.6051 H   0  0  0  0  0  0  0  0  0  0  0  0
   -3.0859  -12.9408   29.5759 H   0  0  0  0  0  0  0  0  0  0  0  0
   -1.5641  -11.1687   30.9624 H   0  0  0  0  0  0  0  0  0  0  0  0
   -0.9021   -8.8364   31.5840 H   0  0  0  0  0  0  0  0  0  0  0  0
    0.8250   -7.4812   30.2998 H   0  0  0  0  0  0  0  0  0  0  0  0
    1.1456   -8.7495   28.1466 H   0  0  0  0  0  0  0  0  0  0  0  0
   -2.1506  -10.4727   26.4950 H   0  0  0  0  0  0  0  0  0  0  0  0
   -5.4297  -18.0075   23.8182 H   0  0  0  0  0  0  0  0  0  0  0  0
   -7.7294  -16.7268   21.7643 H   0  0  0  0  0  0  0  0  0  0  0  0
   -7.7932  -18.2427   22.7113 H   0  0  0  0  0  0  0  0  0  0  0  0
   -6.1776  -19.1583   21.8089 H   0  0  0  0  0  0  0  0  0  0  0  0
   -4.6486  -19.1907   20.3099 H   0  0  0  0  0  0  0  0  0  0  0  0
   -4.4269  -17.4772   20.4611 H   0  0  0  0  0  0  0  0  0  0  0  0
   -5.1452  -17.2658   18.3737 H   0  0  0  0  0  0  0  0  0  0  0  0
   -4.9455  -18.9997   18.2691 H   0  0  0  0  0  0  0  0  0  0  0  0
   -6.3184  -19.9669   19.9264 H   0  0  0  0  0  0  0  0  0  0  0  0
   -7.9488  -19.5485   20.2733 H   0  0  0  0  0  0  0  0  0  0  0  0
  1  2  2  0
  2  3  1  0
  3  4  1  0
  4  5  1  0
  5  6  2  0
  6  7  1  0
  7  8  2  0
  8  9  1  0
  9 10  1  0
 10 11  2  0
 11 12  1  0
 12 13  2  0
  2 14  1  0
 14 15  1  0
 15 16  1  0
 16 17  1  0
 17 18  1  0
 18 19  1  0
 19 20  1  0
 13  5  1  0
 20 16  1  0
 12  8  1  0
  3 21  1  0
  3 22  1  0
  6 23  1  0
  7 24  1  0
  9 25  1  0
 10 26  1  0
 11 27  1  0
 13 28  1  0
 14 29  1  0
 15 30  1  0
 15 31  1  0
 16 32  1  0
 17 33  1  0
 17 34  1  0
 18 35  1  0
 18 36  1  0
 20 37  1  0
 20 38  1  0
M  END
>  <Energy>  (1188) 
878.78805894633456

>  <compound_id>  (1188) 
35930

>  <target_id>  (1188) 
1

>  <reference_id>  (1188) 
28

>  <inspiration_ids>  (1188) 
[28, 40]

>  <energy_score>  (1188) 
810.0188414372177

>  <distance_score>  (1188) 
8.311798842287152

>  <path>  (1188) 
/opt/xchem-fragalysis-2/maxwin/BulkDock/SCRATCH/511013/C35930-P28/C35930-P28.minimised.mol

>  <scratch_subdir>  (1188) 
/opt/xchem-fragalysis-2/maxwin/BulkDock/SCRATCH/511013/C35930-P28

>  <fragmenstein_runtime>  (1188) 
12.98617172241211

>  <fragmenstein_outcome>  (1188) 
too moved

>  <fragmenstein_mode>  (1188) 
expansion

>  <fragmenstein_error>  (1188) 


$$$$
C35930-P40
     RDKit          3D

 38 40  0  0  0  0  0  0  0  0999 V2000
   -9.6234  -16.4761   25.4721 O   0  0  0  0  0  0  0  0  0  0  0  0
   -8.5420  -15.9074   25.2001 C   0  0  0  0  0  0  0  0  0  0  0  0
   -8.2162  -14.7918   26.3435 C   0  0  0  0  0  0  0  0  0  0  0  0
   -9.0006  -14.0024   27.3390 O   0  0  0  0  0  0  0  0  0  0  0  0
   -8.5109  -13.5321   28.5500 C   0  0  0  0  0  0  0  0  0  0  0  0
   -7.4675  -14.0604   29.2988 C   0  0  0  0  0  0  0  0  0  0  0  0
   -6.8651  -13.3640   30.3762 C   0  0  0  0  0  0  0  0  0  0  0  0
   -7.3783  -12.1140   30.7134 C   0  0  0  0  0  0  0  0  0  0  0  0
   -6.9083  -11.1393   31.5639 N   0  0  0  0  0  0  0  0  0  0  0  0
   -7.7284  -10.0434   31.5174 C   0  0  0  0  0  0  0  0  0  0  0  0
   -8.7806  -10.3420   30.6813 C   0  0  0  0  0  0  0  0  0  0  0  0
   -8.5585  -11.6432   30.1406 C   0  0  0  0  0  0  0  0  0  0  0  0
   -9.1567  -12.3974   29.0837 C   0  0  0  0  0  0  0  0  0  0  0  0
   -7.3686  -16.3764   23.7632 N   0  0  0  0  0  0  0  0  0  0  0  0
   -7.5551  -17.5653   22.4623 C   0  0  0  0  0  0  0  0  0  0  0  0
   -6.4772  -18.3055   21.7020 C   0  0  0  0  0  0  0  0  0  0  0  0
   -6.8295  -19.0739   20.4476 C   0  0  0  0  0  0  0  0  0  0  0  0
   -5.5350  -19.4319   19.8227 C   0  0  0  0  0  0  0  0  0  0  0  0
   -4.9440  -18.1732   19.8414 O   0  0  0  0  0  0  0  0  0  0  0  0
   -5.5602  -17.4860   20.9134 C   0  0  0  0  0  0  0  0  0  0  0  0
   -7.3506  -14.2037   26.0546 H   0  0  0  0  0  0  0  0  0  0  0  0
   -8.1921  -15.6265   27.0689 H   0  0  0  0  0  0  0  0  0  0  0  0
   -7.0634  -15.0345   29.0601 H   0  0  0  0  0  0  0  0  0  0  0  0
   -5.9950  -13.7761   30.8747 H   0  0  0  0  0  0  0  0  0  0  0  0
   -6.0329  -11.1803   32.0712 H   0  0  0  0  0  0  0  0  0  0  0  0
   -7.4919   -9.1540   32.0850 H   0  0  0  0  0  0  0  0  0  0  0  0
   -9.5893   -9.6713   30.4220 H   0  0  0  0  0  0  0  0  0  0  0  0
  -10.0124  -11.9835   28.5554 H   0  0  0  0  0  0  0  0  0  0  0  0
   -6.6009  -15.6949   23.7055 H   0  0  0  0  0  0  0  0  0  0  0  0
   -8.2097  -18.3830   22.7225 H   0  0  0  0  0  0  0  0  0  0  0  0
   -7.9687  -16.9371   21.7020 H   0  0  0  0  0  0  0  0  0  0  0  0
   -6.1638  -18.9773   22.4492 H   0  0  0  0  0  0  0  0  0  0  0  0
   -7.6436  -19.7432   20.5997 H   0  0  0  0  0  0  0  0  0  0  0  0
   -7.1236  -18.4829   19.5973 H   0  0  0  0  0  0  0  0  0  0  0  0
   -4.9219  -20.1484   20.3654 H   0  0  0  0  0  0  0  0  0  0  0  0
   -5.6376  -19.6624   18.7789 H   0  0  0  0  0  0  0  0  0  0  0  0
   -4.7819  -16.8982   21.3938 H   0  0  0  0  0  0  0  0  0  0  0  0
   -6.3311  -16.8664   20.4608 H   0  0  0  0  0  0  0  0  0  0  0  0
  1  2  2  0
  2  3  1  0
  3  4  1  0
  4  5  1  0
  5  6  2  0
  6  7  1  0
  7  8  2  0
  8  9  1  0
  9 10  1  0
 10 11  2  0
 11 12  1  0
 12 13  2  0
  2 14  1  0
 14 15  1  0
 15 16  1  0
 16 17  1  0
 17 18  1  0
 18 19  1  0
 19 20  1  0
 13  5  1  0
 20 16  1  0
 12  8  1  0
  3 21  1  0
  3 22  1  0
  6 23  1  0
  7 24  1  0
  9 25  1  0
 10 26  1  0
 11 27  1  0
 13 28  1  0
 14 29  1  0
 15 30  1  0
 15 31  1  0
 16 32  1  0
 17 33  1  0
 17 34  1  0
 18 35  1  0
 18 36  1  0
 20 37  1  0
 20 38  1  0
M  END
>  <Energy>  (1189) 
253.54584240589995

>  <compound_id>  (1189) 
35930

>  <target_id>  (1189) 
1

>  <reference_id>  (1189) 
40

>  <inspiration_ids>  (1189) 
[28, 40]

>  <energy_score>  (1189) 
184.77662489678016

>  <distance_score>  (1189) 
11.265624989273212

>  <path>  (1189) 
/opt/xchem-fragalysis-2/maxwin/BulkDock/SCRATCH/511013/C35930-P40/C35930-P40.minimised.mol

>  <scratch_subdir>  (1189) 
/opt/xchem-fragalysis-2/maxwin/BulkDock/SCRATCH/511013/C35930-P40

>  <fragmenstein_runtime>  (1189) 
13.385764360427856

>  <fragmenstein_outcome>  (1189) 
too moved

>  <fragmenstein_mode>  (1189) 
expansion

>  <fragmenstein_error>  (1189) 


$$$$
C35931-P28
     RDKit          3D

 38 40  0  0  0  0  0  0  0  0999 V2000
    0.4928   -6.6212   31.5488 C   0  0  0  0  0  0  0  0  0  0  0  0
   -0.1377   -7.7080   30.9760 C   0  0  0  0  0  0  0  0  0  0  0  0
   -0.8626   -7.2590   29.8537 C   0  0  0  0  0  0  0  0  0  0  0  0
   -1.7114   -7.9391   28.6857 C   0  0  0  0  0  0  0  0  0  0  0  0
   -2.9877   -7.5181   27.4074 C   0  0  0  0  0  0  0  0  0  0  0  0
   -4.5792   -8.1247   26.4860 O   0  0  0  0  0  0  0  0  0  0  0  0
   -6.2239   -9.2308   25.8830 C   0  0  0  0  0  0  0  0  0  0  0  0
   -7.2620  -10.6309   24.4801 C   0  0  0  0  0  0  0  0  0  0  0  0
   -7.9473  -11.6665   22.7688 O   0  0  0  0  0  0  0  0  0  0  0  0
   -9.1396  -12.9713   21.6069 C   0  0  0  0  0  0  0  0  0  0  0  0
   -8.6043  -14.6568   20.3663 C   0  0  0  0  0  0  0  0  0  0  0  0
   -8.7677  -15.5462   18.7063 C   0  0  0  0  0  0  0  0  0  0  0  0
   -7.9730  -16.9246   18.1518 C   0  0  0  0  0  0  0  0  0  0  0  0
   -6.9387  -17.3478   19.5908 C   0  0  0  0  0  0  0  0  0  0  0  0
   -7.6390  -16.2495   20.8754 O   0  0  0  0  0  0  0  0  0  0  0  0
   -2.3650   -6.3335   27.8585 C   0  0  0  0  0  0  0  0  0  0  0  0
   -1.2973   -5.2343   28.7705 C   0  0  0  0  0  0  0  0  0  0  0  0
   -0.6764   -5.8751   29.8263 C   0  0  0  0  0  0  0  0  0  0  0  0
    0.1758   -5.5052   30.8172 N   0  0  0  0  0  0  0  0  0  0  0  0
    1.1167   -6.5419   32.4291 H   0  0  0  0  0  0  0  0  0  0  0  0
   -0.1311   -8.7121   31.3584 H   0  0  0  0  0  0  0  0  0  0  0  0
   -1.2257   -8.9463   28.8141 H   0  0  0  0  0  0  0  0  0  0  0  0
   -6.6595   -9.0277   26.8400 H   0  0  0  0  0  0  0  0  0  0  0  0
   -6.6517   -8.3048   25.4486 H   0  0  0  0  0  0  0  0  0  0  0  0
   -6.8265  -11.5109   24.9623 H   0  0  0  0  0  0  0  0  0  0  0  0
   -8.2554  -10.2300   24.7486 H   0  0  0  0  0  0  0  0  0  0  0  0
  -10.1939  -13.0908   21.7516 H   0  0  0  0  0  0  0  0  0  0  0  0
   -9.4497  -12.7433   20.5179 H   0  0  0  0  0  0  0  0  0  0  0  0
   -9.2248  -15.5627   20.2636 H   0  0  0  0  0  0  0  0  0  0  0  0
   -8.2201  -14.8729   18.0885 H   0  0  0  0  0  0  0  0  0  0  0  0
   -9.7824  -15.6741   18.6232 H   0  0  0  0  0  0  0  0  0  0  0  0
   -7.4996  -16.6040   17.2004 H   0  0  0  0  0  0  0  0  0  0  0  0
   -8.4438  -17.7397   17.6222 H   0  0  0  0  0  0  0  0  0  0  0  0
   -7.0431  -18.3686   20.0209 H   0  0  0  0  0  0  0  0  0  0  0  0
   -5.8670  -17.3627   19.4248 H   0  0  0  0  0  0  0  0  0  0  0  0
   -2.7719   -6.6482   28.8835 H   0  0  0  0  0  0  0  0  0  0  0  0
   -1.1565   -4.2043   28.4556 H   0  0  0  0  0  0  0  0  0  0  0  0
    0.4845   -4.5592   31.0054 H   0  0  0  0  0  0  0  0  0  0  0  0
  1  2  2  0
  2  3  1  0
  3  4  2  0
  4  5  1  0
  5  6  1  0
  6  7  1  0
  7  8  1  0
  8  9  1  0
  9 10  1  0
 10 11  1  0
 11 12  1  0
 12 13  1  0
 13 14  1  0
 14 15  1  0
  5 16  2  0
 16 17  1  0
 17 18  2  0
 18 19  1  0
 19  1  1  0
 18  3  1  0
 15 11  1  0
  1 20  1  0
  2 21  1  0
  4 22  1  0
  7 23  1  0
  7 24  1  0
  8 25  1  0
  8 26  1  0
 10 27  1  0
 10 28  1  0
 11 29  1  0
 12 30  1  0
 12 31  1  0
 13 32  1  0
 13 33  1  0
 14 34  1  0
 14 35  1  0
 16 36  1  0
 17 37  1  0
 19 38  1  0
M  END
>  <Energy>  (1190) 
1829.8282700659579

>  <compound_id>  (1190) 
35931

>  <target_id>  (1190) 
1

>  <reference_id>  (1190) 
28

>  <inspiration_ids>  (1190) 
[28, 40]

>  <energy_score>  (1190) 
1746.793671768679

>  <distance_score>  (1190) 
7.352144011909084

>  <path>  (1190) 
/opt/xchem-fragalysis-2/maxwin/BulkDock/SCRATCH/511013/C35931-P28/C35931-P28.minimised.mol

>  <scratch_subdir>  (1190) 
/opt/xchem-fragalysis-2/maxwin/BulkDock/SCRATCH/511013/C35931-P28

>  <fragmenstein_runtime>  (1190) 
6.2299768924713135

>  <fragmenstein_outcome>  (1190) 
too moved

>  <fragmenstein_mode>  (1190) 
expansion

>  <fragmenstein_error>  (1190) 


$$$$
C35931-P40
     RDKit          3D

 38 40  0  0  0  0  0  0  0  0999 V2000
    0.9194   -6.3131   29.5079 C   0  0  0  0  0  0  0  0  0  0  0  0
    0.8344   -7.5055   28.8264 C   0  0  0  0  0  0  0  0  0  0  0  0
   -0.0317   -8.4008   29.5143 C   0  0  0  0  0  0  0  0  0  0  0  0
   -0.5970   -9.7329   29.2942 C   0  0  0  0  0  0  0  0  0  0  0  0
   -1.4763  -10.4839   30.0920 C   0  0  0  0  0  0  0  0  0  0  0  0
   -2.5933  -11.5431   29.1813 O   0  0  0  0  0  0  0  0  0  0  0  0
   -4.0968  -12.5711   28.6514 C   0  0  0  0  0  0  0  0  0  0  0  0
   -5.8460  -12.9417   27.5969 C   0  0  0  0  0  0  0  0  0  0  0  0
   -6.8222  -13.7973   26.1613 O   0  0  0  0  0  0  0  0  0  0  0  0
   -7.4979  -15.2694   25.0504 C   0  0  0  0  0  0  0  0  0  0  0  0
   -7.1861  -16.7856   23.5139 C   0  0  0  0  0  0  0  0  0  0  0  0
   -7.8608  -18.3715   22.6662 C   0  0  0  0  0  0  0  0  0  0  0  0
   -7.0125  -19.2195   21.7390 C   0  0  0  0  0  0  0  0  0  0  0  0
   -6.1929  -18.0660   21.4919 C   0  0  0  0  0  0  0  0  0  0  0  0
   -6.0809  -17.7210   22.9308 O   0  0  0  0  0  0  0  0  0  0  0  0
   -1.6185   -9.6277   31.3406 C   0  0  0  0  0  0  0  0  0  0  0  0
   -1.0619   -8.3474   31.6703 C   0  0  0  0  0  0  0  0  0  0  0  0
   -0.3343   -7.7304   30.6893 C   0  0  0  0  0  0  0  0  0  0  0  0
    0.1918   -6.4618   30.6496 N   0  0  0  0  0  0  0  0  0  0  0  0
    1.4608   -5.3980   29.3009 H   0  0  0  0  0  0  0  0  0  0  0  0
    1.4029   -7.6937   27.9373 H   0  0  0  0  0  0  0  0  0  0  0  0
   -0.5316  -10.1809   28.3555 H   0  0  0  0  0  0  0  0  0  0  0  0
   -3.4338  -12.9597   27.8744 H   0  0  0  0  0  0  0  0  0  0  0  0
   -4.1145  -13.2740   29.4908 H   0  0  0  0  0  0  0  0  0  0  0  0
   -5.8294  -12.0116   27.0490 H   0  0  0  0  0  0  0  0  0  0  0  0
   -6.6143  -13.0301   28.3696 H   0  0  0  0  0  0  0  0  0  0  0  0
   -7.0421  -14.6927   24.2793 H   0  0  0  0  0  0  0  0  0  0  0  0
   -8.5230  -15.2838   25.3991 H   0  0  0  0  0  0  0  0  0  0  0  0
   -7.7355  -16.4293   22.6495 H   0  0  0  0  0  0  0  0  0  0  0  0
   -8.4191  -17.8995   21.8989 H   0  0  0  0  0  0  0  0  0  0  0  0
   -8.4098  -19.0972   23.2518 H   0  0  0  0  0  0  0  0  0  0  0  0
   -7.4332  -19.6158   20.8158 H   0  0  0  0  0  0  0  0  0  0  0  0
   -6.6171  -20.0656   22.2951 H   0  0  0  0  0  0  0  0  0  0  0  0
   -6.6578  -17.2857   20.8911 H   0  0  0  0  0  0  0  0  0  0  0  0
   -5.3216  -18.3457   20.9294 H   0  0  0  0  0  0  0  0  0  0  0  0
   -2.3857   -9.7132   32.0876 H   0  0  0  0  0  0  0  0  0  0  0  0
   -1.3307   -7.8539   32.6003 H   0  0  0  0  0  0  0  0  0  0  0  0
    0.0919   -5.7680   31.3806 H   0  0  0  0  0  0  0  0  0  0  0  0
  1  2  2  0
  2  3  1  0
  3  4  2  0
  4  5  1  0
  5  6  1  0
  6  7  1  0
  7  8  1  0
  8  9  1  0
  9 10  1  0
 10 11  1  0
 11 12  1  0
 12 13  1  0
 13 14  1  0
 14 15  1  0
  5 16  2  0
 16 17  1  0
 17 18  2  0
 18 19  1  0
 19  1  1  0
 18  3  1  0
 15 11  1  0
  1 20  1  0
  2 21  1  0
  4 22  1  0
  7 23  1  0
  7 24  1  0
  8 25  1  0
  8 26  1  0
 10 27  1  0
 10 28  1  0
 11 29  1  0
 12 30  1  0
 12 31  1  0
 13 32  1  0
 13 33  1  0
 14 34  1  0
 14 35  1  0
 16 36  1  0
 17 37  1  0
 19 38  1  0
M  END
>  <Energy>  (1191) 
1026.0720915171783

>  <compound_id>  (1191) 
35931

>  <target_id>  (1191) 
1

>  <reference_id>  (1191) 
40

>  <inspiration_ids>  (1191) 
[28, 40]

>  <energy_score>  (1191) 
943.037493219904

>  <distance_score>  (1191) 
7.994700900721282

>  <path>  (1191) 
/opt/xchem-fragalysis-2/maxwin/BulkDock/SCRATCH/511013/C35931-P40/C35931-P40.minimised.mol

>  <scratch_subdir>  (1191) 
/opt/xchem-fragalysis-2/maxwin/BulkDock/SCRATCH/511013/C35931-P40

>  <fragmenstein_runtime>  (1191) 
8.348610401153564

>  <fragmenstein_outcome>  (1191) 
too moved

>  <fragmenstein_mode>  (1191) 
expansion

>  <fragmenstein_error>  (1191) 


$$$$
C10036-P96
     RDKit          3D

 46 48  0  0  0  0  0  0  0  0999 V2000
    3.4769  -18.4502   21.8405 C   0  0  0  0  0  0  0  0  0  0  0  0
    2.8752  -17.3174   22.7700 C   0  0  0  0  0  0  0  0  0  0  0  0
    3.2406  -15.2685   22.0108 C   0  0  0  0  0  0  0  0  0  0  0  0
    3.4288  -13.3840   21.0858 N   0  0  0  0  0  0  0  0  0  0  0  0
    4.3202  -12.7213   19.2391 C   0  0  0  0  0  0  0  0  0  0  0  0
    4.9427  -13.7145   18.1076 O   0  0  0  0  0  0  0  0  0  0  0  0
    4.3789  -11.1328   18.6328 C   0  0  0  0  0  0  0  0  0  0  0  0
    4.4264  -11.2168   17.1914 C   0  0  0  0  0  0  0  0  0  0  0  0
    5.3697  -10.4561   16.5261 N   0  0  0  0  0  0  0  0  0  0  0  0
    6.0842   -9.9558   17.4786 C   0  0  0  0  0  0  0  0  0  0  0  0
    5.5113  -10.2161   18.6855 N   0  0  0  0  0  0  0  0  0  0  0  0
    1.1272  -18.3138   23.2040 N   0  0  0  0  0  0  0  0  0  0  0  0
    0.7622  -19.9462   24.1332 C   0  0  0  0  0  0  0  0  0  0  0  0
    1.6517  -20.6891   24.5303 O   0  0  0  0  0  0  0  0  0  0  0  0
   -1.0289  -20.6134   24.7785 C   0  0  0  0  0  0  0  0  0  0  0  0
   -2.3538  -20.9708   24.0857 C   0  0  0  0  0  0  0  0  0  0  0  0
   -3.5542  -21.3339   24.8557 C   0  0  0  0  0  0  0  0  0  0  0  0
   -3.4894  -21.3540   26.3580 N   0  0  0  0  0  0  0  0  0  0  0  0
   -5.0216  -21.7160   27.5341 C   0  0  0  0  0  0  0  0  0  0  0  0
   -5.9320  -23.0997   28.8309 C   0  0  0  0  0  0  0  0  0  0  0  0
   -7.9183  -22.9997   29.0437 C   0  0  0  0  0  0  0  0  0  0  0  0
   -8.0450  -21.8246   28.0827 C   0  0  0  0  0  0  0  0  0  0  0  0
   -6.5630  -21.1121   27.2368 C   0  0  0  0  0  0  0  0  0  0  0  0
   -1.7812  -20.7995   26.3039 N   0  0  0  0  0  0  0  0  0  0  0  0
    3.6132  -19.3584   22.4378 H   0  0  0  0  0  0  0  0  0  0  0  0
    2.7776  -18.7045   21.0363 H   0  0  0  0  0  0  0  0  0  0  0  0
    4.4299  -18.2189   21.3640 H   0  0  0  0  0  0  0  0  0  0  0  0
    3.3519  -17.3160   23.7498 H   0  0  0  0  0  0  0  0  0  0  0  0
    3.8424  -14.8565   22.8177 H   0  0  0  0  0  0  0  0  0  0  0  0
    3.8753  -15.6347   21.3780 H   0  0  0  0  0  0  0  0  0  0  0  0
    3.0373  -12.5668   21.5736 H   0  0  0  0  0  0  0  0  0  0  0  0
    3.8599  -11.9423   16.6187 H   0  0  0  0  0  0  0  0  0  0  0  0
    6.9838   -9.3662   17.3646 H   0  0  0  0  0  0  0  0  0  0  0  0
    5.9073   -9.8293   19.5259 H   0  0  0  0  0  0  0  0  0  0  0  0
    0.2794  -17.9170   22.9018 H   0  0  0  0  0  0  0  0  0  0  0  0
   -2.3999  -20.9441   23.0038 H   0  0  0  0  0  0  0  0  0  0  0  0
   -4.5280  -21.5966   24.4681 H   0  0  0  0  0  0  0  0  0  0  0  0
   -5.1482  -22.2159   26.5625 H   0  0  0  0  0  0  0  0  0  0  0  0
   -6.5202  -23.2669   30.1518 H   0  0  0  0  0  0  0  0  0  0  0  0
   -6.0540  -24.3118   28.7479 H   0  0  0  0  0  0  0  0  0  0  0  0
   -8.2763  -22.9403   30.0815 H   0  0  0  0  0  0  0  0  0  0  0  0
   -8.3831  -23.9509   28.7103 H   0  0  0  0  0  0  0  0  0  0  0  0
   -8.6064  -22.4111   27.3338 H   0  0  0  0  0  0  0  0  0  0  0  0
   -8.7885  -21.1049   28.4191 H   0  0  0  0  0  0  0  0  0  0  0  0
   -6.7133  -21.4063   26.2009 H   0  0  0  0  0  0  0  0  0  0  0  0
   -6.5957  -20.0297   27.2332 H   0  0  0  0  0  0  0  0  0  0  0  0
  1  2  1  0
  2  3  1  0
  3  4  1  0
  4  5  1  0
  5  6  2  0
  5  7  1  0
  7  8  2  0
  8  9  1  0
  9 10  2  0
 10 11  1  0
  2 12  1  0
 12 13  1  0
 13 14  2  0
 13 15  1  0
 15 16  1  0
 16 17  2  0
 17 18  1  0
 18 19  1  0
 19 20  1  0
 20 21  1  0
 21 22  1  0
 22 23  1  0
 18 24  1  0
 11  7  1  0
 24 15  2  0
 23 19  1  0
  1 25  1  0
  1 26  1  0
  1 27  1  0
  2 28  1  0
  3 29  1  0
  3 30  1  0
  4 31  1  0
  8 32  1  0
 10 33  1  0
 11 34  1  0
 12 35  1  0
 16 36  1  0
 17 37  1  0
 19 38  1  0
 20 39  1  0
 20 40  1  0
 21 41  1  0
 21 42  1  0
 22 43  1  0
 22 44  1  0
 23 45  1  0
 23 46  1  0
M  END
>  <Energy>  (1192) 
1646.9132485047915

>  <compound_id>  (1192) 
10036

>  <target_id>  (1192) 
1

>  <reference_id>  (1192) 
96

>  <inspiration_ids>  (1192) 
[96, 114]

>  <energy_score>  (1192) 
1598.0512098580507

>  <distance_score>  (1192) 
10.77146938387106

>  <path>  (1192) 
/opt/xchem-fragalysis-2/maxwin/BulkDock/SCRATCH/511013/C10036-P96/C10036-P96.minimised.mol

>  <scratch_subdir>  (1192) 
/opt/xchem-fragalysis-2/maxwin/BulkDock/SCRATCH/511013/C10036-P96

>  <fragmenstein_runtime>  (1192) 
30.26396942138672

>  <fragmenstein_outcome>  (1192) 
too moved

>  <fragmenstein_mode>  (1192) 
expansion

>  <fragmenstein_error>  (1192) 


$$$$
C10036-P114
     RDKit          3D

 46 48  0  0  0  0  0  0  0  0999 V2000
    2.1694  -13.1142   24.7470 C   0  0  0  0  0  0  0  0  0  0  0  0
    2.0700  -14.0083   23.6172 C   0  0  0  0  0  0  0  0  0  0  0  0
    3.1856  -12.4525   22.7811 C   0  0  0  0  0  0  0  0  0  0  0  0
    4.7703  -11.3325   22.7913 N   0  0  0  0  0  0  0  0  0  0  0  0
    6.1884  -11.3211   23.9224 C   0  0  0  0  0  0  0  0  0  0  0  0
    6.2784  -11.9956   24.9239 O   0  0  0  0  0  0  0  0  0  0  0  0
    7.4360  -10.6073   23.7095 C   0  0  0  0  0  0  0  0  0  0  0  0
    8.6541  -11.1397   23.2636 C   0  0  0  0  0  0  0  0  0  0  0  0
    9.7415  -10.3884   23.6651 N   0  0  0  0  0  0  0  0  0  0  0  0
    9.2490   -9.4845   24.4784 C   0  0  0  0  0  0  0  0  0  0  0  0
    7.8904   -9.5966   24.5711 N   0  0  0  0  0  0  0  0  0  0  0  0
    0.0253  -14.2206   23.8482 N   0  0  0  0  0  0  0  0  0  0  0  0
   -1.1197  -15.6547   24.6507 C   0  0  0  0  0  0  0  0  0  0  0  0
   -0.7333  -17.1817   25.2727 O   0  0  0  0  0  0  0  0  0  0  0  0
   -2.4854  -15.4108   24.9048 C   0  0  0  0  0  0  0  0  0  0  0  0
   -2.2861  -14.5075   26.0724 C   0  0  0  0  0  0  0  0  0  0  0  0
   -2.0785  -15.2623   27.4473 C   0  0  0  0  0  0  0  0  0  0  0  0
   -2.4033  -16.6741   27.1216 N   0  0  0  0  0  0  0  0  0  0  0  0
   -2.0745  -17.8384   27.9046 C   0  0  0  0  0  0  0  0  0  0  0  0
   -0.7450  -17.8735   28.6787 C   0  0  0  0  0  0  0  0  0  0  0  0
   -0.7069  -19.3000   29.2067 C   0  0  0  0  0  0  0  0  0  0  0  0
   -1.1922  -20.1324   28.0266 C   0  0  0  0  0  0  0  0  0  0  0  0
   -2.0165  -19.1804   27.1497 C   0  0  0  0  0  0  0  0  0  0  0  0
   -2.9679  -16.6838   25.6644 N   0  0  0  0  0  0  0  0  0  0  0  0
    1.5914  -13.3531   25.6739 H   0  0  0  0  0  0  0  0  0  0  0  0
    3.2331  -13.4170   24.8233 H   0  0  0  0  0  0  0  0  0  0  0  0
    1.9413  -12.0945   24.5235 H   0  0  0  0  0  0  0  0  0  0  0  0
    2.7561  -14.8500   23.4251 H   0  0  0  0  0  0  0  0  0  0  0  0
    2.4819  -11.7017   22.9628 H   0  0  0  0  0  0  0  0  0  0  0  0
    3.3985  -12.8190   21.7729 H   0  0  0  0  0  0  0  0  0  0  0  0
    4.9737  -10.7581   22.0048 H   0  0  0  0  0  0  0  0  0  0  0  0
    8.8225  -12.0377   22.6890 H   0  0  0  0  0  0  0  0  0  0  0  0
    9.8124   -8.7364   25.0199 H   0  0  0  0  0  0  0  0  0  0  0  0
    7.2814   -9.0300   25.1425 H   0  0  0  0  0  0  0  0  0  0  0  0
   -0.5208  -13.4398   23.6716 H   0  0  0  0  0  0  0  0  0  0  0  0
   -2.4526  -13.4516   25.8414 H   0  0  0  0  0  0  0  0  0  0  0  0
   -1.9995  -14.9917   28.4858 H   0  0  0  0  0  0  0  0  0  0  0  0
   -2.8214  -17.7878   28.6933 H   0  0  0  0  0  0  0  0  0  0  0  0
    0.1235  -17.7411   28.0300 H   0  0  0  0  0  0  0  0  0  0  0  0
   -0.7003  -17.1323   29.4822 H   0  0  0  0  0  0  0  0  0  0  0  0
    0.2926  -19.5958   29.5386 H   0  0  0  0  0  0  0  0  0  0  0  0
   -1.3917  -19.4092   30.0555 H   0  0  0  0  0  0  0  0  0  0  0  0
   -1.7644  -21.0023   28.3590 H   0  0  0  0  0  0  0  0  0  0  0  0
   -0.3375  -20.5120   27.4539 H   0  0  0  0  0  0  0  0  0  0  0  0
   -3.0007  -19.5782   26.8896 H   0  0  0  0  0  0  0  0  0  0  0  0
   -1.4955  -19.0984   26.1968 H   0  0  0  0  0  0  0  0  0  0  0  0
  1  2  1  0
  2  3  1  0
  3  4  1  0
  4  5  1  0
  5  6  2  0
  5  7  1  0
  7  8  2  0
  8  9  1  0
  9 10  2  0
 10 11  1  0
  2 12  1  0
 12 13  1  0
 13 14  2  0
 13 15  1  0
 15 16  1  0
 16 17  2  0
 17 18  1  0
 18 19  1  0
 19 20  1  0
 20 21  1  0
 21 22  1  0
 22 23  1  0
 18 24  1  0
 11  7  1  0
 24 15  2  0
 23 19  1  0
  1 25  1  0
  1 26  1  0
  1 27  1  0
  2 28  1  0
  3 29  1  0
  3 30  1  0
  4 31  1  0
  8 32  1  0
 10 33  1  0
 11 34  1  0
 12 35  1  0
 16 36  1  0
 17 37  1  0
 19 38  1  0
 20 39  1  0
 20 40  1  0
 21 41  1  0
 21 42  1  0
 22 43  1  0
 22 44  1  0
 23 45  1  0
 23 46  1  0
M  END
>  <Energy>  (1193) 
831.15744029618816

>  <compound_id>  (1193) 
10036

>  <target_id>  (1193) 
1

>  <reference_id>  (1193) 
114

>  <inspiration_ids>  (1193) 
[96, 114]

>  <energy_score>  (1193) 
782.295401649437

>  <distance_score>  (1193) 
12.487734827033592

>  <path>  (1193) 
/opt/xchem-fragalysis-2/maxwin/BulkDock/SCRATCH/511013/C10036-P114/C10036-P114.minimised.mol

>  <scratch_subdir>  (1193) 
/opt/xchem-fragalysis-2/maxwin/BulkDock/SCRATCH/511013/C10036-P114

>  <fragmenstein_runtime>  (1193) 
36.301416873931885

>  <fragmenstein_outcome>  (1193) 
too moved

>  <fragmenstein_mode>  (1193) 
expansion

>  <fragmenstein_error>  (1193) 


$$$$
C10037-P96
     RDKit          3D

 34 36  0  0  0  0  0  0  0  0999 V2000
   -3.7244  -16.3218   30.2291 C   0  0  0  0  0  0  0  0  0  0  0  0
   -3.8475  -16.9128   29.0651 N   0  0  0  0  0  0  0  0  0  0  0  0
   -2.8396  -16.3865   28.2891 C   0  0  0  0  0  0  0  0  0  0  0  0
   -2.0961  -15.4430   28.9817 C   0  0  0  0  0  0  0  0  0  0  0  0
   -0.8524  -14.6482   28.6140 C   0  0  0  0  0  0  0  0  0  0  0  0
   -1.0573  -13.2531   28.1636 N   0  0  0  0  0  0  0  0  0  0  0  0
   -0.1122  -12.3323   27.7471 C   0  0  0  0  0  0  0  0  0  0  0  0
    1.3015  -12.3517   27.5774 C   0  0  0  0  0  0  0  0  0  0  0  0
    1.8098  -11.1538   27.2296 N   0  0  0  0  0  0  0  0  0  0  0  0
    0.7277  -10.3502   27.2202 N   0  0  0  0  0  0  0  0  0  0  0  0
    0.8730   -8.9109   27.1537 C   0  0  0  0  0  0  0  0  0  0  0  0
    2.1060   -8.3609   27.8793 C   0  0  0  0  0  0  0  0  0  0  0  0
    1.8473   -6.8628   27.9848 C   0  0  0  0  0  0  0  0  0  0  0  0
    0.3302   -6.6942   27.9476 C   0  0  0  0  0  0  0  0  0  0  0  0
   -0.2467   -8.0996   27.8171 C   0  0  0  0  0  0  0  0  0  0  0  0
   -0.4422  -11.0440   27.3809 C   0  0  0  0  0  0  0  0  0  0  0  0
   -2.6896  -15.4234   30.2279 N   0  0  0  0  0  0  0  0  0  0  0  0
   -4.3402  -16.4970   31.1011 H   0  0  0  0  0  0  0  0  0  0  0  0
   -2.6900  -16.7235   27.2702 H   0  0  0  0  0  0  0  0  0  0  0  0
   -0.3195  -15.1990   27.8303 H   0  0  0  0  0  0  0  0  0  0  0  0
   -0.1885  -14.6296   29.4874 H   0  0  0  0  0  0  0  0  0  0  0  0
   -2.0400  -13.0345   28.0228 H   0  0  0  0  0  0  0  0  0  0  0  0
    1.9808  -13.1834   27.7090 H   0  0  0  0  0  0  0  0  0  0  0  0
    0.9045   -8.6510   26.0921 H   0  0  0  0  0  0  0  0  0  0  0  0
    3.0433   -8.5726   27.3563 H   0  0  0  0  0  0  0  0  0  0  0  0
    2.1881   -8.7934   28.8851 H   0  0  0  0  0  0  0  0  0  0  0  0
    2.2824   -6.4464   28.8988 H   0  0  0  0  0  0  0  0  0  0  0  0
    2.2999   -6.3370   27.1361 H   0  0  0  0  0  0  0  0  0  0  0  0
    0.0461   -6.0836   27.0827 H   0  0  0  0  0  0  0  0  0  0  0  0
   -0.0470   -6.1904   28.8432 H   0  0  0  0  0  0  0  0  0  0  0  0
   -1.1710   -8.1015   27.2301 H   0  0  0  0  0  0  0  0  0  0  0  0
   -0.4823   -8.4963   28.8130 H   0  0  0  0  0  0  0  0  0  0  0  0
   -1.4017  -10.5522   27.3355 H   0  0  0  0  0  0  0  0  0  0  0  0
   -2.3981  -14.8591   31.0143 H   0  0  0  0  0  0  0  0  0  0  0  0
  1  2  2  0
  2  3  1  0
  3  4  2  0
  4  5  1  0
  5  6  1  0
  6  7  1  0
  7  8  1  0
  8  9  2  0
  9 10  1  0
 10 11  1  0
 11 12  1  0
 12 13  1  0
 13 14  1  0
 14 15  1  0
 10 16  1  0
  4 17  1  0
 17  1  1  0
 16  7  2  0
 15 11  1  0
  1 18  1  0
  3 19  1  0
  5 20  1  0
  5 21  1  0
  6 22  1  0
  8 23  1  0
 11 24  1  0
 12 25  1  0
 12 26  1  0
 13 27  1  0
 13 28  1  0
 14 29  1  0
 14 30  1  0
 15 31  1  0
 15 32  1  0
 16 33  1  0
 17 34  1  0
M  END
>  <Energy>  (1194) 
1.5912343507404549

>  <compound_id>  (1194) 
10037

>  <target_id>  (1194) 
1

>  <reference_id>  (1194) 
96

>  <inspiration_ids>  (1194) 
[96, 114]

>  <energy_score>  (1194) 
-23.518353444904506

>  <distance_score>  (1194) 
15.86465336683244

>  <path>  (1194) 
/opt/xchem-fragalysis-2/maxwin/BulkDock/SCRATCH/511013/C10037-P96/C10037-P96.minimised.mol

>  <scratch_subdir>  (1194) 
/opt/xchem-fragalysis-2/maxwin/BulkDock/SCRATCH/511013/C10037-P96

>  <fragmenstein_runtime>  (1194) 
23.182380437850952

>  <fragmenstein_outcome>  (1194) 
too moved

>  <fragmenstein_mode>  (1194) 
expansion

>  <fragmenstein_error>  (1194) 


$$$$
C10037-P114
     RDKit          3D

 34 36  0  0  0  0  0  0  0  0999 V2000
    2.1487  -12.9120   24.2237 C   0  0  0  0  0  0  0  0  0  0  0  0
    2.7833  -13.7716   23.5259 N   0  0  0  0  0  0  0  0  0  0  0  0
    3.5426  -12.7386   23.3453 C   0  0  0  0  0  0  0  0  0  0  0  0
    3.6710  -11.4498   22.6035 C   0  0  0  0  0  0  0  0  0  0  0  0
    4.7072   -9.8013   23.2339 C   0  0  0  0  0  0  0  0  0  0  0  0
    4.9736   -7.7216   23.4278 N   0  0  0  0  0  0  0  0  0  0  0  0
    6.5396   -6.8126   22.8944 C   0  0  0  0  0  0  0  0  0  0  0  0
    7.2733   -6.8505   21.4900 C   0  0  0  0  0  0  0  0  0  0  0  0
    8.3232   -6.2689   20.9303 N   0  0  0  0  0  0  0  0  0  0  0  0
    8.2962   -5.0382   21.3875 N   0  0  0  0  0  0  0  0  0  0  0  0
    8.9472   -3.9031   20.0806 C   0  0  0  0  0  0  0  0  0  0  0  0
    8.6925   -1.9653   18.9281 C   0  0  0  0  0  0  0  0  0  0  0  0
    9.9403   -2.2907   17.0152 C   0  0  0  0  0  0  0  0  0  0  0  0
   10.7981   -4.2281   17.4014 C   0  0  0  0  0  0  0  0  0  0  0  0
   10.0973   -5.3776   19.0965 C   0  0  0  0  0  0  0  0  0  0  0  0
    7.5700   -5.4645   22.9404 C   0  0  0  0  0  0  0  0  0  0  0  0
    2.2420  -11.8364   23.3736 N   0  0  0  0  0  0  0  0  0  0  0  0
    1.6193  -13.0435   25.1620 H   0  0  0  0  0  0  0  0  0  0  0  0
    4.0112  -12.7228   24.3145 H   0  0  0  0  0  0  0  0  0  0  0  0
    3.6431   -9.7737   23.2839 H   0  0  0  0  0  0  0  0  0  0  0  0
    5.5524  -10.3827   23.7102 H   0  0  0  0  0  0  0  0  0  0  0  0
    5.1062   -7.6368   24.4315 H   0  0  0  0  0  0  0  0  0  0  0  0
    6.8640   -7.4089   20.6889 H   0  0  0  0  0  0  0  0  0  0  0  0
    9.6551   -3.7206   20.9167 H   0  0  0  0  0  0  0  0  0  0  0  0
    8.9327   -0.9810   19.5071 H   0  0  0  0  0  0  0  0  0  0  0  0
    7.7696   -1.1414   19.0827 H   0  0  0  0  0  0  0  0  0  0  0  0
   10.9045   -1.7030   16.8350 H   0  0  0  0  0  0  0  0  0  0  0  0
    9.3659   -2.0160   16.0728 H   0  0  0  0  0  0  0  0  0  0  0  0
   11.8494   -3.9538   17.6876 H   0  0  0  0  0  0  0  0  0  0  0  0
   11.0613   -4.7445   16.4759 H   0  0  0  0  0  0  0  0  0  0  0  0
   10.9348   -5.5702   19.8548 H   0  0  0  0  0  0  0  0  0  0  0  0
    9.5898   -6.3608   19.1324 H   0  0  0  0  0  0  0  0  0  0  0  0
    7.5573   -4.5888   23.5736 H   0  0  0  0  0  0  0  0  0  0  0  0
    1.4053  -11.3632   23.0691 H   0  0  0  0  0  0  0  0  0  0  0  0
  1  2  2  0
  2  3  1  0
  3  4  2  0
  4  5  1  0
  5  6  1  0
  6  7  1  0
  7  8  1  0
  8  9  2  0
  9 10  1  0
 10 11  1  0
 11 12  1  0
 12 13  1  0
 13 14  1  0
 14 15  1  0
 10 16  1  0
  4 17  1  0
 17  1  1  0
 16  7  2  0
 15 11  1  0
  1 18  1  0
  3 19  1  0
  5 20  1  0
  5 21  1  0
  6 22  1  0
  8 23  1  0
 11 24  1  0
 12 25  1  0
 12 26  1  0
 13 27  1  0
 13 28  1  0
 14 29  1  0
 14 30  1  0
 15 31  1  0
 15 32  1  0
 16 33  1  0
 17 34  1  0
M  END
>  <Energy>  (1195) 
1498.413008256899

>  <compound_id>  (1195) 
10037

>  <target_id>  (1195) 
1

>  <reference_id>  (1195) 
114

>  <inspiration_ids>  (1195) 
[96, 114]

>  <energy_score>  (1195) 
1473.3034204612718

>  <distance_score>  (1195) 
15.462192333942832

>  <path>  (1195) 
/opt/xchem-fragalysis-2/maxwin/BulkDock/SCRATCH/511013/C10037-P114/C10037-P114.minimised.mol

>  <scratch_subdir>  (1195) 
/opt/xchem-fragalysis-2/maxwin/BulkDock/SCRATCH/511013/C10037-P114

>  <fragmenstein_runtime>  (1195) 
21.92101287841797

>  <fragmenstein_outcome>  (1195) 
too moved

>  <fragmenstein_mode>  (1195) 
expansion

>  <fragmenstein_error>  (1195) 


$$$$
C10039-P96
     RDKit          3D

 46 47  0  0  0  0  0  0  0  0999 V2000
    5.7177  -16.2565   19.9223 C   0  0  0  0  0  0  0  0  0  0  0  0
    6.1615  -15.3623   21.6803 C   0  0  0  0  0  0  0  0  0  0  0  0
    4.7792  -14.4764   22.5803 C   0  0  0  0  0  0  0  0  0  0  0  0
    3.6234  -15.5246   23.8469 C   0  0  0  0  0  0  0  0  0  0  0  0
    2.2724  -15.5298   23.7428 C   0  0  0  0  0  0  0  0  0  0  0  0
    2.1535  -14.0243   22.0316 C   0  0  0  0  0  0  0  0  0  0  0  0
    2.5306  -12.9353   21.1622 N   0  0  0  0  0  0  0  0  0  0  0  0
    2.2996  -12.7131   19.5790 C   0  0  0  0  0  0  0  0  0  0  0  0
    1.6458  -13.4021   18.7936 O   0  0  0  0  0  0  0  0  0  0  0  0
    3.1589  -11.4819   18.7092 C   0  0  0  0  0  0  0  0  0  0  0  0
    4.0827  -10.4203   18.7347 C   0  0  0  0  0  0  0  0  0  0  0  0
    4.9322  -10.2442   17.6940 N   0  0  0  0  0  0  0  0  0  0  0  0
    4.3557  -11.0089   16.8133 C   0  0  0  0  0  0  0  0  0  0  0  0
    3.5525  -11.8923   17.3940 N   0  0  0  0  0  0  0  0  0  0  0  0
    1.1975  -16.2055   25.4036 N   0  0  0  0  0  0  0  0  0  0  0  0
   -0.5946  -16.7827   25.5314 C   0  0  0  0  0  0  0  0  0  0  0  0
   -1.2428  -16.6284   24.6021 O   0  0  0  0  0  0  0  0  0  0  0  0
   -1.4285  -17.6668   26.5717 C   0  0  0  0  0  0  0  0  0  0  0  0
   -2.6550  -18.1654   26.2221 N   0  0  0  0  0  0  0  0  0  0  0  0
   -3.2234  -18.9913   27.1123 N   0  0  0  0  0  0  0  0  0  0  0  0
   -2.3969  -19.5318   28.0236 C   0  0  0  0  0  0  0  0  0  0  0  0
   -1.1770  -18.9285   27.7921 C   0  0  0  0  0  0  0  0  0  0  0  0
   -0.1210  -19.0956   28.6255 O   0  0  0  0  0  0  0  0  0  0  0  0
   -0.1282  -20.2740   29.4238 C   0  0  0  0  0  0  0  0  0  0  0  0
    5.7317  -15.6636   18.9789 H   0  0  0  0  0  0  0  0  0  0  0  0
    4.7661  -16.7197   19.9471 H   0  0  0  0  0  0  0  0  0  0  0  0
    6.5328  -16.9458   19.5763 H   0  0  0  0  0  0  0  0  0  0  0  0
    7.1159  -15.8529   22.0197 H   0  0  0  0  0  0  0  0  0  0  0  0
    6.5300  -14.3759   21.6478 H   0  0  0  0  0  0  0  0  0  0  0  0
    4.3805  -13.6109   22.1265 H   0  0  0  0  0  0  0  0  0  0  0  0
    5.5184  -13.8256   23.0553 H   0  0  0  0  0  0  0  0  0  0  0  0
    3.3729  -14.8980   24.7530 H   0  0  0  0  0  0  0  0  0  0  0  0
    3.8836  -16.5746   24.1452 H   0  0  0  0  0  0  0  0  0  0  0  0
    2.2616  -16.5101   23.3185 H   0  0  0  0  0  0  0  0  0  0  0  0
    3.0382  -14.6273   21.7229 H   0  0  0  0  0  0  0  0  0  0  0  0
    2.8861  -13.1446   22.5527 H   0  0  0  0  0  0  0  0  0  0  0  0
    3.0186  -12.1703   21.5272 H   0  0  0  0  0  0  0  0  0  0  0  0
    4.0154   -9.5852   19.4184 H   0  0  0  0  0  0  0  0  0  0  0  0
    4.3726  -10.8766   15.7412 H   0  0  0  0  0  0  0  0  0  0  0  0
    3.2781  -12.8048   17.0593 H   0  0  0  0  0  0  0  0  0  0  0  0
    1.6239  -16.2992   26.2787 H   0  0  0  0  0  0  0  0  0  0  0  0
   -4.1962  -19.2306   26.9438 H   0  0  0  0  0  0  0  0  0  0  0  0
   -2.7197  -20.2697   28.7358 H   0  0  0  0  0  0  0  0  0  0  0  0
    0.8532  -20.3580   29.9006 H   0  0  0  0  0  0  0  0  0  0  0  0
   -0.8774  -20.2041   30.2192 H   0  0  0  0  0  0  0  0  0  0  0  0
   -0.2808  -21.1722   28.8155 H   0  0  0  0  0  0  0  0  0  0  0  0
  1  2  1  0
  2  3  1  0
  3  4  1  0
  4  5  1  0
  5  6  1  0
  6  7  1  0
  7  8  1  0
  8  9  2  0
  8 10  1  0
 10 11  2  0
 11 12  1  0
 12 13  2  0
 13 14  1  0
  5 15  1  0
 15 16  1  0
 16 17  2  0
 16 18  1  0
 18 19  2  0
 19 20  1  0
 20 21  1  0
 21 22  2  0
 22 23  1  0
 23 24  1  0
 14 10  1  0
 22 18  1  0
  1 25  1  0
  1 26  1  0
  1 27  1  0
  2 28  1  0
  2 29  1  0
  3 30  1  0
  3 31  1  0
  4 32  1  0
  4 33  1  0
  5 34  1  0
  6 35  1  0
  6 36  1  0
  7 37  1  0
 11 38  1  0
 13 39  1  0
 14 40  1  0
 15 41  1  0
 20 42  1  0
 21 43  1  0
 24 44  1  0
 24 45  1  0
 24 46  1  0
M  END
>  <Energy>  (1196) 
934.99165260195537

>  <compound_id>  (1196) 
10039

>  <target_id>  (1196) 
1

>  <reference_id>  (1196) 
96

>  <inspiration_ids>  (1196) 
[96, 114]

>  <energy_score>  (1196) 
893.7354368419897

>  <distance_score>  (1196) 
11.72665295852705

>  <path>  (1196) 
/opt/xchem-fragalysis-2/maxwin/BulkDock/SCRATCH/511013/C10039-P96/C10039-P96.minimised.mol

>  <scratch_subdir>  (1196) 
/opt/xchem-fragalysis-2/maxwin/BulkDock/SCRATCH/511013/C10039-P96

>  <fragmenstein_runtime>  (1196) 
20.027863025665283

>  <fragmenstein_outcome>  (1196) 
too moved

>  <fragmenstein_mode>  (1196) 
expansion

>  <fragmenstein_error>  (1196) 


$$$$
C10039-P114
     RDKit          3D

 46 47  0  0  0  0  0  0  0  0999 V2000
    2.0497  -15.1444   18.5802 C   0  0  0  0  0  0  0  0  0  0  0  0
    0.7748  -16.2657   19.6517 C   0  0  0  0  0  0  0  0  0  0  0  0
   -0.5827  -16.5692   20.1296 C   0  0  0  0  0  0  0  0  0  0  0  0
   -1.9491  -16.2816   19.8632 C   0  0  0  0  0  0  0  0  0  0  0  0
   -2.1426  -14.9927   20.8101 C   0  0  0  0  0  0  0  0  0  0  0  0
   -1.1127  -14.6791   22.6168 C   0  0  0  0  0  0  0  0  0  0  0  0
    0.4455  -13.6904   23.1559 N   0  0  0  0  0  0  0  0  0  0  0  0
    1.0929  -11.7516   22.7626 C   0  0  0  0  0  0  0  0  0  0  0  0
    0.2652  -11.0498   22.1727 O   0  0  0  0  0  0  0  0  0  0  0  0
    2.9212  -10.7037   22.8638 C   0  0  0  0  0  0  0  0  0  0  0  0
    2.2696   -9.3232   21.7536 C   0  0  0  0  0  0  0  0  0  0  0  0
    3.1625   -8.2183   22.8848 N   0  0  0  0  0  0  0  0  0  0  0  0
    2.3469   -7.7211   23.9764 C   0  0  0  0  0  0  0  0  0  0  0  0
    2.4300   -8.7480   22.6524 N   0  0  0  0  0  0  0  0  0  0  0  0
   -3.7432  -15.8125   20.8325 N   0  0  0  0  0  0  0  0  0  0  0  0
   -4.7866  -15.9055   19.8197 C   0  0  0  0  0  0  0  0  0  0  0  0
   -4.8259  -15.4866   18.6990 O   0  0  0  0  0  0  0  0  0  0  0  0
   -5.9455  -16.6508   20.4437 C   0  0  0  0  0  0  0  0  0  0  0  0
   -6.2316  -16.4903   21.7629 N   0  0  0  0  0  0  0  0  0  0  0  0
   -7.1607  -17.4241   22.0300 N   0  0  0  0  0  0  0  0  0  0  0  0
   -7.5409  -18.1470   20.9422 C   0  0  0  0  0  0  0  0  0  0  0  0
   -6.7789  -17.6693   19.8964 C   0  0  0  0  0  0  0  0  0  0  0  0
   -6.7476  -18.1020   18.6151 O   0  0  0  0  0  0  0  0  0  0  0  0
   -7.6178  -19.1861   18.3207 C   0  0  0  0  0  0  0  0  0  0  0  0
    2.7611  -15.6761   17.9850 H   0  0  0  0  0  0  0  0  0  0  0  0
    1.5730  -14.3971   17.9191 H   0  0  0  0  0  0  0  0  0  0  0  0
    2.6321  -14.6034   19.2956 H   0  0  0  0  0  0  0  0  0  0  0  0
    1.1574  -15.9726   20.5975 H   0  0  0  0  0  0  0  0  0  0  0  0
    0.8941  -17.2566   19.1424 H   0  0  0  0  0  0  0  0  0  0  0  0
   -0.6800  -15.6438   19.6472 H   0  0  0  0  0  0  0  0  0  0  0  0
   -0.4428  -16.9107   21.1352 H   0  0  0  0  0  0  0  0  0  0  0  0
   -2.4615  -17.2347   20.0710 H   0  0  0  0  0  0  0  0  0  0  0  0
   -2.2607  -16.0548   18.8253 H   0  0  0  0  0  0  0  0  0  0  0  0
   -2.3335  -14.0587   20.2598 H   0  0  0  0  0  0  0  0  0  0  0  0
   -1.5120  -15.0893   23.5676 H   0  0  0  0  0  0  0  0  0  0  0  0
   -0.4149  -15.3628   22.1604 H   0  0  0  0  0  0  0  0  0  0  0  0
    1.1627  -14.1647   23.7223 H   0  0  0  0  0  0  0  0  0  0  0  0
    1.2327   -9.2765   21.2156 H   0  0  0  0  0  0  0  0  0  0  0  0
    1.2761   -7.5521   24.1224 H   0  0  0  0  0  0  0  0  0  0  0  0
    1.3402   -8.6716   22.8110 H   0  0  0  0  0  0  0  0  0  0  0  0
   -4.0201  -16.3591   21.6468 H   0  0  0  0  0  0  0  0  0  0  0  0
   -7.4794  -17.5159   22.9883 H   0  0  0  0  0  0  0  0  0  0  0  0
   -8.2818  -18.9289   21.0168 H   0  0  0  0  0  0  0  0  0  0  0  0
   -7.4958  -19.4363   17.2624 H   0  0  0  0  0  0  0  0  0  0  0  0
   -7.3560  -20.0742   18.9060 H   0  0  0  0  0  0  0  0  0  0  0  0
   -8.6653  -18.9076   18.4793 H   0  0  0  0  0  0  0  0  0  0  0  0
  1  2  1  0
  2  3  1  0
  3  4  1  0
  4  5  1  0
  5  6  1  0
  6  7  1  0
  7  8  1  0
  8  9  2  0
  8 10  1  0
 10 11  2  0
 11 12  1  0
 12 13  2  0
 13 14  1  0
  5 15  1  0
 15 16  1  0
 16 17  2  0
 16 18  1  0
 18 19  2  0
 19 20  1  0
 20 21  1  0
 21 22  2  0
 22 23  1  0
 23 24  1  0
 14 10  1  0
 22 18  1  0
  1 25  1  0
  1 26  1  0
  1 27  1  0
  2 28  1  0
  2 29  1  0
  3 30  1  0
  3 31  1  0
  4 32  1  0
  4 33  1  0
  5 34  1  0
  6 35  1  0
  6 36  1  0
  7 37  1  0
 11 38  1  0
 13 39  1  0
 14 40  1  0
 15 41  1  0
 20 42  1  0
 21 43  1  0
 24 44  1  0
 24 45  1  0
 24 46  1  0
M  END
>  <Energy>  (1197) 
1422.2801053549581

>  <compound_id>  (1197) 
10039

>  <target_id>  (1197) 
1

>  <reference_id>  (1197) 
114

>  <inspiration_ids>  (1197) 
[96, 114]

>  <energy_score>  (1197) 
1381.0238895949988

>  <distance_score>  (1197) 
13.074639775884933

>  <path>  (1197) 
/opt/xchem-fragalysis-2/maxwin/BulkDock/SCRATCH/511013/C10039-P114/C10039-P114.minimised.mol

>  <scratch_subdir>  (1197) 
/opt/xchem-fragalysis-2/maxwin/BulkDock/SCRATCH/511013/C10039-P114

>  <fragmenstein_runtime>  (1197) 
21.180504322052002

>  <fragmenstein_outcome>  (1197) 
too moved

>  <fragmenstein_mode>  (1197) 
expansion

>  <fragmenstein_error>  (1197) 


$$$$
C10040-P96
     RDKit          3D

 42 43  0  0  0  0  0  0  0  0999 V2000
   -3.9998   -9.8791   19.2180 C   0  0  0  0  0  0  0  0  0  0  0  0
   -4.4996   -9.2498   20.5654 C   0  0  0  0  0  0  0  0  0  0  0  0
   -4.5764  -10.2250   22.3606 C   0  0  0  0  0  0  0  0  0  0  0  0
   -3.4967  -11.0120   23.7767 C   0  0  0  0  0  0  0  0  0  0  0  0
   -2.4078  -12.5925   24.2236 C   0  0  0  0  0  0  0  0  0  0  0  0
   -1.0620  -12.8717   22.9773 C   0  0  0  0  0  0  0  0  0  0  0  0
    0.3792  -12.5051   22.0188 N   0  0  0  0  0  0  0  0  0  0  0  0
    1.2777  -11.0828   21.8623 C   0  0  0  0  0  0  0  0  0  0  0  0
    1.1198  -10.1113   22.4716 O   0  0  0  0  0  0  0  0  0  0  0  0
    2.4339  -10.8869   20.6325 C   0  0  0  0  0  0  0  0  0  0  0  0
    3.1764   -9.7858   20.0258 C   0  0  0  0  0  0  0  0  0  0  0  0
    4.0901  -10.1185   18.8497 N   0  0  0  0  0  0  0  0  0  0  0  0
    3.6860  -11.2815   18.4785 C   0  0  0  0  0  0  0  0  0  0  0  0
    2.6449  -11.6848   19.3306 N   0  0  0  0  0  0  0  0  0  0  0  0
   -2.6298  -13.0048   26.0725 N   0  0  0  0  0  0  0  0  0  0  0  0
   -3.2851  -14.3816   26.8351 C   0  0  0  0  0  0  0  0  0  0  0  0
   -3.6277  -15.3974   26.3307 O   0  0  0  0  0  0  0  0  0  0  0  0
   -3.7394  -14.3882   28.5983 C   0  0  0  0  0  0  0  0  0  0  0  0
   -3.5185  -13.3896   29.4897 N   0  0  0  0  0  0  0  0  0  0  0  0
   -4.2072  -13.7851   30.5887 N   0  0  0  0  0  0  0  0  0  0  0  0
   -4.9265  -14.9324   30.4435 C   0  0  0  0  0  0  0  0  0  0  0  0
   -4.6820  -15.3281   29.1627 C   0  0  0  0  0  0  0  0  0  0  0  0
   -5.2452  -16.3834   28.5688 F   0  0  0  0  0  0  0  0  0  0  0  0
   -4.7067  -10.5904   18.7850 H   0  0  0  0  0  0  0  0  0  0  0  0
   -3.0219  -10.3535   19.2936 H   0  0  0  0  0  0  0  0  0  0  0  0
   -3.8605   -9.0769   18.4821 H   0  0  0  0  0  0  0  0  0  0  0  0
   -5.2741   -8.5208   20.4569 H   0  0  0  0  0  0  0  0  0  0  0  0
   -3.7241   -8.4391   20.6873 H   0  0  0  0  0  0  0  0  0  0  0  0
   -4.4579   -9.1061   22.2243 H   0  0  0  0  0  0  0  0  0  0  0  0
   -5.5328  -10.7091   22.6937 H   0  0  0  0  0  0  0  0  0  0  0  0
   -2.9493  -10.1608   24.0474 H   0  0  0  0  0  0  0  0  0  0  0  0
   -4.1866  -10.9749   24.6157 H   0  0  0  0  0  0  0  0  0  0  0  0
   -3.0127  -13.4559   23.9174 H   0  0  0  0  0  0  0  0  0  0  0  0
   -1.5663  -13.8248   22.8040 H   0  0  0  0  0  0  0  0  0  0  0  0
   -1.4113  -12.7169   21.9959 H   0  0  0  0  0  0  0  0  0  0  0  0
    0.7698  -13.1981   21.4465 H   0  0  0  0  0  0  0  0  0  0  0  0
    3.5077   -8.8327   20.3920 H   0  0  0  0  0  0  0  0  0  0  0  0
    4.0108  -11.8385   17.6191 H   0  0  0  0  0  0  0  0  0  0  0  0
    2.2082  -12.5859   19.2554 H   0  0  0  0  0  0  0  0  0  0  0  0
   -2.3520  -12.3235   26.7804 H   0  0  0  0  0  0  0  0  0  0  0  0
   -4.1558  -13.1913   31.4094 H   0  0  0  0  0  0  0  0  0  0  0  0
   -5.5483  -15.3330   31.2287 H   0  0  0  0  0  0  0  0  0  0  0  0
  1  2  1  0
  2  3  1  0
  3  4  1  0
  4  5  1  0
  5  6  1  0
  6  7  1  0
  7  8  1  0
  8  9  2  0
  8 10  1  0
 10 11  2  0
 11 12  1  0
 12 13  2  0
 13 14  1  0
  5 15  1  0
 15 16  1  0
 16 17  2  0
 16 18  1  0
 18 19  2  0
 19 20  1  0
 20 21  1  0
 21 22  2  0
 22 23  1  0
 14 10  1  0
 22 18  1  0
  1 24  1  0
  1 25  1  0
  1 26  1  0
  2 27  1  0
  2 28  1  0
  3 29  1  0
  3 30  1  0
  4 31  1  0
  4 32  1  0
  5 33  1  0
  6 34  1  0
  6 35  1  0
  7 36  1  0
 11 37  1  0
 13 38  1  0
 14 39  1  0
 15 40  1  0
 20 41  1  0
 21 42  1  0
M  END
>  <Energy>  (1198) 
624.8335562836412

>  <compound_id>  (1198) 
10040

>  <target_id>  (1198) 
1

>  <reference_id>  (1198) 
96

>  <inspiration_ids>  (1198) 
[96, 114]

>  <energy_score>  (1198) 
571.8575841357406

>  <distance_score>  (1198) 
12.74179724022419

>  <path>  (1198) 
/opt/xchem-fragalysis-2/maxwin/BulkDock/SCRATCH/511013/C10040-P96/C10040-P96.minimised.mol

>  <scratch_subdir>  (1198) 
/opt/xchem-fragalysis-2/maxwin/BulkDock/SCRATCH/511013/C10040-P96

>  <fragmenstein_runtime>  (1198) 
38.4582941532135

>  <fragmenstein_outcome>  (1198) 
too moved

>  <fragmenstein_mode>  (1198) 
expansion

>  <fragmenstein_error>  (1198) 


$$$$
C10040-P114
     RDKit          3D

 42 43  0  0  0  0  0  0  0  0999 V2000
   -5.6278  -18.1955   12.2170 C   0  0  0  0  0  0  0  0  0  0  0  0
   -6.3005  -18.7346   13.4701 C   0  0  0  0  0  0  0  0  0  0  0  0
   -5.9115  -17.9847   14.7476 C   0  0  0  0  0  0  0  0  0  0  0  0
   -6.4432  -16.5472   14.7920 C   0  0  0  0  0  0  0  0  0  0  0  0
   -5.9977  -15.7504   16.0403 C   0  0  0  0  0  0  0  0  0  0  0  0
   -6.4107  -14.2535   15.8672 C   0  0  0  0  0  0  0  0  0  0  0  0
   -5.4034  -13.2301   16.1520 N   0  0  0  0  0  0  0  0  0  0  0  0
   -5.4928  -11.7961   16.1549 C   0  0  0  0  0  0  0  0  0  0  0  0
   -6.3919  -11.0726   15.8486 O   0  0  0  0  0  0  0  0  0  0  0  0
   -4.3106  -11.1067   16.7232 C   0  0  0  0  0  0  0  0  0  0  0  0
   -4.0076   -9.7513   16.5932 C   0  0  0  0  0  0  0  0  0  0  0  0
   -3.0003   -9.3553   17.4763 N   0  0  0  0  0  0  0  0  0  0  0  0
   -2.6556  -10.4332   18.1242 C   0  0  0  0  0  0  0  0  0  0  0  0
   -3.3219  -11.5145   17.6166 N   0  0  0  0  0  0  0  0  0  0  0  0
   -6.5256  -16.3827   17.2610 N   0  0  0  0  0  0  0  0  0  0  0  0
   -5.9915  -17.4384   18.0848 C   0  0  0  0  0  0  0  0  0  0  0  0
   -4.9460  -18.0153   18.0306 O   0  0  0  0  0  0  0  0  0  0  0  0
   -6.9039  -17.7524   19.2369 C   0  0  0  0  0  0  0  0  0  0  0  0
   -8.1488  -17.2310   19.3771 N   0  0  0  0  0  0  0  0  0  0  0  0
   -8.5848  -17.7352   20.5595 N   0  0  0  0  0  0  0  0  0  0  0  0
   -7.6897  -18.5352   21.1949 C   0  0  0  0  0  0  0  0  0  0  0  0
   -6.6066  -18.5662   20.3603 C   0  0  0  0  0  0  0  0  0  0  0  0
   -5.4692  -19.2271   20.5931 F   0  0  0  0  0  0  0  0  0  0  0  0
   -5.8609  -18.8373   11.3611 H   0  0  0  0  0  0  0  0  0  0  0  0
   -4.5399  -18.1703   12.3344 H   0  0  0  0  0  0  0  0  0  0  0  0
   -5.9741  -17.1866   11.9758 H   0  0  0  0  0  0  0  0  0  0  0  0
   -7.3887  -18.7132   13.3400 H   0  0  0  0  0  0  0  0  0  0  0  0
   -6.0163  -19.7873   13.5880 H   0  0  0  0  0  0  0  0  0  0  0  0
   -4.8203  -17.9830   14.8555 H   0  0  0  0  0  0  0  0  0  0  0  0
   -6.3177  -18.5502   15.5929 H   0  0  0  0  0  0  0  0  0  0  0  0
   -6.0894  -16.0146   13.9017 H   0  0  0  0  0  0  0  0  0  0  0  0
   -7.5394  -16.5677   14.7414 H   0  0  0  0  0  0  0  0  0  0  0  0
   -4.9048  -15.8158   16.1083 H   0  0  0  0  0  0  0  0  0  0  0  0
   -7.2774  -14.0185   16.4961 H   0  0  0  0  0  0  0  0  0  0  0  0
   -6.7221  -14.0518   14.8357 H   0  0  0  0  0  0  0  0  0  0  0  0
   -4.4631  -13.5011   16.3941 H   0  0  0  0  0  0  0  0  0  0  0  0
   -4.5243   -9.0241   15.9767 H   0  0  0  0  0  0  0  0  0  0  0  0
   -1.9423  -10.5085   18.9282 H   0  0  0  0  0  0  0  0  0  0  0  0
   -3.0197  -12.4520   17.8020 H   0  0  0  0  0  0  0  0  0  0  0  0
   -7.4166  -16.0753   17.6516 H   0  0  0  0  0  0  0  0  0  0  0  0
   -9.5138  -17.4754   20.8714 H   0  0  0  0  0  0  0  0  0  0  0  0
   -7.8797  -18.9882   22.1550 H   0  0  0  0  0  0  0  0  0  0  0  0
  1  2  1  0
  2  3  1  0
  3  4  1  0
  4  5  1  0
  5  6  1  0
  6  7  1  0
  7  8  1  0
  8  9  2  0
  8 10  1  0
 10 11  2  0
 11 12  1  0
 12 13  2  0
 13 14  1  0
  5 15  1  0
 15 16  1  0
 16 17  2  0
 16 18  1  0
 18 19  2  0
 19 20  1  0
 20 21  1  0
 21 22  2  0
 22 23  1  0
 14 10  1  0
 22 18  1  0
  1 24  1  0
  1 25  1  0
  1 26  1  0
  2 27  1  0
  2 28  1  0
  3 29  1  0
  3 30  1  0
  4 31  1  0
  4 32  1  0
  5 33  1  0
  6 34  1  0
  6 35  1  0
  7 36  1  0
 11 37  1  0
 13 38  1  0
 14 39  1  0
 15 40  1  0
 20 41  1  0
 21 42  1  0
M  END
>  <Energy>  (1199) 
19.410241676221798

>  <compound_id>  (1199) 
10040

>  <target_id>  (1199) 
1

>  <reference_id>  (1199) 
114

>  <inspiration_ids>  (1199) 
[96, 114]

>  <energy_score>  (1199) 
-33.56573047167626

>  <distance_score>  (1199) 
15.135916754349958

>  <path>  (1199) 
/opt/xchem-fragalysis-2/maxwin/BulkDock/SCRATCH/511013/C10040-P114/C10040-P114.minimised.mol

>  <scratch_subdir>  (1199) 
/opt/xchem-fragalysis-2/maxwin/BulkDock/SCRATCH/511013/C10040-P114

>  <fragmenstein_runtime>  (1199) 
38.48431921005249

>  <fragmenstein_outcome>  (1199) 
too moved

>  <fragmenstein_mode>  (1199) 
expansion

>  <fragmenstein_error>  (1199) 


$$$$
C10041-P96
     RDKit          3D

 45 46  0  0  0  0  0  0  0  0999 V2000
   -1.6678   -9.4426   19.9101 C   0  0  0  0  0  0  0  0  0  0  0  0
   -1.0282  -10.9601   20.8490 C   0  0  0  0  0  0  0  0  0  0  0  0
   -1.1893  -12.5883   22.1458 C   0  0  0  0  0  0  0  0  0  0  0  0
   -2.1913  -12.6321   23.8923 C   0  0  0  0  0  0  0  0  0  0  0  0
   -1.5472  -12.8310   25.7398 C   0  0  0  0  0  0  0  0  0  0  0  0
    0.1968  -11.7334   24.9488 C   0  0  0  0  0  0  0  0  0  0  0  0
    0.1975   -9.9015   25.1018 N   0  0  0  0  0  0  0  0  0  0  0  0
    0.9725   -8.9732   26.0344 C   0  0  0  0  0  0  0  0  0  0  0  0
    1.8271   -9.2161   26.8338 O   0  0  0  0  0  0  0  0  0  0  0  0
    0.6076   -7.5457   26.1066 C   0  0  0  0  0  0  0  0  0  0  0  0
    1.4330   -6.5197   26.5874 C   0  0  0  0  0  0  0  0  0  0  0  0
    0.8961   -5.2809   26.3554 N   0  0  0  0  0  0  0  0  0  0  0  0
   -0.3155   -5.5276   25.9258 C   0  0  0  0  0  0  0  0  0  0  0  0
   -0.5425   -6.8703   25.8127 N   0  0  0  0  0  0  0  0  0  0  0  0
   -2.2252  -14.5113   26.2184 N   0  0  0  0  0  0  0  0  0  0  0  0
   -1.5872  -15.9826   26.0804 C   0  0  0  0  0  0  0  0  0  0  0  0
   -0.5577  -16.3177   25.5591 O   0  0  0  0  0  0  0  0  0  0  0  0
   -2.2648  -17.2393   26.7916 C   0  0  0  0  0  0  0  0  0  0  0  0
   -3.4738  -17.5522   27.5100 C   0  0  0  0  0  0  0  0  0  0  0  0
   -3.5367  -18.9287   27.4917 C   0  0  0  0  0  0  0  0  0  0  0  0
   -2.3183  -19.3634   27.1190 N   0  0  0  0  0  0  0  0  0  0  0  0
   -1.8691  -20.7268   26.9837 C   0  0  0  0  0  0  0  0  0  0  0  0
   -1.5012  -18.3690   26.7924 N   0  0  0  0  0  0  0  0  0  0  0  0
   -2.3959   -9.7413   19.1277 H   0  0  0  0  0  0  0  0  0  0  0  0
   -2.1618   -8.6317   20.4159 H   0  0  0  0  0  0  0  0  0  0  0  0
   -0.8364   -9.0091   19.3562 H   0  0  0  0  0  0  0  0  0  0  0  0
   -1.9732  -11.0612   20.1991 H   0  0  0  0  0  0  0  0  0  0  0  0
   -0.0576  -10.4166   20.9222 H   0  0  0  0  0  0  0  0  0  0  0  0
   -1.5584  -13.4170   21.5290 H   0  0  0  0  0  0  0  0  0  0  0  0
   -0.1547  -12.7182   22.4433 H   0  0  0  0  0  0  0  0  0  0  0  0
   -2.8207  -13.5321   23.7807 H   0  0  0  0  0  0  0  0  0  0  0  0
   -2.8002  -11.7233   23.9372 H   0  0  0  0  0  0  0  0  0  0  0  0
   -2.0879  -12.4621   26.5952 H   0  0  0  0  0  0  0  0  0  0  0  0
    1.1649  -12.2078   25.1714 H   0  0  0  0  0  0  0  0  0  0  0  0
    0.3278  -11.6937   23.9010 H   0  0  0  0  0  0  0  0  0  0  0  0
   -0.3789   -9.3648   24.5111 H   0  0  0  0  0  0  0  0  0  0  0  0
    2.4282   -6.6300   27.0050 H   0  0  0  0  0  0  0  0  0  0  0  0
   -1.0678   -4.7871   25.6852 H   0  0  0  0  0  0  0  0  0  0  0  0
   -1.4026   -7.3005   25.5281 H   0  0  0  0  0  0  0  0  0  0  0  0
   -3.0623  -14.5600   26.7861 H   0  0  0  0  0  0  0  0  0  0  0  0
   -4.2874  -16.8835   27.7523 H   0  0  0  0  0  0  0  0  0  0  0  0
   -4.3180  -19.6362   27.6441 H   0  0  0  0  0  0  0  0  0  0  0  0
   -1.6821  -20.9252   25.9254 H   0  0  0  0  0  0  0  0  0  0  0  0
   -2.6404  -21.4031   27.3605 H   0  0  0  0  0  0  0  0  0  0  0  0
   -0.9523  -20.8490   27.5660 H   0  0  0  0  0  0  0  0  0  0  0  0
  1  2  1  0
  2  3  1  0
  3  4  1  0
  4  5  1  0
  5  6  1  0
  6  7  1  0
  7  8  1  0
  8  9  2  0
  8 10  1  0
 10 11  2  0
 11 12  1  0
 12 13  2  0
 13 14  1  0
  5 15  1  0
 15 16  1  0
 16 17  2  0
 16 18  1  0
 18 19  1  0
 19 20  2  0
 20 21  1  0
 21 22  1  0
 21 23  1  0
 14 10  1  0
 23 18  2  0
  1 24  1  0
  1 25  1  0
  1 26  1  0
  2 27  1  0
  2 28  1  0
  3 29  1  0
  3 30  1  0
  4 31  1  0
  4 32  1  0
  5 33  1  0
  6 34  1  0
  6 35  1  0
  7 36  1  0
 11 37  1  0
 13 38  1  0
 14 39  1  0
 15 40  1  0
 19 41  1  0
 20 42  1  0
 22 43  1  0
 22 44  1  0
 22 45  1  0
M  END
>  <Energy>  (1200) 
630.0842889160333

>  <compound_id>  (1200) 
10041

>  <target_id>  (1200) 
1

>  <reference_id>  (1200) 
96

>  <inspiration_ids>  (1200) 
[96, 114]

>  <energy_score>  (1200) 
574.4918581780762

>  <distance_score>  (1200) 
13.495357568466817

>  <path>  (1200) 
/opt/xchem-fragalysis-2/maxwin/BulkDock/SCRATCH/511013/C10041-P96/C10041-P96.minimised.mol

>  <scratch_subdir>  (1200) 
/opt/xchem-fragalysis-2/maxwin/BulkDock/SCRATCH/511013/C10041-P96

>  <fragmenstein_runtime>  (1200) 
25.493332624435425

>  <fragmenstein_outcome>  (1200) 
too moved

>  <fragmenstein_mode>  (1200) 
expansion

>  <fragmenstein_error>  (1200) 


$$$$
C10041-P114
     RDKit          3D

 45 46  0  0  0  0  0  0  0  0999 V2000
   -3.2349  -11.5775   20.1111 C   0  0  0  0  0  0  0  0  0  0  0  0
   -2.0786  -12.5752   20.2951 C   0  0  0  0  0  0  0  0  0  0  0  0
   -1.9565  -14.4456   20.7570 C   0  0  0  0  0  0  0  0  0  0  0  0
   -0.5607  -15.1880   22.0102 C   0  0  0  0  0  0  0  0  0  0  0  0
    0.5952  -15.9878   20.4686 C   0  0  0  0  0  0  0  0  0  0  0  0
    2.2010  -15.0995   19.3077 C   0  0  0  0  0  0  0  0  0  0  0  0
    3.5826  -14.0047   18.9743 N   0  0  0  0  0  0  0  0  0  0  0  0
    4.4411  -12.9552   20.0043 C   0  0  0  0  0  0  0  0  0  0  0  0
    4.1501  -12.7434   21.1325 O   0  0  0  0  0  0  0  0  0  0  0  0
    5.7417  -12.2602   19.6851 C   0  0  0  0  0  0  0  0  0  0  0  0
    6.7457  -12.2241   20.6607 C   0  0  0  0  0  0  0  0  0  0  0  0
    7.8195  -11.4256   20.6702 N   0  0  0  0  0  0  0  0  0  0  0  0
    7.5261  -10.7414   19.6281 C   0  0  0  0  0  0  0  0  0  0  0  0
    6.2325  -11.1100   19.1171 N   0  0  0  0  0  0  0  0  0  0  0  0
   -0.3141  -17.4071   20.3546 N   0  0  0  0  0  0  0  0  0  0  0  0
   -1.6140  -17.6658   19.7600 C   0  0  0  0  0  0  0  0  0  0  0  0
   -2.3397  -16.9531   19.1224 O   0  0  0  0  0  0  0  0  0  0  0  0
   -2.1136  -19.0427   20.1288 C   0  0  0  0  0  0  0  0  0  0  0  0
   -3.3927  -19.6027   19.8113 C   0  0  0  0  0  0  0  0  0  0  0  0
   -3.5067  -20.7557   20.5547 C   0  0  0  0  0  0  0  0  0  0  0  0
   -2.3388  -20.8598   21.2429 N   0  0  0  0  0  0  0  0  0  0  0  0
   -1.9581  -21.9162   22.1489 C   0  0  0  0  0  0  0  0  0  0  0  0
   -1.4845  -19.8346   21.0289 N   0  0  0  0  0  0  0  0  0  0  0  0
   -4.2162  -11.9979   19.9719 H   0  0  0  0  0  0  0  0  0  0  0  0
   -3.2415  -10.8447   20.9206 H   0  0  0  0  0  0  0  0  0  0  0  0
   -3.0370  -10.9690   19.2174 H   0  0  0  0  0  0  0  0  0  0  0  0
   -1.7615  -12.4829   19.2425 H   0  0  0  0  0  0  0  0  0  0  0  0
   -1.4353  -11.9721   20.9021 H   0  0  0  0  0  0  0  0  0  0  0  0
   -2.7399  -15.1858   20.6106 H   0  0  0  0  0  0  0  0  0  0  0  0
   -1.6813  -14.8681   19.7529 H   0  0  0  0  0  0  0  0  0  0  0  0
   -0.0128  -14.3283   22.3611 H   0  0  0  0  0  0  0  0  0  0  0  0
   -1.1429  -15.1325   22.9582 H   0  0  0  0  0  0  0  0  0  0  0  0
    1.0828  -16.7479   20.8923 H   0  0  0  0  0  0  0  0  0  0  0  0
    2.2971  -14.5802   20.2557 H   0  0  0  0  0  0  0  0  0  0  0  0
    1.8298  -14.7992   18.3160 H   0  0  0  0  0  0  0  0  0  0  0  0
    4.0672  -14.0771   18.1103 H   0  0  0  0  0  0  0  0  0  0  0  0
    6.7604  -13.0437   21.2570 H   0  0  0  0  0  0  0  0  0  0  0  0
    8.1982  -10.0225   19.1827 H   0  0  0  0  0  0  0  0  0  0  0  0
    5.7495  -10.6158   18.3772 H   0  0  0  0  0  0  0  0  0  0  0  0
   -0.0274  -18.2268   20.9002 H   0  0  0  0  0  0  0  0  0  0  0  0
   -4.1424  -19.1661   19.1651 H   0  0  0  0  0  0  0  0  0  0  0  0
   -4.3043  -21.4800   20.6443 H   0  0  0  0  0  0  0  0  0  0  0  0
   -1.7797  -21.4770   23.1337 H   0  0  0  0  0  0  0  0  0  0  0  0
   -1.0488  -22.3866   21.7665 H   0  0  0  0  0  0  0  0  0  0  0  0
   -2.7632  -22.6526   22.2089 H   0  0  0  0  0  0  0  0  0  0  0  0
  1  2  1  0
  2  3  1  0
  3  4  1  0
  4  5  1  0
  5  6  1  0
  6  7  1  0
  7  8  1  0
  8  9  2  0
  8 10  1  0
 10 11  2  0
 11 12  1  0
 12 13  2  0
 13 14  1  0
  5 15  1  0
 15 16  1  0
 16 17  2  0
 16 18  1  0
 18 19  1  0
 19 20  2  0
 20 21  1  0
 21 22  1  0
 21 23  1  0
 14 10  1  0
 23 18  2  0
  1 24  1  0
  1 25  1  0
  1 26  1  0
  2 27  1  0
  2 28  1  0
  3 29  1  0
  3 30  1  0
  4 31  1  0
  4 32  1  0
  5 33  1  0
  6 34  1  0
  6 35  1  0
  7 36  1  0
 11 37  1  0
 13 38  1  0
 14 39  1  0
 15 40  1  0
 19 41  1  0
 20 42  1  0
 22 43  1  0
 22 44  1  0
 22 45  1  0
M  END
>  <Energy>  (1201) 
611.3760913369432

>  <compound_id>  (1201) 
10041

>  <target_id>  (1201) 
1

>  <reference_id>  (1201) 
114

>  <inspiration_ids>  (1201) 
[96, 114]

>  <energy_score>  (1201) 
555.7836605989743

>  <distance_score>  (1201) 
12.602950879968349

>  <path>  (1201) 
/opt/xchem-fragalysis-2/maxwin/BulkDock/SCRATCH/511013/C10041-P114/C10041-P114.minimised.mol

>  <scratch_subdir>  (1201) 
/opt/xchem-fragalysis-2/maxwin/BulkDock/SCRATCH/511013/C10041-P114

>  <fragmenstein_runtime>  (1201) 
30.316504955291748

>  <fragmenstein_outcome>  (1201) 
too moved

>  <fragmenstein_mode>  (1201) 
expansion

>  <fragmenstein_error>  (1201) 


$$$$
C10042-P96
     RDKit          3D

 42 43  0  0  0  0  0  0  0  0999 V2000
    1.0688  -20.2590   18.2160 C   0  0  0  0  0  0  0  0  0  0  0  0
    1.7952  -19.7237   19.4754 C   0  0  0  0  0  0  0  0  0  0  0  0
    0.9239  -18.7965   20.2573 N   0  0  0  0  0  0  0  0  0  0  0  0
   -0.1211  -19.5692   20.9734 C   0  0  0  0  0  0  0  0  0  0  0  0
   -0.1204  -20.0443   22.0753 O   0  0  0  0  0  0  0  0  0  0  0  0
   -1.3759  -19.9437   20.2138 C   0  0  0  0  0  0  0  0  0  0  0  0
   -1.9440  -19.4638   19.0044 C   0  0  0  0  0  0  0  0  0  0  0  0
   -3.1464  -20.1244   18.8543 C   0  0  0  0  0  0  0  0  0  0  0  0
   -3.2624  -20.9450   19.9310 N   0  0  0  0  0  0  0  0  0  0  0  0
   -2.2060  -20.8898   20.7413 N   0  0  0  0  0  0  0  0  0  0  0  0
    2.5367  -18.1641   20.8347 C   0  0  0  0  0  0  0  0  0  0  0  0
    3.0498  -17.4906   22.4521 C   0  0  0  0  0  0  0  0  0  0  0  0
    4.2764  -17.4857   20.2068 C   0  0  0  0  0  0  0  0  0  0  0  0
    5.6922  -17.0206   19.1480 N   0  0  0  0  0  0  0  0  0  0  0  0
    7.0053  -17.7655   18.8404 C   0  0  0  0  0  0  0  0  0  0  0  0
    7.3763  -18.8716   19.1638 O   0  0  0  0  0  0  0  0  0  0  0  0
    7.9377  -17.0444   17.9017 C   0  0  0  0  0  0  0  0  0  0  0  0
    9.2080  -16.3509   18.3312 C   0  0  0  0  0  0  0  0  0  0  0  0
   10.0935  -15.5405   17.6263 C   0  0  0  0  0  0  0  0  0  0  0  0
   11.0864  -15.0452   18.4305 N   0  0  0  0  0  0  0  0  0  0  0  0
   10.9011  -15.6367   19.5859 C   0  0  0  0  0  0  0  0  0  0  0  0
    9.7736  -16.4183   19.5804 N   0  0  0  0  0  0  0  0  0  0  0  0
    1.7869  -20.7815   17.5726 H   0  0  0  0  0  0  0  0  0  0  0  0
    0.2973  -20.9907   18.4649 H   0  0  0  0  0  0  0  0  0  0  0  0
    0.6320  -19.4425   17.6334 H   0  0  0  0  0  0  0  0  0  0  0  0
    2.0002  -20.6518   20.0110 H   0  0  0  0  0  0  0  0  0  0  0  0
    2.6183  -19.2788   18.9541 H   0  0  0  0  0  0  0  0  0  0  0  0
   -1.5416  -18.6976   18.3578 H   0  0  0  0  0  0  0  0  0  0  0  0
   -3.9179  -20.0636   18.1009 H   0  0  0  0  0  0  0  0  0  0  0  0
   -4.0224  -21.5731   20.1723 H   0  0  0  0  0  0  0  0  0  0  0  0
    2.0402  -17.3853   20.3907 H   0  0  0  0  0  0  0  0  0  0  0  0
    3.0692  -16.4000   22.3196 H   0  0  0  0  0  0  0  0  0  0  0  0
    3.9005  -17.9431   22.9349 H   0  0  0  0  0  0  0  0  0  0  0  0
    2.3870  -17.2954   23.3055 H   0  0  0  0  0  0  0  0  0  0  0  0
    3.4884  -17.3996   19.6005 H   0  0  0  0  0  0  0  0  0  0  0  0
    4.6111  -16.6638   20.7910 H   0  0  0  0  0  0  0  0  0  0  0  0
    5.7498  -16.0768   18.7889 H   0  0  0  0  0  0  0  0  0  0  0  0
    8.2228  -17.7721   17.1278 H   0  0  0  0  0  0  0  0  0  0  0  0
    7.2260  -16.4126   17.4256 H   0  0  0  0  0  0  0  0  0  0  0  0
   10.0533  -15.2677   16.5800 H   0  0  0  0  0  0  0  0  0  0  0  0
   11.5185  -15.5247   20.4672 H   0  0  0  0  0  0  0  0  0  0  0  0
    9.3793  -16.9045   20.3755 H   0  0  0  0  0  0  0  0  0  0  0  0
  1  2  1  0
  2  3  1  0
  3  4  1  0
  4  5  2  0
  4  6  1  0
  6  7  1  0
  7  8  2  0
  8  9  1  0
  9 10  1  0
  3 11  1  0
 11 12  1  0
 11 13  1  0
 13 14  1  0
 14 15  1  0
 15 16  2  0
 15 17  1  0
 17 18  1  0
 18 19  2  0
 19 20  1  0
 20 21  2  0
 21 22  1  0
 10  6  2  0
 22 18  1  0
  1 23  1  0
  1 24  1  0
  1 25  1  0
  2 26  1  0
  2 27  1  0
  7 28  1  0
  8 29  1  0
  9 30  1  0
 11 31  1  0
 12 32  1  0
 12 33  1  0
 12 34  1  0
 13 35  1  0
 13 36  1  0
 14 37  1  0
 17 38  1  0
 17 39  1  0
 19 40  1  0
 21 41  1  0
 22 42  1  0
M  END
>  <Energy>  (1202) 
476.54845457944361

>  <compound_id>  (1202) 
10042

>  <target_id>  (1202) 
1

>  <reference_id>  (1202) 
96

>  <inspiration_ids>  (1202) 
[96, 114]

>  <energy_score>  (1202) 
381.844579710591

>  <distance_score>  (1202) 
14.122126430675538

>  <path>  (1202) 
/opt/xchem-fragalysis-2/maxwin/BulkDock/SCRATCH/511013/C10042-P96/C10042-P96.minimised.mol

>  <scratch_subdir>  (1202) 
/opt/xchem-fragalysis-2/maxwin/BulkDock/SCRATCH/511013/C10042-P96

>  <fragmenstein_runtime>  (1202) 
19.578131437301636

>  <fragmenstein_outcome>  (1202) 
too moved

>  <fragmenstein_mode>  (1202) 
expansion

>  <fragmenstein_error>  (1202) 


$$$$
C10042-P114
     RDKit          3D

 42 43  0  0  0  0  0  0  0  0999 V2000
   -7.8213  -10.3879   25.1894 C   0  0  0  0  0  0  0  0  0  0  0  0
   -6.5326  -11.1642   24.4200 C   0  0  0  0  0  0  0  0  0  0  0  0
   -5.9639  -12.3618   24.8937 N   0  0  0  0  0  0  0  0  0  0  0  0
   -6.6004  -12.7303   26.4982 C   0  0  0  0  0  0  0  0  0  0  0  0
   -6.0252  -12.3368   27.4416 O   0  0  0  0  0  0  0  0  0  0  0  0
   -7.9024  -13.7418   27.0005 C   0  0  0  0  0  0  0  0  0  0  0  0
   -8.3772  -13.8024   28.3623 C   0  0  0  0  0  0  0  0  0  0  0  0
   -9.3337  -14.7866   28.4154 C   0  0  0  0  0  0  0  0  0  0  0  0
   -9.3588  -15.3372   27.1787 N   0  0  0  0  0  0  0  0  0  0  0  0
   -8.5157  -14.7639   26.3062 N   0  0  0  0  0  0  0  0  0  0  0  0
   -4.2565  -11.4780   24.3361 C   0  0  0  0  0  0  0  0  0  0  0  0
   -3.0647  -12.1313   25.6432 C   0  0  0  0  0  0  0  0  0  0  0  0
   -3.4408   -9.9630   23.0309 C   0  0  0  0  0  0  0  0  0  0  0  0
   -1.9554   -8.7967   23.3436 N   0  0  0  0  0  0  0  0  0  0  0  0
   -0.3235   -8.7297   22.6096 C   0  0  0  0  0  0  0  0  0  0  0  0
    0.0517   -9.4128   21.6798 O   0  0  0  0  0  0  0  0  0  0  0  0
    1.0408   -7.5313   23.5156 C   0  0  0  0  0  0  0  0  0  0  0  0
    3.0316   -7.2516   24.1001 C   0  0  0  0  0  0  0  0  0  0  0  0
    3.8032   -6.1804   25.2078 C   0  0  0  0  0  0  0  0  0  0  0  0
    5.1147   -6.2403   25.5278 N   0  0  0  0  0  0  0  0  0  0  0  0
    5.5572   -7.0336   24.6264 C   0  0  0  0  0  0  0  0  0  0  0  0
    4.5878   -7.4517   23.7367 N   0  0  0  0  0  0  0  0  0  0  0  0
   -8.4798  -10.9884   25.8145 H   0  0  0  0  0  0  0  0  0  0  0  0
   -7.6255   -9.4878   25.7496 H   0  0  0  0  0  0  0  0  0  0  0  0
   -8.4839   -9.9545   24.4155 H   0  0  0  0  0  0  0  0  0  0  0  0
   -7.0675  -10.8486   23.4998 H   0  0  0  0  0  0  0  0  0  0  0  0
   -6.5470  -11.8307   23.5180 H   0  0  0  0  0  0  0  0  0  0  0  0
   -8.0372  -13.1839   29.1795 H   0  0  0  0  0  0  0  0  0  0  0  0
   -9.9685  -15.1343   29.2147 H   0  0  0  0  0  0  0  0  0  0  0  0
   -9.9182  -16.1173   26.8549 H   0  0  0  0  0  0  0  0  0  0  0  0
   -3.9854  -12.4784   24.1524 H   0  0  0  0  0  0  0  0  0  0  0  0
   -3.5277  -12.2520   26.6236 H   0  0  0  0  0  0  0  0  0  0  0  0
   -2.5343  -13.0437   25.4313 H   0  0  0  0  0  0  0  0  0  0  0  0
   -2.2823  -11.4591   25.8360 H   0  0  0  0  0  0  0  0  0  0  0  0
   -4.0278   -9.1182   22.6945 H   0  0  0  0  0  0  0  0  0  0  0  0
   -3.2235  -10.3564   22.0056 H   0  0  0  0  0  0  0  0  0  0  0  0
   -2.0375   -8.0638   24.0484 H   0  0  0  0  0  0  0  0  0  0  0  0
    0.7656   -6.5028   23.2231 H   0  0  0  0  0  0  0  0  0  0  0  0
    0.4462   -7.5960   24.4443 H   0  0  0  0  0  0  0  0  0  0  0  0
    3.2109   -5.4243   25.7501 H   0  0  0  0  0  0  0  0  0  0  0  0
    6.5976   -7.3029   24.5072 H   0  0  0  0  0  0  0  0  0  0  0  0
    4.8278   -8.0219   22.9558 H   0  0  0  0  0  0  0  0  0  0  0  0
  1  2  1  0
  2  3  1  0
  3  4  1  0
  4  5  2  0
  4  6  1  0
  6  7  1  0
  7  8  2  0
  8  9  1  0
  9 10  1  0
  3 11  1  0
 11 12  1  0
 11 13  1  0
 13 14  1  0
 14 15  1  0
 15 16  2  0
 15 17  1  0
 17 18  1  0
 18 19  2  0
 19 20  1  0
 20 21  2  0
 21 22  1  0
 10  6  2  0
 22 18  1  0
  1 23  1  0
  1 24  1  0
  1 25  1  0
  2 26  1  0
  2 27  1  0
  7 28  1  0
  8 29  1  0
  9 30  1  0
 11 31  1  0
 12 32  1  0
 12 33  1  0
 12 34  1  0
 13 35  1  0
 13 36  1  0
 14 37  1  0
 17 38  1  0
 17 39  1  0
 19 40  1  0
 21 41  1  0
 22 42  1  0
M  END
>  <Energy>  (1203) 
936.52548376060463

>  <compound_id>  (1203) 
10042

>  <target_id>  (1203) 
1

>  <reference_id>  (1203) 
114

>  <inspiration_ids>  (1203) 
[96, 114]

>  <energy_score>  (1203) 
841.8216088917507

>  <distance_score>  (1203) 
11.950021844463645

>  <path>  (1203) 
/opt/xchem-fragalysis-2/maxwin/BulkDock/SCRATCH/511013/C10042-P114/C10042-P114.minimised.mol

>  <scratch_subdir>  (1203) 
/opt/xchem-fragalysis-2/maxwin/BulkDock/SCRATCH/511013/C10042-P114

>  <fragmenstein_runtime>  (1203) 
36.528995513916016

>  <fragmenstein_outcome>  (1203) 
too moved

>  <fragmenstein_mode>  (1203) 
expansion

>  <fragmenstein_error>  (1203) 


$$$$
C10043-P96
     RDKit          3D

 45 46  0  0  0  0  0  0  0  0999 V2000
   -2.1019  -13.7036   21.3540 C   0  0  0  0  0  0  0  0  0  0  0  0
   -3.4174  -13.9321   22.8935 C   0  0  0  0  0  0  0  0  0  0  0  0
   -2.6484  -14.7968   23.4588 N   0  0  0  0  0  0  0  0  0  0  0  0
   -2.7112  -15.5732   25.0977 C   0  0  0  0  0  0  0  0  0  0  0  0
   -3.4577  -15.3533   26.0471 O   0  0  0  0  0  0  0  0  0  0  0  0
   -1.7955  -16.9063   25.4161 C   0  0  0  0  0  0  0  0  0  0  0  0
   -2.7275  -18.4206   25.1544 C   0  0  0  0  0  0  0  0  0  0  0  0
   -2.8865  -19.2410   26.2248 C   0  0  0  0  0  0  0  0  0  0  0  0
   -1.9271  -18.7196   26.9561 N   0  0  0  0  0  0  0  0  0  0  0  0
   -1.4364  -19.4360   28.1345 C   0  0  0  0  0  0  0  0  0  0  0  0
   -1.2341  -17.5990   26.3994 N   0  0  0  0  0  0  0  0  0  0  0  0
   -1.5068  -13.1882   23.2185 C   0  0  0  0  0  0  0  0  0  0  0  0
   -2.3527  -12.2746   24.0936 C   0  0  0  0  0  0  0  0  0  0  0  0
    0.2427  -12.5814   22.3233 C   0  0  0  0  0  0  0  0  0  0  0  0
    1.4408  -11.0348   22.0737 N   0  0  0  0  0  0  0  0  0  0  0  0
    2.5707  -10.5698   20.6987 C   0  0  0  0  0  0  0  0  0  0  0  0
    2.6138  -11.2120   19.6781 O   0  0  0  0  0  0  0  0  0  0  0  0
    4.0445   -9.0800   20.6426 C   0  0  0  0  0  0  0  0  0  0  0  0
    5.6394   -8.7124   21.6158 C   0  0  0  0  0  0  0  0  0  0  0  0
    6.7626   -9.3931   22.1100 C   0  0  0  0  0  0  0  0  0  0  0  0
    7.7160   -8.5509   22.6562 N   0  0  0  0  0  0  0  0  0  0  0  0
    7.1947   -7.3578   22.6163 C   0  0  0  0  0  0  0  0  0  0  0  0
    5.9385   -7.4134   22.1148 N   0  0  0  0  0  0  0  0  0  0  0  0
   -1.2791  -14.3111   20.8593 H   0  0  0  0  0  0  0  0  0  0  0  0
   -1.4010  -12.9100   21.4427 H   0  0  0  0  0  0  0  0  0  0  0  0
   -2.6333  -13.7119   20.3124 H   0  0  0  0  0  0  0  0  0  0  0  0
   -3.5086  -13.6944   23.8760 H   0  0  0  0  0  0  0  0  0  0  0  0
   -4.3503  -14.2319   22.4729 H   0  0  0  0  0  0  0  0  0  0  0  0
   -3.4593  -18.6385   24.4097 H   0  0  0  0  0  0  0  0  0  0  0  0
   -3.4928  -20.1080   26.4380 H   0  0  0  0  0  0  0  0  0  0  0  0
   -1.2713  -20.4818   27.8591 H   0  0  0  0  0  0  0  0  0  0  0  0
   -0.5010  -19.0062   28.4891 H   0  0  0  0  0  0  0  0  0  0  0  0
   -2.2048  -19.3703   28.9096 H   0  0  0  0  0  0  0  0  0  0  0  0
   -1.2084  -14.1030   23.1336 H   0  0  0  0  0  0  0  0  0  0  0  0
   -2.4814  -12.7113   25.0939 H   0  0  0  0  0  0  0  0  0  0  0  0
   -1.9691  -11.3375   23.8995 H   0  0  0  0  0  0  0  0  0  0  0  0
   -3.2524  -11.7011   23.9009 H   0  0  0  0  0  0  0  0  0  0  0  0
    0.0915  -13.1032   21.3685 H   0  0  0  0  0  0  0  0  0  0  0  0
    1.0707  -13.2571   21.9699 H   0  0  0  0  0  0  0  0  0  0  0  0
    1.6148  -10.4339   22.8517 H   0  0  0  0  0  0  0  0  0  0  0  0
    4.5185   -9.6450   21.5717 H   0  0  0  0  0  0  0  0  0  0  0  0
    4.4898   -9.2634   19.6495 H   0  0  0  0  0  0  0  0  0  0  0  0
    7.0265  -10.4286   22.0712 H   0  0  0  0  0  0  0  0  0  0  0  0
    7.6659   -6.4404   22.9406 H   0  0  0  0  0  0  0  0  0  0  0  0
    5.3638   -6.6178   21.8762 H   0  0  0  0  0  0  0  0  0  0  0  0
  1  2  1  0
  2  3  1  0
  3  4  1  0
  4  5  2  0
  4  6  1  0
  6  7  1  0
  7  8  2  0
  8  9  1  0
  9 10  1  0
  9 11  1  0
  3 12  1  0
 12 13  1  0
 12 14  1  0
 14 15  1  0
 15 16  1  0
 16 17  2  0
 16 18  1  0
 18 19  1  0
 19 20  2  0
 20 21  1  0
 21 22  2  0
 22 23  1  0
 11  6  2  0
 23 19  1  0
  1 24  1  0
  1 25  1  0
  1 26  1  0
  2 27  1  0
  2 28  1  0
  7 29  1  0
  8 30  1  0
 10 31  1  0
 10 32  1  0
 10 33  1  0
 12 34  1  0
 13 35  1  0
 13 36  1  0
 13 37  1  0
 14 38  1  0
 14 39  1  0
 15 40  1  0
 18 41  1  0
 18 42  1  0
 20 43  1  0
 22 44  1  0
 23 45  1  0
M  END
>  <Energy>  (1204) 
1228.8192899349979

>  <compound_id>  (1204) 
10043

>  <target_id>  (1204) 
1

>  <reference_id>  (1204) 
96

>  <inspiration_ids>  (1204) 
[96, 114]

>  <energy_score>  (1204) 
1132.7084928536628

>  <distance_score>  (1204) 
10.983192945970886

>  <path>  (1204) 
/opt/xchem-fragalysis-2/maxwin/BulkDock/SCRATCH/511013/C10043-P96/C10043-P96.minimised.mol

>  <scratch_subdir>  (1204) 
/opt/xchem-fragalysis-2/maxwin/BulkDock/SCRATCH/511013/C10043-P96

>  <fragmenstein_runtime>  (1204) 
19.44171667098999

>  <fragmenstein_outcome>  (1204) 
too moved

>  <fragmenstein_mode>  (1204) 
expansion

>  <fragmenstein_error>  (1204) 


$$$$
C10043-P114
     RDKit          3D

 45 46  0  0  0  0  0  0  0  0999 V2000
   -2.0003  -14.8097   21.3788 C   0  0  0  0  0  0  0  0  0  0  0  0
   -2.7977  -15.1921   23.3102 C   0  0  0  0  0  0  0  0  0  0  0  0
   -2.8436  -15.6791   25.0238 N   0  0  0  0  0  0  0  0  0  0  0  0
   -2.3766  -17.2173   25.8202 C   0  0  0  0  0  0  0  0  0  0  0  0
   -1.8442  -18.2076   25.3608 O   0  0  0  0  0  0  0  0  0  0  0  0
   -2.7713  -17.4772   27.3060 C   0  0  0  0  0  0  0  0  0  0  0  0
   -2.6696  -18.8942   27.6678 C   0  0  0  0  0  0  0  0  0  0  0  0
   -3.8840  -19.3584   27.1361 C   0  0  0  0  0  0  0  0  0  0  0  0
   -4.6647  -18.2223   27.0938 N   0  0  0  0  0  0  0  0  0  0  0  0
   -5.9527  -17.9629   26.5011 C   0  0  0  0  0  0  0  0  0  0  0  0
   -4.0187  -17.2593   27.7667 N   0  0  0  0  0  0  0  0  0  0  0  0
   -1.4977  -14.4517   25.1104 C   0  0  0  0  0  0  0  0  0  0  0  0
   -2.4373  -12.9638   25.5198 C   0  0  0  0  0  0  0  0  0  0  0  0
    0.3518  -14.1117   24.3893 C   0  0  0  0  0  0  0  0  0  0  0  0
    1.9817  -13.3268   25.0257 N   0  0  0  0  0  0  0  0  0  0  0  0
    3.3896  -12.8277   24.1894 C   0  0  0  0  0  0  0  0  0  0  0  0
    3.4883  -12.8059   23.0060 O   0  0  0  0  0  0  0  0  0  0  0  0
    5.2039  -12.3848   25.2445 C   0  0  0  0  0  0  0  0  0  0  0  0
    6.8149  -11.6910   25.2175 C   0  0  0  0  0  0  0  0  0  0  0  0
    8.0480  -12.1957   25.6067 C   0  0  0  0  0  0  0  0  0  0  0  0
    9.0562  -11.2632   25.4832 N   0  0  0  0  0  0  0  0  0  0  0  0
    8.4783  -10.1710   25.0574 C   0  0  0  0  0  0  0  0  0  0  0  0
    7.1527  -10.3861   24.8218 N   0  0  0  0  0  0  0  0  0  0  0  0
   -2.7411  -15.2854   20.6410 H   0  0  0  0  0  0  0  0  0  0  0  0
   -1.4367  -15.6477   20.8066 H   0  0  0  0  0  0  0  0  0  0  0  0
   -2.0609  -13.8356   20.8598 H   0  0  0  0  0  0  0  0  0  0  0  0
   -3.7058  -14.6517   23.5327 H   0  0  0  0  0  0  0  0  0  0  0  0
   -3.5227  -15.8466   22.8196 H   0  0  0  0  0  0  0  0  0  0  0  0
   -1.7743  -19.5023   27.6411 H   0  0  0  0  0  0  0  0  0  0  0  0
   -4.2215  -20.3206   26.7786 H   0  0  0  0  0  0  0  0  0  0  0  0
   -6.3609  -18.9208   26.2406 H   0  0  0  0  0  0  0  0  0  0  0  0
   -5.9051  -17.3505   25.6106 H   0  0  0  0  0  0  0  0  0  0  0  0
   -6.5979  -17.4134   27.1927 H   0  0  0  0  0  0  0  0  0  0  0  0
   -1.2781  -14.9298   24.1865 H   0  0  0  0  0  0  0  0  0  0  0  0
   -3.1984  -12.5189   24.8690 H   0  0  0  0  0  0  0  0  0  0  0  0
   -1.9089  -12.0821   25.7700 H   0  0  0  0  0  0  0  0  0  0  0  0
   -3.0470  -13.1212   26.3952 H   0  0  0  0  0  0  0  0  0  0  0  0
   -0.0698  -13.8268   23.3796 H   0  0  0  0  0  0  0  0  0  0  0  0
    1.0635  -14.5566   23.6988 H   0  0  0  0  0  0  0  0  0  0  0  0
    2.1179  -13.1761   26.0156 H   0  0  0  0  0  0  0  0  0  0  0  0
    5.4815  -13.3469   25.7339 H   0  0  0  0  0  0  0  0  0  0  0  0
    5.5578  -11.8706   24.2862 H   0  0  0  0  0  0  0  0  0  0  0  0
    8.2736  -13.1817   25.9939 H   0  0  0  0  0  0  0  0  0  0  0  0
    8.9601   -9.2228   24.8597 H   0  0  0  0  0  0  0  0  0  0  0  0
    6.5473   -9.7006   24.3791 H   0  0  0  0  0  0  0  0  0  0  0  0
  1  2  1  0
  2  3  1  0
  3  4  1  0
  4  5  2  0
  4  6  1  0
  6  7  1  0
  7  8  2  0
  8  9  1  0
  9 10  1  0
  9 11  1  0
  3 12  1  0
 12 13  1  0
 12 14  1  0
 14 15  1  0
 15 16  1  0
 16 17  2  0
 16 18  1  0
 18 19  1  0
 19 20  2  0
 20 21  1  0
 21 22  2  0
 22 23  1  0
 11  6  2  0
 23 19  1  0
  1 24  1  0
  1 25  1  0
  1 26  1  0
  2 27  1  0
  2 28  1  0
  7 29  1  0
  8 30  1  0
 10 31  1  0
 10 32  1  0
 10 33  1  0
 12 34  1  0
 13 35  1  0
 13 36  1  0
 13 37  1  0
 14 38  1  0
 14 39  1  0
 15 40  1  0
 18 41  1  0
 18 42  1  0
 20 43  1  0
 22 44  1  0
 23 45  1  0
M  END
>  <Energy>  (1205) 
993.72824451579697

>  <compound_id>  (1205) 
10043

>  <target_id>  (1205) 
1

>  <reference_id>  (1205) 
114

>  <inspiration_ids>  (1205) 
[96, 114]

>  <energy_score>  (1205) 
897.6174474344568

>  <distance_score>  (1205) 
11.92381010122777

>  <path>  (1205) 
/opt/xchem-fragalysis-2/maxwin/BulkDock/SCRATCH/511013/C10043-P114/C10043-P114.minimised.mol

>  <scratch_subdir>  (1205) 
/opt/xchem-fragalysis-2/maxwin/BulkDock/SCRATCH/511013/C10043-P114

>  <fragmenstein_runtime>  (1205) 
25.808651447296143

>  <fragmenstein_outcome>  (1205) 
too moved

>  <fragmenstein_mode>  (1205) 
expansion

>  <fragmenstein_error>  (1205) 


$$$$
C10045-P96
     RDKit          3D

 45 46  0  0  0  0  0  0  0  0999 V2000
    2.8759  -13.6619   21.7811 C   0  0  0  0  0  0  0  0  0  0  0  0
    1.2183  -13.0406   21.7283 C   0  0  0  0  0  0  0  0  0  0  0  0
   -0.1350  -13.9331   20.4672 C   0  0  0  0  0  0  0  0  0  0  0  0
   -0.7872  -15.4672   19.6053 C   0  0  0  0  0  0  0  0  0  0  0  0
   -0.5487  -16.8340   20.0362 C   0  0  0  0  0  0  0  0  0  0  0  0
   -2.2755  -15.8984   19.0074 N   0  0  0  0  0  0  0  0  0  0  0  0
   -3.2974  -15.1306   18.3716 C   0  0  0  0  0  0  0  0  0  0  0  0
   -3.3150  -13.9865   18.0297 O   0  0  0  0  0  0  0  0  0  0  0  0
   -4.5077  -16.0189   18.2705 C   0  0  0  0  0  0  0  0  0  0  0  0
   -4.6051  -17.4153   18.2026 C   0  0  0  0  0  0  0  0  0  0  0  0
   -5.9424  -17.7447   18.4913 C   0  0  0  0  0  0  0  0  0  0  0  0
   -6.6888  -16.6571   18.6547 N   0  0  0  0  0  0  0  0  0  0  0  0
   -5.8350  -15.6345   18.3703 N   0  0  0  0  0  0  0  0  0  0  0  0
   -6.4179  -14.3336   18.1413 C   0  0  0  0  0  0  0  0  0  0  0  0
    2.2574  -11.7960   21.5133 N   0  0  0  0  0  0  0  0  0  0  0  0
    2.1105  -10.5452   20.9287 C   0  0  0  0  0  0  0  0  0  0  0  0
    1.1360  -10.1055   20.5505 O   0  0  0  0  0  0  0  0  0  0  0  0
    3.6640   -9.3035   20.4284 C   0  0  0  0  0  0  0  0  0  0  0  0
    5.2640   -9.1438   21.5343 C   0  0  0  0  0  0  0  0  0  0  0  0
    5.7754   -9.7612   22.7047 C   0  0  0  0  0  0  0  0  0  0  0  0
    6.9998   -9.3189   23.1328 N   0  0  0  0  0  0  0  0  0  0  0  0
    7.1618   -8.2063   22.4902 C   0  0  0  0  0  0  0  0  0  0  0  0
    6.0875   -7.9979   21.6945 N   0  0  0  0  0  0  0  0  0  0  0  0
    3.6401  -13.2134   22.4646 H   0  0  0  0  0  0  0  0  0  0  0  0
    3.1794  -14.7176   21.9098 H   0  0  0  0  0  0  0  0  0  0  0  0
    3.0415  -13.4167   20.8053 H   0  0  0  0  0  0  0  0  0  0  0  0
    0.3922  -12.6001   22.3614 H   0  0  0  0  0  0  0  0  0  0  0  0
    0.4977  -13.8295   19.5298 H   0  0  0  0  0  0  0  0  0  0  0  0
   -1.0032  -13.3716   20.7943 H   0  0  0  0  0  0  0  0  0  0  0  0
   -0.1287  -15.4344   18.7754 H   0  0  0  0  0  0  0  0  0  0  0  0
   -0.8783  -17.3856   19.1677 H   0  0  0  0  0  0  0  0  0  0  0  0
   -1.1382  -17.1811   20.8461 H   0  0  0  0  0  0  0  0  0  0  0  0
    0.4137  -17.2051   20.2404 H   0  0  0  0  0  0  0  0  0  0  0  0
   -2.6379  -16.8102   19.2230 H   0  0  0  0  0  0  0  0  0  0  0  0
   -3.7922  -18.1130   18.0524 H   0  0  0  0  0  0  0  0  0  0  0  0
   -6.3951  -18.7226   18.5936 H   0  0  0  0  0  0  0  0  0  0  0  0
   -6.9458  -14.0232   19.0458 H   0  0  0  0  0  0  0  0  0  0  0  0
   -7.1321  -14.4289   17.3178 H   0  0  0  0  0  0  0  0  0  0  0  0
   -5.6605  -13.6043   17.8606 H   0  0  0  0  0  0  0  0  0  0  0  0
    3.1121  -11.8735   21.8024 H   0  0  0  0  0  0  0  0  0  0  0  0
    3.4084   -8.2848   20.6360 H   0  0  0  0  0  0  0  0  0  0  0  0
    3.9894   -9.5310   19.4017 H   0  0  0  0  0  0  0  0  0  0  0  0
    5.2860  -10.4792   23.3388 H   0  0  0  0  0  0  0  0  0  0  0  0
    7.9751   -7.5027   22.6025 H   0  0  0  0  0  0  0  0  0  0  0  0
    5.8861   -7.1040   21.2791 H   0  0  0  0  0  0  0  0  0  0  0  0
  1  2  1  0
  2  3  1  0
  3  4  1  0
  4  5  1  0
  4  6  1  0
  6  7  1  0
  7  8  2  0
  7  9  1  0
  9 10  2  0
 10 11  1  0
 11 12  2  0
 12 13  1  0
 13 14  1  0
  2 15  1  0
 15 16  1  0
 16 17  2  0
 16 18  1  0
 18 19  1  0
 19 20  2  0
 20 21  1  0
 21 22  2  0
 22 23  1  0
 13  9  1  0
 23 19  1  0
  1 24  1  0
  1 25  1  0
  1 26  1  0
  2 27  1  0
  3 28  1  0
  3 29  1  0
  4 30  1  0
  5 31  1  0
  5 32  1  0
  5 33  1  0
  6 34  1  0
 10 35  1  0
 11 36  1  0
 14 37  1  0
 14 38  1  0
 14 39  1  0
 15 40  1  0
 18 41  1  0
 18 42  1  0
 20 43  1  0
 22 44  1  0
 23 45  1  0
M  END
>  <Energy>  (1206) 
470.53050651187937

>  <compound_id>  (1206) 
10045

>  <target_id>  (1206) 
1

>  <reference_id>  (1206) 
96

>  <inspiration_ids>  (1206) 
[96, 114]

>  <energy_score>  (1206) 
458.37725892433946

>  <distance_score>  (1206) 
13.043487213346435

>  <path>  (1206) 
/opt/xchem-fragalysis-2/maxwin/BulkDock/SCRATCH/511013/C10045-P96/C10045-P96.minimised.mol

>  <scratch_subdir>  (1206) 
/opt/xchem-fragalysis-2/maxwin/BulkDock/SCRATCH/511013/C10045-P96

>  <fragmenstein_runtime>  (1206) 
24.721059799194336

>  <fragmenstein_outcome>  (1206) 
too moved

>  <fragmenstein_mode>  (1206) 
expansion

>  <fragmenstein_error>  (1206) 


$$$$
C10045-P114
     RDKit          3D

 45 46  0  0  0  0  0  0  0  0999 V2000
    3.1790  -13.4508   23.9327 C   0  0  0  0  0  0  0  0  0  0  0  0
    3.3082  -14.5252   22.8320 C   0  0  0  0  0  0  0  0  0  0  0  0
    3.7264  -16.3893   23.6252 C   0  0  0  0  0  0  0  0  0  0  0  0
    2.7379  -17.9273   24.7407 C   0  0  0  0  0  0  0  0  0  0  0  0
    3.5026  -19.2049   24.8101 C   0  0  0  0  0  0  0  0  0  0  0  0
    1.0800  -18.9281   24.5936 N   0  0  0  0  0  0  0  0  0  0  0  0
    0.5851  -20.1413   23.4861 C   0  0  0  0  0  0  0  0  0  0  0  0
    1.2893  -20.4228   22.5774 O   0  0  0  0  0  0  0  0  0  0  0  0
   -0.9302  -21.3210   23.5142 C   0  0  0  0  0  0  0  0  0  0  0  0
   -0.9396  -22.6734   23.0081 C   0  0  0  0  0  0  0  0  0  0  0  0
   -2.2456  -23.1690   22.9192 C   0  0  0  0  0  0  0  0  0  0  0  0
   -3.1178  -22.2728   23.3178 N   0  0  0  0  0  0  0  0  0  0  0  0
   -2.3715  -21.3144   23.9327 N   0  0  0  0  0  0  0  0  0  0  0  0
   -3.1135  -20.8660   25.1107 C   0  0  0  0  0  0  0  0  0  0  0  0
    3.8553  -13.1706   21.3318 N   0  0  0  0  0  0  0  0  0  0  0  0
    5.5588  -12.6394   20.6405 C   0  0  0  0  0  0  0  0  0  0  0  0
    6.5332  -13.1821   21.0258 O   0  0  0  0  0  0  0  0  0  0  0  0
    6.0929  -11.2076   19.3752 C   0  0  0  0  0  0  0  0  0  0  0  0
    7.9018  -10.5854   18.6317 C   0  0  0  0  0  0  0  0  0  0  0  0
    8.6607  -10.9478   17.2654 C   0  0  0  0  0  0  0  0  0  0  0  0
    9.8528  -10.4361   16.9169 N   0  0  0  0  0  0  0  0  0  0  0  0
   10.0672   -9.7967   17.9892 C   0  0  0  0  0  0  0  0  0  0  0  0
    8.8533   -9.3877   18.5368 N   0  0  0  0  0  0  0  0  0  0  0  0
    3.7481  -13.8147   24.7862 H   0  0  0  0  0  0  0  0  0  0  0  0
    2.1890  -13.1477   24.2840 H   0  0  0  0  0  0  0  0  0  0  0  0
    3.3938  -12.5355   23.4243 H   0  0  0  0  0  0  0  0  0  0  0  0
    2.2852  -14.5858   23.1125 H   0  0  0  0  0  0  0  0  0  0  0  0
    4.0516  -17.1093   23.0136 H   0  0  0  0  0  0  0  0  0  0  0  0
    4.6055  -16.0920   24.2123 H   0  0  0  0  0  0  0  0  0  0  0  0
    2.8128  -17.6839   25.8258 H   0  0  0  0  0  0  0  0  0  0  0  0
    3.6283  -20.1474   25.3048 H   0  0  0  0  0  0  0  0  0  0  0  0
    3.5767  -19.5415   23.7714 H   0  0  0  0  0  0  0  0  0  0  0  0
    4.2509  -18.9823   25.5130 H   0  0  0  0  0  0  0  0  0  0  0  0
    0.3951  -18.8880   25.3389 H   0  0  0  0  0  0  0  0  0  0  0  0
   -0.1356  -23.1828   22.5088 H   0  0  0  0  0  0  0  0  0  0  0  0
   -2.5906  -24.1000   22.4888 H   0  0  0  0  0  0  0  0  0  0  0  0
   -2.6425  -20.0801   25.6860 H   0  0  0  0  0  0  0  0  0  0  0  0
   -4.0990  -20.5390   24.7711 H   0  0  0  0  0  0  0  0  0  0  0  0
   -3.2546  -21.7345   25.7648 H   0  0  0  0  0  0  0  0  0  0  0  0
    3.1786  -12.5813   20.9817 H   0  0  0  0  0  0  0  0  0  0  0  0
    6.6400  -10.9839   20.2253 H   0  0  0  0  0  0  0  0  0  0  0  0
    5.9434  -11.9513   18.6550 H   0  0  0  0  0  0  0  0  0  0  0  0
    8.4263  -11.7417   16.5921 H   0  0  0  0  0  0  0  0  0  0  0  0
   11.0433   -9.5988   18.4087 H   0  0  0  0  0  0  0  0  0  0  0  0
    8.7167   -8.4963   18.9801 H   0  0  0  0  0  0  0  0  0  0  0  0
  1  2  1  0
  2  3  1  0
  3  4  1  0
  4  5  1  0
  4  6  1  0
  6  7  1  0
  7  8  2  0
  7  9  1  0
  9 10  2  0
 10 11  1  0
 11 12  2  0
 12 13  1  0
 13 14  1  0
  2 15  1  0
 15 16  1  0
 16 17  2  0
 16 18  1  0
 18 19  1  0
 19 20  2  0
 20 21  1  0
 21 22  2  0
 22 23  1  0
 13  9  1  0
 23 19  1  0
  1 24  1  0
  1 25  1  0
  1 26  1  0
  2 27  1  0
  3 28  1  0
  3 29  1  0
  4 30  1  0
  5 31  1  0
  5 32  1  0
  5 33  1  0
  6 34  1  0
 10 35  1  0
 11 36  1  0
 14 37  1  0
 14 38  1  0
 14 39  1  0
 15 40  1  0
 18 41  1  0
 18 42  1  0
 20 43  1  0
 22 44  1  0
 23 45  1  0
M  END
>  <Energy>  (1207) 
973.23807267422512

>  <compound_id>  (1207) 
10045

>  <target_id>  (1207) 
1

>  <reference_id>  (1207) 
114

>  <inspiration_ids>  (1207) 
[96, 114]

>  <energy_score>  (1207) 
961.0848250867069

>  <distance_score>  (1207) 
10.612939087938258

>  <path>  (1207) 
/opt/xchem-fragalysis-2/maxwin/BulkDock/SCRATCH/511013/C10045-P114/C10045-P114.minimised.mol

>  <scratch_subdir>  (1207) 
/opt/xchem-fragalysis-2/maxwin/BulkDock/SCRATCH/511013/C10045-P114

>  <fragmenstein_runtime>  (1207) 
25.735198974609375

>  <fragmenstein_outcome>  (1207) 
too moved

>  <fragmenstein_mode>  (1207) 
expansion

>  <fragmenstein_error>  (1207) 


$$$$
C10046-P96
     RDKit          3D

 45 46  0  0  0  0  0  0  0  0999 V2000
    0.6604   -6.0696   20.7117 C   0  0  0  0  0  0  0  0  0  0  0  0
    1.5846   -7.4185   20.1968 C   0  0  0  0  0  0  0  0  0  0  0  0
    1.7820   -9.6771   20.9244 C   0  0  0  0  0  0  0  0  0  0  0  0
    0.7444  -11.4587   21.6389 N   0  0  0  0  0  0  0  0  0  0  0  0
    0.2988  -13.4018   20.7243 C   0  0  0  0  0  0  0  0  0  0  0  0
    0.9448  -13.5001   19.5460 O   0  0  0  0  0  0  0  0  0  0  0  0
   -0.8210  -14.9925   20.7950 C   0  0  0  0  0  0  0  0  0  0  0  0
   -0.9343  -15.5222   19.2702 C   0  0  0  0  0  0  0  0  0  0  0  0
   -0.8598  -17.0152   20.8880 C   0  0  0  0  0  0  0  0  0  0  0  0
   -1.3469  -18.4526   22.1119 C   0  0  0  0  0  0  0  0  0  0  0  0
   -1.9506  -18.8882   23.3067 C   0  0  0  0  0  0  0  0  0  0  0  0
   -3.0317  -19.5192   23.4676 C   0  0  0  0  0  0  0  0  0  0  0  0
   -3.0467  -19.8336   22.2866 N   0  0  0  0  0  0  0  0  0  0  0  0
   -2.0460  -19.7201   21.6364 N   0  0  0  0  0  0  0  0  0  0  0  0
   -2.8308  -19.9220   20.1824 C   0  0  0  0  0  0  0  0  0  0  0  0
    3.2814   -6.3055   19.3165 N   0  0  0  0  0  0  0  0  0  0  0  0
    4.1770   -6.3512   17.4181 C   0  0  0  0  0  0  0  0  0  0  0  0
    3.5715   -7.0464   16.5119 O   0  0  0  0  0  0  0  0  0  0  0  0
    5.7636   -5.9016   16.7520 C   0  0  0  0  0  0  0  0  0  0  0  0
    7.0986   -7.2551   16.2594 C   0  0  0  0  0  0  0  0  0  0  0  0
    8.6836   -7.0839   16.8793 N   0  0  0  0  0  0  0  0  0  0  0  0
    8.5657   -6.2288   17.8099 C   0  0  0  0  0  0  0  0  0  0  0  0
    7.6452   -6.0055   16.8839 N   0  0  0  0  0  0  0  0  0  0  0  0
    1.1638   -5.4713   21.4747 H   0  0  0  0  0  0  0  0  0  0  0  0
    0.5120   -5.3690   19.8843 H   0  0  0  0  0  0  0  0  0  0  0  0
   -0.3541   -6.3328   21.0282 H   0  0  0  0  0  0  0  0  0  0  0  0
    0.8617   -7.6236   19.3274 H   0  0  0  0  0  0  0  0  0  0  0  0
    1.6996   -9.7617   21.9825 H   0  0  0  0  0  0  0  0  0  0  0  0
    2.6254  -10.1639   20.4182 H   0  0  0  0  0  0  0  0  0  0  0  0
    0.3242  -11.4542   22.5544 H   0  0  0  0  0  0  0  0  0  0  0  0
   -1.5493  -14.0951   20.8500 H   0  0  0  0  0  0  0  0  0  0  0  0
   -0.8355  -16.5526   18.9100 H   0  0  0  0  0  0  0  0  0  0  0  0
   -0.0363  -15.1745   18.8241 H   0  0  0  0  0  0  0  0  0  0  0  0
   -1.9135  -15.2451   18.8404 H   0  0  0  0  0  0  0  0  0  0  0  0
    0.0556  -17.3390   20.4110 H   0  0  0  0  0  0  0  0  0  0  0  0
   -1.7217  -17.2062   20.2144 H   0  0  0  0  0  0  0  0  0  0  0  0
   -2.1651  -18.2585   24.2740 H   0  0  0  0  0  0  0  0  0  0  0  0
   -3.8893  -19.6578   24.1504 H   0  0  0  0  0  0  0  0  0  0  0  0
   -3.9207  -20.0459   20.2703 H   0  0  0  0  0  0  0  0  0  0  0  0
   -2.6642  -19.0956   19.4613 H   0  0  0  0  0  0  0  0  0  0  0  0
   -2.3227  -20.8354   20.0559 H   0  0  0  0  0  0  0  0  0  0  0  0
    3.8976   -5.7992   19.9528 H   0  0  0  0  0  0  0  0  0  0  0  0
    6.9533   -8.2712   15.8088 H   0  0  0  0  0  0  0  0  0  0  0  0
    9.3209   -5.8229   18.4635 H   0  0  0  0  0  0  0  0  0  0  0  0
    7.7231   -5.0571   16.6088 H   0  0  0  0  0  0  0  0  0  0  0  0
  1  2  1  0
  2  3  1  0
  3  4  1  0
  4  5  1  0
  5  6  2  0
  5  7  1  0
  7  8  1  0
  7  9  1  0
  9 10  1  0
 10 11  2  0
 11 12  1  0
 12 13  2  0
 13 14  1  0
 14 15  1  0
  2 16  1  0
 16 17  1  0
 17 18  2  0
 17 19  1  0
 19 20  2  0
 20 21  1  0
 21 22  2  0
 22 23  1  0
 14 10  1  0
 23 19  1  0
  1 24  1  0
  1 25  1  0
  1 26  1  0
  2 27  1  0
  3 28  1  0
  3 29  1  0
  4 30  1  0
  7 31  1  0
  8 32  1  0
  8 33  1  0
  8 34  1  0
  9 35  1  0
  9 36  1  0
 11 37  1  0
 12 38  1  0
 15 39  1  0
 15 40  1  0
 15 41  1  0
 16 42  1  0
 20 43  1  0
 22 44  1  0
 23 45  1  0
M  END
>  <Energy>  (1208) 
2106.3136544463382

>  <compound_id>  (1208) 
10046

>  <target_id>  (1208) 
1

>  <reference_id>  (1208) 
96

>  <inspiration_ids>  (1208) 
[96, 114]

>  <energy_score>  (1208) 
2091.6174157334126

>  <distance_score>  (1208) 
10.096136257886222

>  <path>  (1208) 
/opt/xchem-fragalysis-2/maxwin/BulkDock/SCRATCH/511013/C10046-P96/C10046-P96.minimised.mol

>  <scratch_subdir>  (1208) 
/opt/xchem-fragalysis-2/maxwin/BulkDock/SCRATCH/511013/C10046-P96

>  <fragmenstein_runtime>  (1208) 
20.696226119995117

>  <fragmenstein_outcome>  (1208) 
too moved

>  <fragmenstein_mode>  (1208) 
expansion

>  <fragmenstein_error>  (1208) 


$$$$
C10046-P114
     RDKit          3D

 45 46  0  0  0  0  0  0  0  0999 V2000
   -2.7554  -11.0769   19.7393 C   0  0  0  0  0  0  0  0  0  0  0  0
   -3.4747   -9.7350   19.7749 C   0  0  0  0  0  0  0  0  0  0  0  0
   -4.8969   -9.8254   19.1310 C   0  0  0  0  0  0  0  0  0  0  0  0
   -5.6994  -11.0309   19.4512 N   0  0  0  0  0  0  0  0  0  0  0  0
   -6.5447  -11.3402   20.5997 C   0  0  0  0  0  0  0  0  0  0  0  0
   -6.8662  -10.6657   21.5372 O   0  0  0  0  0  0  0  0  0  0  0  0
   -7.1593  -12.7939   20.4511 C   0  0  0  0  0  0  0  0  0  0  0  0
   -8.3265  -12.7080   19.4628 C   0  0  0  0  0  0  0  0  0  0  0  0
   -7.6123  -13.4404   21.8103 C   0  0  0  0  0  0  0  0  0  0  0  0
   -8.0725  -14.8801   21.7204 C   0  0  0  0  0  0  0  0  0  0  0  0
   -7.3799  -16.0623   21.5214 C   0  0  0  0  0  0  0  0  0  0  0  0
   -8.3625  -17.0698   21.4716 C   0  0  0  0  0  0  0  0  0  0  0  0
   -9.5920  -16.5745   21.6139 N   0  0  0  0  0  0  0  0  0  0  0  0
   -9.3838  -15.2742   21.8877 N   0  0  0  0  0  0  0  0  0  0  0  0
  -10.5116  -14.4423   22.2377 C   0  0  0  0  0  0  0  0  0  0  0  0
   -2.5249   -8.7438   19.2114 N   0  0  0  0  0  0  0  0  0  0  0  0
   -2.0961   -8.5100   17.8568 C   0  0  0  0  0  0  0  0  0  0  0  0
   -2.4579   -9.0035   16.8278 O   0  0  0  0  0  0  0  0  0  0  0  0
   -0.9527   -7.5690   17.7761 C   0  0  0  0  0  0  0  0  0  0  0  0
   -0.5785   -6.7169   16.7414 C   0  0  0  0  0  0  0  0  0  0  0  0
    0.6370   -6.1105   16.9655 N   0  0  0  0  0  0  0  0  0  0  0  0
    1.0438   -6.5979   18.1109 C   0  0  0  0  0  0  0  0  0  0  0  0
    0.1459   -7.4992   18.6207 N   0  0  0  0  0  0  0  0  0  0  0  0
   -2.4655  -11.3548   18.7208 H   0  0  0  0  0  0  0  0  0  0  0  0
   -1.8505  -11.0398   20.3520 H   0  0  0  0  0  0  0  0  0  0  0  0
   -3.3757  -11.8675   20.1464 H   0  0  0  0  0  0  0  0  0  0  0  0
   -3.6073   -9.4542   20.8270 H   0  0  0  0  0  0  0  0  0  0  0  0
   -5.4815   -8.9512   19.4375 H   0  0  0  0  0  0  0  0  0  0  0  0
   -4.8134   -9.8061   18.0396 H   0  0  0  0  0  0  0  0  0  0  0  0
   -5.5776  -11.8669   18.8954 H   0  0  0  0  0  0  0  0  0  0  0  0
   -6.3948  -13.4398   20.0114 H   0  0  0  0  0  0  0  0  0  0  0  0
   -8.7307  -13.6988   19.2342 H   0  0  0  0  0  0  0  0  0  0  0  0
   -9.1363  -12.0908   19.8671 H   0  0  0  0  0  0  0  0  0  0  0  0
   -8.0130  -12.2557   18.5159 H   0  0  0  0  0  0  0  0  0  0  0  0
   -8.3958  -12.8134   22.2521 H   0  0  0  0  0  0  0  0  0  0  0  0
   -6.7793  -13.3953   22.5216 H   0  0  0  0  0  0  0  0  0  0  0  0
   -6.3165  -16.1895   21.3926 H   0  0  0  0  0  0  0  0  0  0  0  0
   -8.2326  -18.1345   21.3236 H   0  0  0  0  0  0  0  0  0  0  0  0
  -10.3036  -13.9650   23.1983 H   0  0  0  0  0  0  0  0  0  0  0  0
  -11.4099  -15.0591   22.3235 H   0  0  0  0  0  0  0  0  0  0  0  0
  -10.6489  -13.6960   21.4519 H   0  0  0  0  0  0  0  0  0  0  0  0
   -1.9418   -8.2071   19.8386 H   0  0  0  0  0  0  0  0  0  0  0  0
   -1.1343   -6.5265   15.8311 H   0  0  0  0  0  0  0  0  0  0  0  0
    1.9728   -6.3544   18.6069 H   0  0  0  0  0  0  0  0  0  0  0  0
    0.3101   -8.1208   19.4033 H   0  0  0  0  0  0  0  0  0  0  0  0
  1  2  1  0
  2  3  1  0
  3  4  1  0
  4  5  1  0
  5  6  2  0
  5  7  1  0
  7  8  1  0
  7  9  1  0
  9 10  1  0
 10 11  2  0
 11 12  1  0
 12 13  2  0
 13 14  1  0
 14 15  1  0
  2 16  1  0
 16 17  1  0
 17 18  2  0
 17 19  1  0
 19 20  2  0
 20 21  1  0
 21 22  2  0
 22 23  1  0
 14 10  1  0
 23 19  1  0
  1 24  1  0
  1 25  1  0
  1 26  1  0
  2 27  1  0
  3 28  1  0
  3 29  1  0
  4 30  1  0
  7 31  1  0
  8 32  1  0
  8 33  1  0
  8 34  1  0
  9 35  1  0
  9 36  1  0
 11 37  1  0
 12 38  1  0
 15 39  1  0
 15 40  1  0
 15 41  1  0
 16 42  1  0
 20 43  1  0
 22 44  1  0
 23 45  1  0
M  END
>  <Energy>  (1209) 
-8.6769014443425654

>  <compound_id>  (1209) 
10046

>  <target_id>  (1209) 
1

>  <reference_id>  (1209) 
114

>  <inspiration_ids>  (1209) 
[96, 114]

>  <energy_score>  (1209) 
-23.373140157278726

>  <distance_score>  (1209) 
12.734770409971485

>  <path>  (1209) 
/opt/xchem-fragalysis-2/maxwin/BulkDock/SCRATCH/511013/C10046-P114/C10046-P114.minimised.mol

>  <scratch_subdir>  (1209) 
/opt/xchem-fragalysis-2/maxwin/BulkDock/SCRATCH/511013/C10046-P114

>  <fragmenstein_runtime>  (1209) 
32.98599553108215

>  <fragmenstein_outcome>  (1209) 
too moved

>  <fragmenstein_mode>  (1209) 
expansion

>  <fragmenstein_error>  (1209) 


$$$$
C10047-P96
     RDKit          3D

 33 34  0  0  0  0  0  0  0  0999 V2000
    0.4300  -11.5615   24.2648 C   0  0  0  0  0  0  0  0  0  0  0  0
   -0.6288  -12.6677   23.0665 C   0  0  0  0  0  0  0  0  0  0  0  0
    1.0478  -11.5836   22.2539 C   0  0  0  0  0  0  0  0  0  0  0  0
    2.1772  -11.0312   20.8734 N   0  0  0  0  0  0  0  0  0  0  0  0
    2.5280  -11.7199   19.4297 C   0  0  0  0  0  0  0  0  0  0  0  0
    2.0264  -12.7030   18.9579 O   0  0  0  0  0  0  0  0  0  0  0  0
    3.8222  -11.1756   18.4206 C   0  0  0  0  0  0  0  0  0  0  0  0
    4.9559  -10.3325   18.3918 C   0  0  0  0  0  0  0  0  0  0  0  0
    5.7099  -10.3732   17.2401 N   0  0  0  0  0  0  0  0  0  0  0  0
    5.1321  -11.3035   16.5328 C   0  0  0  0  0  0  0  0  0  0  0  0
    4.0592  -11.8246   17.1922 N   0  0  0  0  0  0  0  0  0  0  0  0
   -2.1133  -12.8235   24.5500 N   0  0  0  0  0  0  0  0  0  0  0  0
   -2.3539  -14.1235   25.9906 C   0  0  0  0  0  0  0  0  0  0  0  0
   -1.6429  -15.1195   26.0969 O   0  0  0  0  0  0  0  0  0  0  0  0
   -3.3644  -14.0388   27.3341 C   0  0  0  0  0  0  0  0  0  0  0  0
   -3.0968  -13.0377   28.4267 N   0  0  0  0  0  0  0  0  0  0  0  0
   -3.7423  -13.2181   29.6071 N   0  0  0  0  0  0  0  0  0  0  0  0
   -4.3465  -14.3946   29.4996 C   0  0  0  0  0  0  0  0  0  0  0  0
   -4.1327  -14.9952   28.2324 C   0  0  0  0  0  0  0  0  0  0  0  0
   -4.5369  -16.8874   28.2017 Br  0  0  0  0  0  0  0  0  0  0  0  0
    0.6594  -12.2213   25.0837 H   0  0  0  0  0  0  0  0  0  0  0  0
    1.4906  -11.5469   24.1851 H   0  0  0  0  0  0  0  0  0  0  0  0
    0.0897  -10.5484   24.4971 H   0  0  0  0  0  0  0  0  0  0  0  0
   -1.1744  -12.6515   22.1386 H   0  0  0  0  0  0  0  0  0  0  0  0
    1.7561  -12.3879   21.9399 H   0  0  0  0  0  0  0  0  0  0  0  0
    1.0895  -10.5472   22.5329 H   0  0  0  0  0  0  0  0  0  0  0  0
    2.6686  -10.2191   20.9560 H   0  0  0  0  0  0  0  0  0  0  0  0
    5.3316   -9.6674   19.1489 H   0  0  0  0  0  0  0  0  0  0  0  0
    5.4484  -11.6696   15.5656 H   0  0  0  0  0  0  0  0  0  0  0  0
    3.5726  -12.6828   16.9738 H   0  0  0  0  0  0  0  0  0  0  0  0
   -2.8436  -12.1408   24.5956 H   0  0  0  0  0  0  0  0  0  0  0  0
   -2.4861  -12.2309   28.3249 H   0  0  0  0  0  0  0  0  0  0  0  0
   -4.8575  -14.8014   30.3631 H   0  0  0  0  0  0  0  0  0  0  0  0
  1  2  1  0
  2  3  1  0
  3  4  1  0
  4  5  1  0
  5  6  2  0
  5  7  1  0
  7  8  2  0
  8  9  1  0
  9 10  2  0
 10 11  1  0
  2 12  1  0
 12 13  1  0
 13 14  2  0
 13 15  1  0
 15 16  1  0
 16 17  1  0
 17 18  2  0
 18 19  1  0
 19 20  1  0
 11  7  1  0
 19 15  2  0
  1 21  1  0
  1 22  1  0
  1 23  1  0
  2 24  1  0
  3 25  1  0
  3 26  1  0
  4 27  1  0
  8 28  1  0
 10 29  1  0
 11 30  1  0
 12 31  1  0
 16 32  1  0
 18 33  1  0
M  END
>  <Energy>  (1210) 
650.47992695537948

>  <compound_id>  (1210) 
10047

>  <target_id>  (1210) 
1

>  <reference_id>  (1210) 
96

>  <inspiration_ids>  (1210) 
[96, 114]

>  <energy_score>  (1210) 
671.6771766060729

>  <distance_score>  (1210) 
12.45970646407015

>  <path>  (1210) 
/opt/xchem-fragalysis-2/maxwin/BulkDock/SCRATCH/511013/C10047-P96/C10047-P96.minimised.mol

>  <scratch_subdir>  (1210) 
/opt/xchem-fragalysis-2/maxwin/BulkDock/SCRATCH/511013/C10047-P96

>  <fragmenstein_runtime>  (1210) 
10.805887460708618

>  <fragmenstein_outcome>  (1210) 
too moved

>  <fragmenstein_mode>  (1210) 
expansion

>  <fragmenstein_error>  (1210) 


$$$$
C10047-P114
     RDKit          3D

 33 34  0  0  0  0  0  0  0  0999 V2000
   -0.9850  -14.9223   22.4152 C   0  0  0  0  0  0  0  0  0  0  0  0
   -1.8576  -15.2384   24.0306 C   0  0  0  0  0  0  0  0  0  0  0  0
   -0.1541  -14.1467   24.3438 C   0  0  0  0  0  0  0  0  0  0  0  0
    1.7175  -13.4174   23.8715 N   0  0  0  0  0  0  0  0  0  0  0  0
    2.1893  -12.1776   22.9527 C   0  0  0  0  0  0  0  0  0  0  0  0
    1.4202  -11.4477   22.4952 O   0  0  0  0  0  0  0  0  0  0  0  0
    3.7286  -11.9860   22.4792 C   0  0  0  0  0  0  0  0  0  0  0  0
    4.0587  -12.7399   21.2137 C   0  0  0  0  0  0  0  0  0  0  0  0
    5.2021  -12.5369   20.4636 N   0  0  0  0  0  0  0  0  0  0  0  0
    5.7584  -11.5584   21.0812 C   0  0  0  0  0  0  0  0  0  0  0  0
    4.8197  -11.0560   22.2307 N   0  0  0  0  0  0  0  0  0  0  0  0
   -3.8528  -15.2457   23.9103 N   0  0  0  0  0  0  0  0  0  0  0  0
   -5.1860  -16.1272   24.9768 C   0  0  0  0  0  0  0  0  0  0  0  0
   -4.9380  -16.9458   25.9069 O   0  0  0  0  0  0  0  0  0  0  0  0
   -6.7337  -16.0418   24.7406 C   0  0  0  0  0  0  0  0  0  0  0  0
   -7.3776  -17.0191   23.9931 N   0  0  0  0  0  0  0  0  0  0  0  0
   -8.7237  -16.8725   23.8945 N   0  0  0  0  0  0  0  0  0  0  0  0
   -8.9748  -15.9153   24.7813 C   0  0  0  0  0  0  0  0  0  0  0  0
   -7.8042  -15.4120   25.3668 C   0  0  0  0  0  0  0  0  0  0  0  0
   -7.9373  -14.1032   26.7057 Br  0  0  0  0  0  0  0  0  0  0  0  0
   -1.7271  -14.7193   21.5680 H   0  0  0  0  0  0  0  0  0  0  0  0
   -0.3736  -15.7785   21.9691 H   0  0  0  0  0  0  0  0  0  0  0  0
   -0.2223  -14.1776   22.4588 H   0  0  0  0  0  0  0  0  0  0  0  0
   -1.9037  -16.0262   24.7055 H   0  0  0  0  0  0  0  0  0  0  0  0
   -0.8130  -13.6656   25.1764 H   0  0  0  0  0  0  0  0  0  0  0  0
    0.5217  -14.7546   24.7193 H   0  0  0  0  0  0  0  0  0  0  0  0
    2.5166  -13.9483   24.0800 H   0  0  0  0  0  0  0  0  0  0  0  0
    3.3637  -13.4766   20.9057 H   0  0  0  0  0  0  0  0  0  0  0  0
    6.7851  -11.2306   21.0021 H   0  0  0  0  0  0  0  0  0  0  0  0
    5.1787  -10.3881   22.8997 H   0  0  0  0  0  0  0  0  0  0  0  0
   -4.3061  -14.6858   23.2106 H   0  0  0  0  0  0  0  0  0  0  0  0
   -6.9006  -17.7036   23.4123 H   0  0  0  0  0  0  0  0  0  0  0  0
   -9.9967  -15.6158   24.9602 H   0  0  0  0  0  0  0  0  0  0  0  0
  1  2  1  0
  2  3  1  0
  3  4  1  0
  4  5  1  0
  5  6  2  0
  5  7  1  0
  7  8  2  0
  8  9  1  0
  9 10  2  0
 10 11  1  0
  2 12  1  0
 12 13  1  0
 13 14  2  0
 13 15  1  0
 15 16  1  0
 16 17  1  0
 17 18  2  0
 18 19  1  0
 19 20  1  0
 11  7  1  0
 19 15  2  0
  1 21  1  0
  1 22  1  0
  1 23  1  0
  2 24  1  0
  3 25  1  0
  3 26  1  0
  4 27  1  0
  8 28  1  0
 10 29  1  0
 11 30  1  0
 12 31  1  0
 16 32  1  0
 18 33  1  0
M  END
>  <Energy>  (1211) 
583.68175559592601

>  <compound_id>  (1211) 
10047

>  <target_id>  (1211) 
1

>  <reference_id>  (1211) 
114

>  <inspiration_ids>  (1211) 
[96, 114]

>  <energy_score>  (1211) 
604.8790052466048

>  <distance_score>  (1211) 
12.2059295698436

>  <path>  (1211) 
/opt/xchem-fragalysis-2/maxwin/BulkDock/SCRATCH/511013/C10047-P114/C10047-P114.minimised.mol

>  <scratch_subdir>  (1211) 
/opt/xchem-fragalysis-2/maxwin/BulkDock/SCRATCH/511013/C10047-P114

>  <fragmenstein_runtime>  (1211) 
17.90821099281311

>  <fragmenstein_outcome>  (1211) 
too moved

>  <fragmenstein_mode>  (1211) 
expansion

>  <fragmenstein_error>  (1211) 


$$$$
C10048-P96
     RDKit          3D

 39 40  0  0  0  0  0  0  0  0999 V2000
   -9.9416  -14.1944   33.5539 C   0  0  0  0  0  0  0  0  0  0  0  0
   -9.2724  -15.1224   32.5419 C   0  0  0  0  0  0  0  0  0  0  0  0
   -7.6758  -14.9102   32.5590 C   0  0  0  0  0  0  0  0  0  0  0  0
   -6.8998  -14.3464   31.3941 N   0  0  0  0  0  0  0  0  0  0  0  0
   -6.6323  -12.9657   31.0011 C   0  0  0  0  0  0  0  0  0  0  0  0
   -7.0306  -11.9359   31.4614 O   0  0  0  0  0  0  0  0  0  0  0  0
   -5.6016  -12.7751   29.8922 C   0  0  0  0  0  0  0  0  0  0  0  0
   -5.2681  -11.5657   29.2478 C   0  0  0  0  0  0  0  0  0  0  0  0
   -4.2123  -11.6707   28.3642 N   0  0  0  0  0  0  0  0  0  0  0  0
   -3.8456  -12.9227   28.4606 C   0  0  0  0  0  0  0  0  0  0  0  0
   -4.6395  -13.6204   29.3496 N   0  0  0  0  0  0  0  0  0  0  0  0
   -9.7325  -16.5789   32.7118 N   0  0  0  0  0  0  0  0  0  0  0  0
  -10.9170  -17.1661   33.4612 C   0  0  0  0  0  0  0  0  0  0  0  0
  -11.7318  -16.6360   34.1672 O   0  0  0  0  0  0  0  0  0  0  0  0
  -11.1400  -18.6944   33.1559 C   0  0  0  0  0  0  0  0  0  0  0  0
  -11.9793  -19.6558   33.7245 C   0  0  0  0  0  0  0  0  0  0  0  0
  -11.8506  -20.8446   32.9319 C   0  0  0  0  0  0  0  0  0  0  0  0
  -12.5372  -22.1735   33.0728 C   0  0  0  0  0  0  0  0  0  0  0  0
  -13.0272  -22.7464   31.7566 C   0  0  0  0  0  0  0  0  0  0  0  0
  -11.6970  -23.0906   33.6303 F   0  0  0  0  0  0  0  0  0  0  0  0
  -13.6160  -22.0862   33.9068 F   0  0  0  0  0  0  0  0  0  0  0  0
  -10.9841  -20.6503   31.9310 N   0  0  0  0  0  0  0  0  0  0  0  0
  -10.5696  -19.4036   32.1097 N   0  0  0  0  0  0  0  0  0  0  0  0
   -9.6292  -13.1570   33.3931 H   0  0  0  0  0  0  0  0  0  0  0  0
   -9.6876  -14.4707   34.5818 H   0  0  0  0  0  0  0  0  0  0  0  0
  -11.0311  -14.2255   33.4536 H   0  0  0  0  0  0  0  0  0  0  0  0
   -9.6281  -14.8291   31.5482 H   0  0  0  0  0  0  0  0  0  0  0  0
   -7.1872  -15.8533   32.8153 H   0  0  0  0  0  0  0  0  0  0  0  0
   -7.4438  -14.2210   33.3805 H   0  0  0  0  0  0  0  0  0  0  0  0
   -6.4607  -14.9697   30.7309 H   0  0  0  0  0  0  0  0  0  0  0  0
   -5.7556  -10.6113   29.4132 H   0  0  0  0  0  0  0  0  0  0  0  0
   -3.0234  -13.3917   27.9356 H   0  0  0  0  0  0  0  0  0  0  0  0
   -4.4859  -14.5816   29.6158 H   0  0  0  0  0  0  0  0  0  0  0  0
   -9.2060  -17.3263   32.2802 H   0  0  0  0  0  0  0  0  0  0  0  0
  -12.6189  -19.5128   34.5855 H   0  0  0  0  0  0  0  0  0  0  0  0
  -13.6581  -22.0240   31.2363 H   0  0  0  0  0  0  0  0  0  0  0  0
  -13.6201  -23.6495   31.9343 H   0  0  0  0  0  0  0  0  0  0  0  0
  -12.1948  -23.0217   31.1009 H   0  0  0  0  0  0  0  0  0  0  0  0
   -9.9210  -19.0458   31.4251 H   0  0  0  0  0  0  0  0  0  0  0  0
  1  2  1  0
  2  3  1  0
  3  4  1  0
  4  5  1  0
  5  6  2  0
  5  7  1  0
  7  8  2  0
  8  9  1  0
  9 10  2  0
 10 11  1  0
  2 12  1  0
 12 13  1  0
 13 14  2  0
 13 15  1  0
 15 16  2  0
 16 17  1  0
 17 18  1  0
 18 19  1  0
 18 20  1  0
 18 21  1  0
 17 22  2  0
 22 23  1  0
 11  7  1  0
 23 15  1  0
  1 24  1  0
  1 25  1  0
  1 26  1  0
  2 27  1  0
  3 28  1  0
  3 29  1  0
  4 30  1  0
  8 31  1  0
 10 32  1  0
 11 33  1  0
 12 34  1  0
 16 35  1  0
 19 36  1  0
 19 37  1  0
 19 38  1  0
 23 39  1  0
M  END
>  <Energy>  (1212) 
46.016763866024682

>  <compound_id>  (1212) 
10048

>  <target_id>  (1212) 
1

>  <reference_id>  (1212) 
96

>  <inspiration_ids>  (1212) 
[96, 114]

>  <energy_score>  (1212) 
14.444292591954309

>  <distance_score>  (1212) 
15.385294166674969

>  <path>  (1212) 
/opt/xchem-fragalysis-2/maxwin/BulkDock/SCRATCH/511013/C10048-P96/C10048-P96.minimised.mol

>  <scratch_subdir>  (1212) 
/opt/xchem-fragalysis-2/maxwin/BulkDock/SCRATCH/511013/C10048-P96

>  <fragmenstein_runtime>  (1212) 
22.62309741973877

>  <fragmenstein_outcome>  (1212) 
too moved

>  <fragmenstein_mode>  (1212) 
expansion

>  <fragmenstein_error>  (1212) 


$$$$
C10048-P114
     RDKit          3D

 39 40  0  0  0  0  0  0  0  0999 V2000
   -6.9162  -17.1558   27.0154 C   0  0  0  0  0  0  0  0  0  0  0  0
   -8.1507  -16.7737   27.8574 C   0  0  0  0  0  0  0  0  0  0  0  0
   -8.7354  -15.4619   27.1974 C   0  0  0  0  0  0  0  0  0  0  0  0
   -7.7407  -14.5222   26.5549 N   0  0  0  0  0  0  0  0  0  0  0  0
   -6.7101  -13.6867   27.1365 C   0  0  0  0  0  0  0  0  0  0  0  0
   -6.4378  -13.4701   28.2811 O   0  0  0  0  0  0  0  0  0  0  0  0
   -5.8696  -12.9307   26.1440 C   0  0  0  0  0  0  0  0  0  0  0  0
   -5.7409  -12.8406   24.7599 C   0  0  0  0  0  0  0  0  0  0  0  0
   -4.8100  -11.8904   24.3612 N   0  0  0  0  0  0  0  0  0  0  0  0
   -4.3297  -11.4031   25.4771 C   0  0  0  0  0  0  0  0  0  0  0  0
   -4.8848  -12.0249   26.5586 N   0  0  0  0  0  0  0  0  0  0  0  0
   -9.0954  -17.9624   28.2040 N   0  0  0  0  0  0  0  0  0  0  0  0
   -8.8175  -19.6081   28.2498 C   0  0  0  0  0  0  0  0  0  0  0  0
   -7.7509  -20.2088   27.9073 O   0  0  0  0  0  0  0  0  0  0  0  0
  -10.1803  -20.9384   28.7931 C   0  0  0  0  0  0  0  0  0  0  0  0
  -10.3213  -22.2971   28.3893 C   0  0  0  0  0  0  0  0  0  0  0  0
  -11.3573  -22.9456   29.0913 C   0  0  0  0  0  0  0  0  0  0  0  0
  -11.5421  -24.4575   29.0211 C   0  0  0  0  0  0  0  0  0  0  0  0
  -11.7037  -24.9973   27.6040 C   0  0  0  0  0  0  0  0  0  0  0  0
  -10.4066  -25.0579   29.5155 F   0  0  0  0  0  0  0  0  0  0  0  0
  -12.5454  -24.9588   29.7922 F   0  0  0  0  0  0  0  0  0  0  0  0
  -11.8694  -22.0791   29.9760 N   0  0  0  0  0  0  0  0  0  0  0  0
  -11.0278  -21.0175   29.9108 N   0  0  0  0  0  0  0  0  0  0  0  0
   -6.0541  -16.5515   27.3217 H   0  0  0  0  0  0  0  0  0  0  0  0
   -6.6053  -18.1890   27.0758 H   0  0  0  0  0  0  0  0  0  0  0  0
   -7.0764  -16.9541   25.9505 H   0  0  0  0  0  0  0  0  0  0  0  0
   -7.7646  -16.4880   28.8438 H   0  0  0  0  0  0  0  0  0  0  0  0
   -9.4436  -15.7381   26.4089 H   0  0  0  0  0  0  0  0  0  0  0  0
   -9.2761  -14.8892   27.9580 H   0  0  0  0  0  0  0  0  0  0  0  0
   -7.7334  -14.4038   25.5499 H   0  0  0  0  0  0  0  0  0  0  0  0
   -6.2925  -13.3950   24.0115 H   0  0  0  0  0  0  0  0  0  0  0  0
   -3.5977  -10.6156   25.5765 H   0  0  0  0  0  0  0  0  0  0  0  0
   -4.6866  -11.8335   27.5320 H   0  0  0  0  0  0  0  0  0  0  0  0
  -10.0642  -17.7868   28.4564 H   0  0  0  0  0  0  0  0  0  0  0  0
   -9.6065  -22.9303   27.8856 H   0  0  0  0  0  0  0  0  0  0  0  0
  -10.7860  -24.8653   27.0231 H   0  0  0  0  0  0  0  0  0  0  0  0
  -12.5174  -24.5188   27.0549 H   0  0  0  0  0  0  0  0  0  0  0  0
  -11.9126  -26.0719   27.6387 H   0  0  0  0  0  0  0  0  0  0  0  0
  -10.9792  -20.4472   30.7463 H   0  0  0  0  0  0  0  0  0  0  0  0
  1  2  1  0
  2  3  1  0
  3  4  1  0
  4  5  1  0
  5  6  2  0
  5  7  1  0
  7  8  2  0
  8  9  1  0
  9 10  2  0
 10 11  1  0
  2 12  1  0
 12 13  1  0
 13 14  2  0
 13 15  1  0
 15 16  2  0
 16 17  1  0
 17 18  1  0
 18 19  1  0
 18 20  1  0
 18 21  1  0
 17 22  2  0
 22 23  1  0
 11  7  1  0
 23 15  1  0
  1 24  1  0
  1 25  1  0
  1 26  1  0
  2 27  1  0
  3 28  1  0
  3 29  1  0
  4 30  1  0
  8 31  1  0
 10 32  1  0
 11 33  1  0
 12 34  1  0
 16 35  1  0
 19 36  1  0
 19 37  1  0
 19 38  1  0
 23 39  1  0
M  END
>  <Energy>  (1213) 
151.81257382301084

>  <compound_id>  (1213) 
10048

>  <target_id>  (1213) 
1

>  <reference_id>  (1213) 
114

>  <inspiration_ids>  (1213) 
[96, 114]

>  <energy_score>  (1213) 
120.24010254894029

>  <distance_score>  (1213) 
14.274329341585261

>  <path>  (1213) 
/opt/xchem-fragalysis-2/maxwin/BulkDock/SCRATCH/511013/C10048-P114/C10048-P114.minimised.mol

>  <scratch_subdir>  (1213) 
/opt/xchem-fragalysis-2/maxwin/BulkDock/SCRATCH/511013/C10048-P114

>  <fragmenstein_runtime>  (1213) 
21.815436124801636

>  <fragmenstein_outcome>  (1213) 
too moved

>  <fragmenstein_mode>  (1213) 
expansion

>  <fragmenstein_error>  (1213) 


$$$$
C10049-P96
     RDKit          3D

 37 38  0  0  0  0  0  0  0  0999 V2000
   -8.1987  -14.8776   20.4776 C   0  0  0  0  0  0  0  0  0  0  0  0
   -7.2857  -15.4267   19.6625 C   0  0  0  0  0  0  0  0  0  0  0  0
   -6.8129  -16.7377   19.7391 N   0  0  0  0  0  0  0  0  0  0  0  0
   -7.3873  -17.6775   20.5699 N   0  0  0  0  0  0  0  0  0  0  0  0
   -6.9802  -18.8507   20.1040 C   0  0  0  0  0  0  0  0  0  0  0  0
   -6.0189  -18.6918   19.1016 C   0  0  0  0  0  0  0  0  0  0  0  0
   -5.7768  -17.3140   18.9801 C   0  0  0  0  0  0  0  0  0  0  0  0
   -4.6197  -16.7767   18.1860 C   0  0  0  0  0  0  0  0  0  0  0  0
   -4.6460  -17.0748   17.0251 O   0  0  0  0  0  0  0  0  0  0  0  0
   -3.5848  -16.0577   18.9735 N   0  0  0  0  0  0  0  0  0  0  0  0
   -2.1209  -15.5428   18.5620 C   0  0  0  0  0  0  0  0  0  0  0  0
   -1.8256  -17.0621   18.8404 C   0  0  0  0  0  0  0  0  0  0  0  0
   -0.2321  -15.2264   19.0579 C   0  0  0  0  0  0  0  0  0  0  0  0
    1.1878  -13.9237   18.7353 N   0  0  0  0  0  0  0  0  0  0  0  0
    2.0062  -13.5209   17.3212 C   0  0  0  0  0  0  0  0  0  0  0  0
    1.9137  -14.0396   16.2479 O   0  0  0  0  0  0  0  0  0  0  0  0
    3.1576  -12.1008   17.5411 C   0  0  0  0  0  0  0  0  0  0  0  0
    4.4004  -11.9566   18.1614 C   0  0  0  0  0  0  0  0  0  0  0  0
    5.0691  -10.8492   18.4465 N   0  0  0  0  0  0  0  0  0  0  0  0
    4.7017  -10.3443   17.3549 C   0  0  0  0  0  0  0  0  0  0  0  0
    3.6703  -11.1185   16.8331 N   0  0  0  0  0  0  0  0  0  0  0  0
   -8.5422  -13.8586   20.3327 H   0  0  0  0  0  0  0  0  0  0  0  0
   -8.6253  -15.4377   21.3069 H   0  0  0  0  0  0  0  0  0  0  0  0
   -6.9116  -14.8503   18.8391 H   0  0  0  0  0  0  0  0  0  0  0  0
   -7.3770  -19.7632   20.5320 H   0  0  0  0  0  0  0  0  0  0  0  0
   -5.4691  -19.4700   18.5886 H   0  0  0  0  0  0  0  0  0  0  0  0
   -3.8531  -16.0512   19.9451 H   0  0  0  0  0  0  0  0  0  0  0  0
   -2.4463  -14.6655   19.0928 H   0  0  0  0  0  0  0  0  0  0  0  0
   -2.6094  -17.8332   18.8726 H   0  0  0  0  0  0  0  0  0  0  0  0
   -1.2849  -17.1320   19.7803 H   0  0  0  0  0  0  0  0  0  0  0  0
   -1.2710  -17.4787   18.0073 H   0  0  0  0  0  0  0  0  0  0  0  0
   -0.3785  -15.2098   20.1175 H   0  0  0  0  0  0  0  0  0  0  0  0
    0.1153  -16.1494   18.6929 H   0  0  0  0  0  0  0  0  0  0  0  0
    1.4153  -13.2496   19.4559 H   0  0  0  0  0  0  0  0  0  0  0  0
    4.9437  -12.7560   17.7440 H   0  0  0  0  0  0  0  0  0  0  0  0
    5.1322   -9.4968   16.8641 H   0  0  0  0  0  0  0  0  0  0  0  0
    3.1042  -10.7741   16.0623 H   0  0  0  0  0  0  0  0  0  0  0  0
  1  2  2  0
  2  3  1  0
  3  4  1  0
  4  5  2  0
  5  6  1  0
  6  7  2  0
  7  8  1  0
  8  9  2  0
  8 10  1  0
 10 11  1  0
 11 12  1  0
 11 13  1  0
 13 14  1  0
 14 15  1  0
 15 16  2  0
 15 17  1  0
 17 18  2  0
 18 19  1  0
 19 20  2  0
 20 21  1  0
  7  3  1  0
 21 17  1  0
  1 22  1  0
  1 23  1  0
  2 24  1  0
  5 25  1  0
  6 26  1  0
 10 27  1  0
 11 28  1  0
 12 29  1  0
 12 30  1  0
 12 31  1  0
 13 32  1  0
 13 33  1  0
 14 34  1  0
 18 35  1  0
 20 36  1  0
 21 37  1  0
M  END
>  <Energy>  (1214) 
372.67901717059272

>  <compound_id>  (1214) 
10049

>  <target_id>  (1214) 
1

>  <reference_id>  (1214) 
96

>  <inspiration_ids>  (1214) 
[96, 114]

>  <energy_score>  (1214) 
393.3009434347707

>  <distance_score>  (1214) 
12.679762793092902

>  <path>  (1214) 
/opt/xchem-fragalysis-2/maxwin/BulkDock/SCRATCH/511013/C10049-P96/C10049-P96.minimised.mol

>  <scratch_subdir>  (1214) 
/opt/xchem-fragalysis-2/maxwin/BulkDock/SCRATCH/511013/C10049-P96

>  <fragmenstein_runtime>  (1214) 
14.713431358337402

>  <fragmenstein_outcome>  (1214) 
too moved

>  <fragmenstein_mode>  (1214) 
expansion

>  <fragmenstein_error>  (1214) 


$$$$
C10049-P114
     RDKit          3D

 37 38  0  0  0  0  0  0  0  0999 V2000
   -5.3694  -24.3607   22.8334 C   0  0  0  0  0  0  0  0  0  0  0  0
   -4.4334  -23.4176   22.6966 C   0  0  0  0  0  0  0  0  0  0  0  0
   -3.9303  -22.6368   23.7405 N   0  0  0  0  0  0  0  0  0  0  0  0
   -4.2177  -22.8122   25.0741 N   0  0  0  0  0  0  0  0  0  0  0  0
   -3.0080  -22.7536   25.6183 C   0  0  0  0  0  0  0  0  0  0  0  0
   -2.0863  -22.2179   24.7029 C   0  0  0  0  0  0  0  0  0  0  0  0
   -2.8448  -21.7301   23.6454 C   0  0  0  0  0  0  0  0  0  0  0  0
   -2.6373  -20.8323   22.4788 C   0  0  0  0  0  0  0  0  0  0  0  0
   -3.2364  -21.1474   21.4473 O   0  0  0  0  0  0  0  0  0  0  0  0
   -1.5989  -19.4452   22.7350 N   0  0  0  0  0  0  0  0  0  0  0  0
   -0.9382  -18.0291   21.4551 C   0  0  0  0  0  0  0  0  0  0  0  0
   -2.0508  -17.7316   20.1833 C   0  0  0  0  0  0  0  0  0  0  0  0
    0.2984  -16.4054   21.1377 C   0  0  0  0  0  0  0  0  0  0  0  0
    1.8665  -15.2436   20.6426 N   0  0  0  0  0  0  0  0  0  0  0  0
    3.0502  -14.3098   21.6690 C   0  0  0  0  0  0  0  0  0  0  0  0
    3.0772  -14.3623   22.9101 O   0  0  0  0  0  0  0  0  0  0  0  0
    4.1472  -13.1327   20.7672 C   0  0  0  0  0  0  0  0  0  0  0  0
    4.3841  -12.9143   19.3770 C   0  0  0  0  0  0  0  0  0  0  0  0
    5.5625  -12.0939   19.1511 N   0  0  0  0  0  0  0  0  0  0  0  0
    6.0592  -11.9139   20.3215 C   0  0  0  0  0  0  0  0  0  0  0  0
    5.5736  -13.0738   20.7473 N   0  0  0  0  0  0  0  0  0  0  0  0
   -5.6923  -24.9554   21.9886 H   0  0  0  0  0  0  0  0  0  0  0  0
   -5.8598  -24.5006   23.7880 H   0  0  0  0  0  0  0  0  0  0  0  0
   -3.9791  -23.2709   21.7241 H   0  0  0  0  0  0  0  0  0  0  0  0
   -2.8532  -23.1090   26.6280 H   0  0  0  0  0  0  0  0  0  0  0  0
   -1.0211  -22.1391   24.8449 H   0  0  0  0  0  0  0  0  0  0  0  0
   -1.2086  -19.5015   23.5996 H   0  0  0  0  0  0  0  0  0  0  0  0
    0.0697  -18.3962   21.5533 H   0  0  0  0  0  0  0  0  0  0  0  0
   -2.8794  -17.0843   20.4702 H   0  0  0  0  0  0  0  0  0  0  0  0
   -2.5025  -18.6189   19.7216 H   0  0  0  0  0  0  0  0  0  0  0  0
   -1.6324  -17.1715   19.3739 H   0  0  0  0  0  0  0  0  0  0  0  0
   -0.1581  -15.7615   21.8519 H   0  0  0  0  0  0  0  0  0  0  0  0
   -0.0595  -16.3345   20.1330 H   0  0  0  0  0  0  0  0  0  0  0  0
    2.1021  -15.1020   19.6612 H   0  0  0  0  0  0  0  0  0  0  0  0
    3.8178  -13.3156   18.5459 H   0  0  0  0  0  0  0  0  0  0  0  0
    6.9229  -11.3733   20.6650 H   0  0  0  0  0  0  0  0  0  0  0  0
    5.8787  -13.7594   20.0994 H   0  0  0  0  0  0  0  0  0  0  0  0
  1  2  2  0
  2  3  1  0
  3  4  1  0
  4  5  2  0
  5  6  1  0
  6  7  2  0
  7  8  1  0
  8  9  2  0
  8 10  1  0
 10 11  1  0
 11 12  1  0
 11 13  1  0
 13 14  1  0
 14 15  1  0
 15 16  2  0
 15 17  1  0
 17 18  2  0
 18 19  1  0
 19 20  2  0
 20 21  1  0
  7  3  1  0
 21 17  1  0
  1 22  1  0
  1 23  1  0
  2 24  1  0
  5 25  1  0
  6 26  1  0
 10 27  1  0
 11 28  1  0
 12 29  1  0
 12 30  1  0
 12 31  1  0
 13 32  1  0
 13 33  1  0
 14 34  1  0
 18 35  1  0
 20 36  1  0
 21 37  1  0
M  END
>  <Energy>  (1215) 
551.49436853537475

>  <compound_id>  (1215) 
10049

>  <target_id>  (1215) 
1

>  <reference_id>  (1215) 
114

>  <inspiration_ids>  (1215) 
[96, 114]

>  <energy_score>  (1215) 
572.1162947995464

>  <distance_score>  (1215) 
11.853515169327645

>  <path>  (1215) 
/opt/xchem-fragalysis-2/maxwin/BulkDock/SCRATCH/511013/C10049-P114/C10049-P114.minimised.mol

>  <scratch_subdir>  (1215) 
/opt/xchem-fragalysis-2/maxwin/BulkDock/SCRATCH/511013/C10049-P114

>  <fragmenstein_runtime>  (1215) 
20.024350881576538

>  <fragmenstein_outcome>  (1215) 
too moved

>  <fragmenstein_mode>  (1215) 
expansion

>  <fragmenstein_error>  (1215) 


$$$$
C10050-P96
     RDKit          3D

 34 35  0  0  0  0  0  0  0  0999 V2000
    1.0949  -18.8533   15.2178 C   0  0  0  0  0  0  0  0  0  0  0  0
   -0.2910  -18.7612   14.5983 C   0  0  0  0  0  0  0  0  0  0  0  0
   -0.4091  -17.6461   13.4827 C   0  0  0  0  0  0  0  0  0  0  0  0
    0.3089  -16.3593   13.5780 N   0  0  0  0  0  0  0  0  0  0  0  0
    1.7016  -16.0324   13.3700 C   0  0  0  0  0  0  0  0  0  0  0  0
    2.6422  -16.7366   13.1443 O   0  0  0  0  0  0  0  0  0  0  0  0
    1.9985  -14.5856   13.5334 C   0  0  0  0  0  0  0  0  0  0  0  0
    1.2380  -13.4280   13.5415 C   0  0  0  0  0  0  0  0  0  0  0  0
    1.9885  -12.3002   13.7958 N   0  0  0  0  0  0  0  0  0  0  0  0
    3.2243  -12.7258   13.8961 C   0  0  0  0  0  0  0  0  0  0  0  0
    3.2881  -14.0780   13.7063 N   0  0  0  0  0  0  0  0  0  0  0  0
   -1.3283  -18.8547   15.6630 N   0  0  0  0  0  0  0  0  0  0  0  0
   -1.6385  -19.9210   16.5943 C   0  0  0  0  0  0  0  0  0  0  0  0
   -1.1905  -21.0255   16.6895 O   0  0  0  0  0  0  0  0  0  0  0  0
   -2.6784  -19.6247   17.6099 C   0  0  0  0  0  0  0  0  0  0  0  0
   -2.8011  -20.4466   18.7278 N   0  0  0  0  0  0  0  0  0  0  0  0
   -3.7845  -20.1095   19.5891 N   0  0  0  0  0  0  0  0  0  0  0  0
   -4.3678  -19.0743   18.9899 C   0  0  0  0  0  0  0  0  0  0  0  0
   -3.7270  -18.7327   17.7754 C   0  0  0  0  0  0  0  0  0  0  0  0
   -4.1217  -17.6975   16.8846 C   0  0  0  0  0  0  0  0  0  0  0  0
   -4.3914  -16.8518   16.1379 N   0  0  0  0  0  0  0  0  0  0  0  0
    1.8761  -18.8715   14.4534 H   0  0  0  0  0  0  0  0  0  0  0  0
    1.2019  -19.7668   15.8131 H   0  0  0  0  0  0  0  0  0  0  0  0
    1.2624  -18.0145   15.8914 H   0  0  0  0  0  0  0  0  0  0  0  0
   -0.4400  -19.7071   14.0586 H   0  0  0  0  0  0  0  0  0  0  0  0
   -1.4659  -17.4039   13.3269 H   0  0  0  0  0  0  0  0  0  0  0  0
   -0.0334  -18.0927   12.5536 H   0  0  0  0  0  0  0  0  0  0  0  0
   -0.1933  -15.5188   13.8265 H   0  0  0  0  0  0  0  0  0  0  0  0
    0.1696  -13.3406   13.3889 H   0  0  0  0  0  0  0  0  0  0  0  0
    4.0965  -12.1182   14.1009 H   0  0  0  0  0  0  0  0  0  0  0  0
    4.1237  -14.6458   13.7304 H   0  0  0  0  0  0  0  0  0  0  0  0
   -1.8405  -18.0287   15.9268 H   0  0  0  0  0  0  0  0  0  0  0  0
   -2.2186  -21.2545   18.9328 H   0  0  0  0  0  0  0  0  0  0  0  0
   -5.2319  -18.6152   19.4542 H   0  0  0  0  0  0  0  0  0  0  0  0
  1  2  1  0
  2  3  1  0
  3  4  1  0
  4  5  1  0
  5  6  2  0
  5  7  1  0
  7  8  2  0
  8  9  1  0
  9 10  2  0
 10 11  1  0
  2 12  1  0
 12 13  1  0
 13 14  2  0
 13 15  1  0
 15 16  1  0
 16 17  1  0
 17 18  2  0
 18 19  1  0
 19 20  1  0
 20 21  3  0
 11  7  1  0
 19 15  2  0
  1 22  1  0
  1 23  1  0
  1 24  1  0
  2 25  1  0
  3 26  1  0
  3 27  1  0
  4 28  1  0
  8 29  1  0
 10 30  1  0
 11 31  1  0
 12 32  1  0
 16 33  1  0
 18 34  1  0
M  END
>  <Energy>  (1216) 
-42.985471846427515

>  <compound_id>  (1216) 
10050

>  <target_id>  (1216) 
1

>  <reference_id>  (1216) 
96

>  <inspiration_ids>  (1216) 
[96, 114]

>  <energy_score>  (1216) 
-5.857944964099033

>  <distance_score>  (1216) 
14.81953474634588

>  <path>  (1216) 
/opt/xchem-fragalysis-2/maxwin/BulkDock/SCRATCH/511013/C10050-P96/C10050-P96.minimised.mol

>  <scratch_subdir>  (1216) 
/opt/xchem-fragalysis-2/maxwin/BulkDock/SCRATCH/511013/C10050-P96

>  <fragmenstein_runtime>  (1216) 
32.75668001174927

>  <fragmenstein_outcome>  (1216) 
too moved

>  <fragmenstein_mode>  (1216) 
expansion

>  <fragmenstein_error>  (1216) 


$$$$
C10050-P114
     RDKit          3D

 34 35  0  0  0  0  0  0  0  0999 V2000
    2.7815  -11.6470   22.9544 C   0  0  0  0  0  0  0  0  0  0  0  0
    3.5929  -12.5184   21.9873 C   0  0  0  0  0  0  0  0  0  0  0  0
    5.0866  -11.3490   20.6911 C   0  0  0  0  0  0  0  0  0  0  0  0
    5.0327   -9.6472   19.2551 N   0  0  0  0  0  0  0  0  0  0  0  0
    5.7555   -7.9413   19.3042 C   0  0  0  0  0  0  0  0  0  0  0  0
    6.5329   -7.6090   20.2193 O   0  0  0  0  0  0  0  0  0  0  0  0
    5.2480   -6.8008   18.1767 C   0  0  0  0  0  0  0  0  0  0  0  0
    6.2221   -5.8490   18.2058 C   0  0  0  0  0  0  0  0  0  0  0  0
    7.0911   -6.5822   17.5183 N   0  0  0  0  0  0  0  0  0  0  0  0
    6.4721   -6.6771   16.3981 C   0  0  0  0  0  0  0  0  0  0  0  0
    5.2502   -6.3638   16.8392 N   0  0  0  0  0  0  0  0  0  0  0  0
    2.3517  -13.3103   23.5627 N   0  0  0  0  0  0  0  0  0  0  0  0
    0.4559  -14.0386   23.5766 C   0  0  0  0  0  0  0  0  0  0  0  0
    0.0523  -14.1042   22.4887 O   0  0  0  0  0  0  0  0  0  0  0  0
   -0.8309  -14.4297   24.6119 C   0  0  0  0  0  0  0  0  0  0  0  0
   -1.6265  -15.1539   23.7585 N   0  0  0  0  0  0  0  0  0  0  0  0
   -2.9211  -15.3958   23.9976 N   0  0  0  0  0  0  0  0  0  0  0  0
   -2.6607  -15.7278   25.1888 C   0  0  0  0  0  0  0  0  0  0  0  0
   -1.9693  -14.6277   25.7898 C   0  0  0  0  0  0  0  0  0  0  0  0
   -1.8975  -15.0773   27.4263 C   0  0  0  0  0  0  0  0  0  0  0  0
   -1.8865  -15.6505   28.4459 N   0  0  0  0  0  0  0  0  0  0  0  0
    1.6712  -11.6710   22.7398 H   0  0  0  0  0  0  0  0  0  0  0  0
    3.2924  -10.6886   22.8075 H   0  0  0  0  0  0  0  0  0  0  0  0
    2.5547  -11.6508   24.0137 H   0  0  0  0  0  0  0  0  0  0  0  0
    4.2183  -12.1039   22.6999 H   0  0  0  0  0  0  0  0  0  0  0  0
    5.2787  -12.1618   19.9505 H   0  0  0  0  0  0  0  0  0  0  0  0
    6.0628  -11.3137   21.2001 H   0  0  0  0  0  0  0  0  0  0  0  0
    4.4933   -9.7472   18.3852 H   0  0  0  0  0  0  0  0  0  0  0  0
    6.5241   -5.2166   19.0304 H   0  0  0  0  0  0  0  0  0  0  0  0
    6.8126   -7.0780   15.4665 H   0  0  0  0  0  0  0  0  0  0  0  0
    4.4963   -5.9725   16.2902 H   0  0  0  0  0  0  0  0  0  0  0  0
    2.6496  -13.1837   24.5362 H   0  0  0  0  0  0  0  0  0  0  0  0
   -1.3870  -15.1801   22.7620 H   0  0  0  0  0  0  0  0  0  0  0  0
   -2.8543  -16.7031   25.6411 H   0  0  0  0  0  0  0  0  0  0  0  0
  1  2  1  0
  2  3  1  0
  3  4  1  0
  4  5  1  0
  5  6  2  0
  5  7  1  0
  7  8  2  0
  8  9  1  0
  9 10  2  0
 10 11  1  0
  2 12  1  0
 12 13  1  0
 13 14  2  0
 13 15  1  0
 15 16  1  0
 16 17  1  0
 17 18  2  0
 18 19  1  0
 19 20  1  0
 20 21  3  0
 11  7  1  0
 19 15  2  0
  1 22  1  0
  1 23  1  0
  1 24  1  0
  2 25  1  0
  3 26  1  0
  3 27  1  0
  4 28  1  0
  8 29  1  0
 10 30  1  0
 11 31  1  0
 12 32  1  0
 16 33  1  0
 18 34  1  0
M  END
>  <Energy>  (1217) 
1268.3716246071472

>  <compound_id>  (1217) 
10050

>  <target_id>  (1217) 
1

>  <reference_id>  (1217) 
114

>  <inspiration_ids>  (1217) 
[96, 114]

>  <energy_score>  (1217) 
1305.4991514894668

>  <distance_score>  (1217) 
11.390357009435483

>  <path>  (1217) 
/opt/xchem-fragalysis-2/maxwin/BulkDock/SCRATCH/511013/C10050-P114/C10050-P114.minimised.mol

>  <scratch_subdir>  (1217) 
/opt/xchem-fragalysis-2/maxwin/BulkDock/SCRATCH/511013/C10050-P114

>  <fragmenstein_runtime>  (1217) 
17.619855642318726

>  <fragmenstein_outcome>  (1217) 
too moved

>  <fragmenstein_mode>  (1217) 
expansion

>  <fragmenstein_error>  (1217) 


$$$$
C10051-P96
     RDKit          3D

 43 44  0  0  0  0  0  0  0  0999 V2000
   -7.8242  -16.3108   22.3050 C   0  0  0  0  0  0  0  0  0  0  0  0
   -8.3427  -15.4743   23.3367 O   0  0  0  0  0  0  0  0  0  0  0  0
   -7.3629  -15.1458   24.3329 C   0  0  0  0  0  0  0  0  0  0  0  0
   -6.4855  -13.9815   23.8901 C   0  0  0  0  0  0  0  0  0  0  0  0
   -5.4514  -13.6035   24.8646 N   0  0  0  0  0  0  0  0  0  0  0  0
   -5.9578  -13.1870   26.0560 N   0  0  0  0  0  0  0  0  0  0  0  0
   -5.7636  -11.8705   25.9604 C   0  0  0  0  0  0  0  0  0  0  0  0
   -4.8650  -11.5557   24.9004 C   0  0  0  0  0  0  0  0  0  0  0  0
   -4.3212  -12.7810   24.5397 C   0  0  0  0  0  0  0  0  0  0  0  0
   -3.0308  -13.3075   23.9663 C   0  0  0  0  0  0  0  0  0  0  0  0
   -3.0767  -14.4974   23.8096 O   0  0  0  0  0  0  0  0  0  0  0  0
   -1.8466  -12.2673   23.6633 N   0  0  0  0  0  0  0  0  0  0  0  0
   -0.0287  -12.5410   22.9483 C   0  0  0  0  0  0  0  0  0  0  0  0
    0.5801  -11.4079   24.1550 C   0  0  0  0  0  0  0  0  0  0  0  0
    1.8120  -11.7272   22.2703 C   0  0  0  0  0  0  0  0  0  0  0  0
    3.4433  -11.6361   23.3480 N   0  0  0  0  0  0  0  0  0  0  0  0
    4.9064  -10.4996   23.2286 C   0  0  0  0  0  0  0  0  0  0  0  0
    5.0610   -9.6894   22.3420 O   0  0  0  0  0  0  0  0  0  0  0  0
    5.9576  -10.3384   24.2059 C   0  0  0  0  0  0  0  0  0  0  0  0
    5.9940   -9.1974   25.0357 C   0  0  0  0  0  0  0  0  0  0  0  0
    7.2338   -8.6118   25.1317 N   0  0  0  0  0  0  0  0  0  0  0  0
    7.9804   -9.2802   24.2976 C   0  0  0  0  0  0  0  0  0  0  0  0
    7.2781  -10.2985   23.7279 N   0  0  0  0  0  0  0  0  0  0  0  0
   -7.0740  -15.7789   21.7146 H   0  0  0  0  0  0  0  0  0  0  0  0
   -7.4027  -17.2298   22.7219 H   0  0  0  0  0  0  0  0  0  0  0  0
   -8.6511  -16.5809   21.6425 H   0  0  0  0  0  0  0  0  0  0  0  0
   -7.9248  -14.8627   25.2300 H   0  0  0  0  0  0  0  0  0  0  0  0
   -6.7761  -16.0276   24.6032 H   0  0  0  0  0  0  0  0  0  0  0  0
   -6.0169  -14.1567   22.9305 H   0  0  0  0  0  0  0  0  0  0  0  0
   -7.1202  -13.0984   23.7323 H   0  0  0  0  0  0  0  0  0  0  0  0
   -6.2498  -11.2032   26.6615 H   0  0  0  0  0  0  0  0  0  0  0  0
   -4.5091  -10.5661   24.6549 H   0  0  0  0  0  0  0  0  0  0  0  0
   -2.1652  -11.3454   23.8299 H   0  0  0  0  0  0  0  0  0  0  0  0
   -0.5554  -12.6114   21.9985 H   0  0  0  0  0  0  0  0  0  0  0  0
    0.2646  -10.3660   24.2214 H   0  0  0  0  0  0  0  0  0  0  0  0
    1.5595  -11.6319   24.5352 H   0  0  0  0  0  0  0  0  0  0  0  0
    0.2473  -11.8256   25.0177 H   0  0  0  0  0  0  0  0  0  0  0  0
    1.6631  -10.7537   21.8040 H   0  0  0  0  0  0  0  0  0  0  0  0
    2.1987  -12.4855   21.5817 H   0  0  0  0  0  0  0  0  0  0  0  0
    3.4955  -12.1579   24.2121 H   0  0  0  0  0  0  0  0  0  0  0  0
    5.1442   -8.7122   25.4990 H   0  0  0  0  0  0  0  0  0  0  0  0
    9.0126   -9.0680   24.0535 H   0  0  0  0  0  0  0  0  0  0  0  0
    7.5726  -10.7927   22.8994 H   0  0  0  0  0  0  0  0  0  0  0  0
  1  2  1  0
  2  3  1  0
  3  4  1  0
  4  5  1  0
  5  6  1  0
  6  7  2  0
  7  8  1  0
  8  9  2  0
  9 10  1  0
 10 11  2  0
 10 12  1  0
 12 13  1  0
 13 14  1  0
 13 15  1  0
 15 16  1  0
 16 17  1  0
 17 18  2  0
 17 19  1  0
 19 20  2  0
 20 21  1  0
 21 22  2  0
 22 23  1  0
  9  5  1  0
 23 19  1  0
  1 24  1  0
  1 25  1  0
  1 26  1  0
  3 27  1  0
  3 28  1  0
  4 29  1  0
  4 30  1  0
  7 31  1  0
  8 32  1  0
 12 33  1  0
 13 34  1  0
 14 35  1  0
 14 36  1  0
 14 37  1  0
 15 38  1  0
 15 39  1  0
 16 40  1  0
 20 41  1  0
 22 42  1  0
 23 43  1  0
M  END
>  <Energy>  (1218) 
441.86860479902032

>  <compound_id>  (1218) 
10051

>  <target_id>  (1218) 
1

>  <reference_id>  (1218) 
96

>  <inspiration_ids>  (1218) 
[96, 114]

>  <energy_score>  (1218) 
462.28552368209967

>  <distance_score>  (1218) 
13.382659048188682

>  <path>  (1218) 
/opt/xchem-fragalysis-2/maxwin/BulkDock/SCRATCH/511013/C10051-P96/C10051-P96.minimised.mol

>  <scratch_subdir>  (1218) 
/opt/xchem-fragalysis-2/maxwin/BulkDock/SCRATCH/511013/C10051-P96

>  <fragmenstein_runtime>  (1218) 
27.072193145751953

>  <fragmenstein_outcome>  (1218) 
too moved

>  <fragmenstein_mode>  (1218) 
expansion

>  <fragmenstein_error>  (1218) 


$$$$
C10051-P114
     RDKit          3D

 43 44  0  0  0  0  0  0  0  0999 V2000
   -9.8103  -14.6441   21.6804 C   0  0  0  0  0  0  0  0  0  0  0  0
   -8.7684  -15.4836   22.1574 O   0  0  0  0  0  0  0  0  0  0  0  0
   -7.5721  -14.7400   22.4174 C   0  0  0  0  0  0  0  0  0  0  0  0
   -6.6022  -15.5626   23.2771 C   0  0  0  0  0  0  0  0  0  0  0  0
   -6.6320  -15.2560   24.6966 N   0  0  0  0  0  0  0  0  0  0  0  0
   -7.8640  -14.9658   25.1862 N   0  0  0  0  0  0  0  0  0  0  0  0
   -7.7256  -14.9996   26.4998 C   0  0  0  0  0  0  0  0  0  0  0  0
   -6.4054  -15.2306   26.8569 C   0  0  0  0  0  0  0  0  0  0  0  0
   -5.6427  -15.2946   25.6744 C   0  0  0  0  0  0  0  0  0  0  0  0
   -4.1468  -15.4356   25.7891 C   0  0  0  0  0  0  0  0  0  0  0  0
   -3.8513  -15.8453   26.8764 O   0  0  0  0  0  0  0  0  0  0  0  0
   -3.2865  -14.9812   24.6655 N   0  0  0  0  0  0  0  0  0  0  0  0
   -1.4957  -14.7599   24.5684 C   0  0  0  0  0  0  0  0  0  0  0  0
   -1.9076  -13.8957   25.7066 C   0  0  0  0  0  0  0  0  0  0  0  0
   -0.1880  -13.8298   23.3242 C   0  0  0  0  0  0  0  0  0  0  0  0
    0.8679  -12.1070   23.0246 N   0  0  0  0  0  0  0  0  0  0  0  0
    2.5020  -11.7810   23.1863 C   0  0  0  0  0  0  0  0  0  0  0  0
    3.3244  -12.5909   23.4354 O   0  0  0  0  0  0  0  0  0  0  0  0
    3.2970  -10.0019   23.1392 C   0  0  0  0  0  0  0  0  0  0  0  0
    2.7456   -8.5399   22.6046 C   0  0  0  0  0  0  0  0  0  0  0  0
    4.2079   -7.8821   23.0598 N   0  0  0  0  0  0  0  0  0  0  0  0
    3.9162   -7.2429   24.1926 C   0  0  0  0  0  0  0  0  0  0  0  0
    2.5577   -8.2220   23.5420 N   0  0  0  0  0  0  0  0  0  0  0  0
  -10.6795  -15.2675   21.4551 H   0  0  0  0  0  0  0  0  0  0  0  0
  -10.0943  -13.9153   22.4458 H   0  0  0  0  0  0  0  0  0  0  0  0
   -9.5007  -14.1303   20.7652 H   0  0  0  0  0  0  0  0  0  0  0  0
   -7.1125  -14.5541   21.4404 H   0  0  0  0  0  0  0  0  0  0  0  0
   -7.7974  -13.7677   22.8720 H   0  0  0  0  0  0  0  0  0  0  0  0
   -5.6019  -15.3511   22.9428 H   0  0  0  0  0  0  0  0  0  0  0  0
   -6.8001  -16.6337   23.1752 H   0  0  0  0  0  0  0  0  0  0  0  0
   -8.5894  -14.8393   27.1232 H   0  0  0  0  0  0  0  0  0  0  0  0
   -6.0123  -15.2986   27.8639 H   0  0  0  0  0  0  0  0  0  0  0  0
   -3.8716  -14.6226   23.9259 H   0  0  0  0  0  0  0  0  0  0  0  0
   -1.4775  -15.7684   24.4619 H   0  0  0  0  0  0  0  0  0  0  0  0
   -2.0462  -14.4986   26.6171 H   0  0  0  0  0  0  0  0  0  0  0  0
   -2.7811  -13.2109   25.5955 H   0  0  0  0  0  0  0  0  0  0  0  0
   -1.1094  -13.2246   25.7697 H   0  0  0  0  0  0  0  0  0  0  0  0
   -0.2209  -14.3836   22.4059 H   0  0  0  0  0  0  0  0  0  0  0  0
    0.6672  -14.1931   23.9267 H   0  0  0  0  0  0  0  0  0  0  0  0
    0.3920  -11.2575   22.7270 H   0  0  0  0  0  0  0  0  0  0  0  0
    1.8657   -8.4662   21.8590 H   0  0  0  0  0  0  0  0  0  0  0  0
    3.2294   -6.8216   24.9127 H   0  0  0  0  0  0  0  0  0  0  0  0
    1.7282   -8.0191   24.1470 H   0  0  0  0  0  0  0  0  0  0  0  0
  1  2  1  0
  2  3  1  0
  3  4  1  0
  4  5  1  0
  5  6  1  0
  6  7  2  0
  7  8  1  0
  8  9  2  0
  9 10  1  0
 10 11  2  0
 10 12  1  0
 12 13  1  0
 13 14  1  0
 13 15  1  0
 15 16  1  0
 16 17  1  0
 17 18  2  0
 17 19  1  0
 19 20  2  0
 20 21  1  0
 21 22  2  0
 22 23  1  0
  9  5  1  0
 23 19  1  0
  1 24  1  0
  1 25  1  0
  1 26  1  0
  3 27  1  0
  3 28  1  0
  4 29  1  0
  4 30  1  0
  7 31  1  0
  8 32  1  0
 12 33  1  0
 13 34  1  0
 14 35  1  0
 14 36  1  0
 14 37  1  0
 15 38  1  0
 15 39  1  0
 16 40  1  0
 20 41  1  0
 22 42  1  0
 23 43  1  0
M  END
>  <Energy>  (1219) 
797.90825863970849

>  <compound_id>  (1219) 
10051

>  <target_id>  (1219) 
1

>  <reference_id>  (1219) 
114

>  <inspiration_ids>  (1219) 
[96, 114]

>  <energy_score>  (1219) 
818.3251775227901

>  <distance_score>  (1219) 
12.265530786660767

>  <path>  (1219) 
/opt/xchem-fragalysis-2/maxwin/BulkDock/SCRATCH/511013/C10051-P114/C10051-P114.minimised.mol

>  <scratch_subdir>  (1219) 
/opt/xchem-fragalysis-2/maxwin/BulkDock/SCRATCH/511013/C10051-P114

>  <fragmenstein_runtime>  (1219) 
34.85278606414795

>  <fragmenstein_outcome>  (1219) 
too moved

>  <fragmenstein_mode>  (1219) 
expansion

>  <fragmenstein_error>  (1219) 


$$$$
C10052-P96
     RDKit          3D

 45 46  0  0  0  0  0  0  0  0999 V2000
  -10.5676  -21.3996   22.6191 C   0  0  0  0  0  0  0  0  0  0  0  0
   -9.2449  -21.1675   21.9102 C   0  0  0  0  0  0  0  0  0  0  0  0
   -9.0872  -19.7191   21.4799 C   0  0  0  0  0  0  0  0  0  0  0  0
   -7.6194  -19.3545   21.3253 C   0  0  0  0  0  0  0  0  0  0  0  0
   -7.4035  -18.4120   20.2480 N   0  0  0  0  0  0  0  0  0  0  0  0
   -7.9237  -18.7728   19.0526 N   0  0  0  0  0  0  0  0  0  0  0  0
   -6.9592  -18.4622   18.1994 C   0  0  0  0  0  0  0  0  0  0  0  0
   -5.9427  -17.7235   18.8181 C   0  0  0  0  0  0  0  0  0  0  0  0
   -6.3674  -17.4964   20.1228 C   0  0  0  0  0  0  0  0  0  0  0  0
   -5.7386  -16.6940   21.3241 C   0  0  0  0  0  0  0  0  0  0  0  0
   -6.2664  -16.9219   22.4335 O   0  0  0  0  0  0  0  0  0  0  0  0
   -4.3636  -15.4648   20.8313 N   0  0  0  0  0  0  0  0  0  0  0  0
   -3.1452  -14.1635   21.9299 C   0  0  0  0  0  0  0  0  0  0  0  0
   -3.3529  -14.2642   23.4224 C   0  0  0  0  0  0  0  0  0  0  0  0
   -1.2697  -14.4273   20.7172 C   0  0  0  0  0  0  0  0  0  0  0  0
    0.2239  -13.5912   20.5153 N   0  0  0  0  0  0  0  0  0  0  0  0
    1.4071  -13.3795   18.9838 C   0  0  0  0  0  0  0  0  0  0  0  0
    1.3702  -13.9097   17.8728 O   0  0  0  0  0  0  0  0  0  0  0  0
    2.7197  -12.0768   18.9833 C   0  0  0  0  0  0  0  0  0  0  0  0
    3.2079  -10.8337   19.3047 C   0  0  0  0  0  0  0  0  0  0  0  0
    4.4081  -10.3616   18.6064 N   0  0  0  0  0  0  0  0  0  0  0  0
    4.6137  -11.1833   17.6335 C   0  0  0  0  0  0  0  0  0  0  0  0
    3.5113  -11.9578   17.5484 N   0  0  0  0  0  0  0  0  0  0  0  0
  -10.9738  -20.5038   23.0856 H   0  0  0  0  0  0  0  0  0  0  0  0
  -11.2860  -21.7981   21.9078 H   0  0  0  0  0  0  0  0  0  0  0  0
  -10.4602  -22.1374   23.4178 H   0  0  0  0  0  0  0  0  0  0  0  0
   -9.1743  -21.7976   21.0158 H   0  0  0  0  0  0  0  0  0  0  0  0
   -8.4239  -21.4874   22.5610 H   0  0  0  0  0  0  0  0  0  0  0  0
   -9.6637  -19.5842   20.5588 H   0  0  0  0  0  0  0  0  0  0  0  0
   -9.5106  -19.0278   22.2122 H   0  0  0  0  0  0  0  0  0  0  0  0
   -7.0142  -20.2344   21.0712 H   0  0  0  0  0  0  0  0  0  0  0  0
   -7.2256  -18.9516   22.2548 H   0  0  0  0  0  0  0  0  0  0  0  0
   -7.0397  -18.7798   17.1676 H   0  0  0  0  0  0  0  0  0  0  0  0
   -5.0360  -17.3735   18.3465 H   0  0  0  0  0  0  0  0  0  0  0  0
   -4.0993  -15.5851   19.8598 H   0  0  0  0  0  0  0  0  0  0  0  0
   -2.1451  -14.0564   22.4568 H   0  0  0  0  0  0  0  0  0  0  0  0
   -2.9409  -13.3942   23.9643 H   0  0  0  0  0  0  0  0  0  0  0  0
   -2.9778  -15.1078   23.9957 H   0  0  0  0  0  0  0  0  0  0  0  0
   -4.4081  -14.3058   23.4375 H   0  0  0  0  0  0  0  0  0  0  0  0
   -1.2897  -15.1596   19.8292 H   0  0  0  0  0  0  0  0  0  0  0  0
   -1.4869  -13.4208   20.7222 H   0  0  0  0  0  0  0  0  0  0  0  0
    0.5745  -13.0787   21.3264 H   0  0  0  0  0  0  0  0  0  0  0  0
    2.8277  -10.2464   20.1383 H   0  0  0  0  0  0  0  0  0  0  0  0
    5.4393  -11.2192   16.9394 H   0  0  0  0  0  0  0  0  0  0  0  0
    3.4463  -12.8109   17.0204 H   0  0  0  0  0  0  0  0  0  0  0  0
  1  2  1  0
  2  3  1  0
  3  4  1  0
  4  5  1  0
  5  6  1  0
  6  7  2  0
  7  8  1  0
  8  9  2  0
  9 10  1  0
 10 11  2  0
 10 12  1  0
 12 13  1  0
 13 14  1  0
 13 15  1  0
 15 16  1  0
 16 17  1  0
 17 18  2  0
 17 19  1  0
 19 20  2  0
 20 21  1  0
 21 22  2  0
 22 23  1  0
  9  5  1  0
 23 19  1  0
  1 24  1  0
  1 25  1  0
  1 26  1  0
  2 27  1  0
  2 28  1  0
  3 29  1  0
  3 30  1  0
  4 31  1  0
  4 32  1  0
  7 33  1  0
  8 34  1  0
 12 35  1  0
 13 36  1  0
 14 37  1  0
 14 38  1  0
 14 39  1  0
 15 40  1  0
 15 41  1  0
 16 42  1  0
 20 43  1  0
 22 44  1  0
 23 45  1  0
M  END
>  <Energy>  (1220) 
657.96494037177411

>  <compound_id>  (1220) 
10052

>  <target_id>  (1220) 
1

>  <reference_id>  (1220) 
96

>  <inspiration_ids>  (1220) 
[96, 114]

>  <energy_score>  (1220) 
690.5397932127491

>  <distance_score>  (1220) 
13.110380286295758

>  <path>  (1220) 
/opt/xchem-fragalysis-2/maxwin/BulkDock/SCRATCH/511013/C10052-P96/C10052-P96.minimised.mol

>  <scratch_subdir>  (1220) 
/opt/xchem-fragalysis-2/maxwin/BulkDock/SCRATCH/511013/C10052-P96

>  <fragmenstein_runtime>  (1220) 
22.37842559814453

>  <fragmenstein_outcome>  (1220) 
too moved

>  <fragmenstein_mode>  (1220) 
expansion

>  <fragmenstein_error>  (1220) 


$$$$
C10052-P114
     RDKit          3D

 45 46  0  0  0  0  0  0  0  0999 V2000
  -10.0010  -20.3772   28.9700 C   0  0  0  0  0  0  0  0  0  0  0  0
   -8.8324  -18.7322   28.1173 C   0  0  0  0  0  0  0  0  0  0  0  0
   -8.3852  -16.9643   27.1601 C   0  0  0  0  0  0  0  0  0  0  0  0
   -7.2498  -15.6593   26.2333 C   0  0  0  0  0  0  0  0  0  0  0  0
   -7.2835  -13.9083   25.9867 N   0  0  0  0  0  0  0  0  0  0  0  0
   -8.3125  -13.2701   26.5881 N   0  0  0  0  0  0  0  0  0  0  0  0
   -8.4573  -12.1550   25.8814 C   0  0  0  0  0  0  0  0  0  0  0  0
   -7.4107  -11.8190   24.9775 C   0  0  0  0  0  0  0  0  0  0  0  0
   -6.2941  -12.6321   25.2084 C   0  0  0  0  0  0  0  0  0  0  0  0
   -4.8213  -12.9669   23.9538 C   0  0  0  0  0  0  0  0  0  0  0  0
   -5.2874  -13.4397   22.9880 O   0  0  0  0  0  0  0  0  0  0  0  0
   -2.7910  -12.6413   24.4918 N   0  0  0  0  0  0  0  0  0  0  0  0
   -0.7417  -12.9645   23.2872 C   0  0  0  0  0  0  0  0  0  0  0  0
   -1.3966  -11.8184   21.5760 C   0  0  0  0  0  0  0  0  0  0  0  0
    1.1136  -11.8110   22.7975 C   0  0  0  0  0  0  0  0  0  0  0  0
    2.8733  -10.7446   22.7592 N   0  0  0  0  0  0  0  0  0  0  0  0
    3.0886   -8.7877   23.0328 C   0  0  0  0  0  0  0  0  0  0  0  0
    2.1361   -8.1399   23.1257 O   0  0  0  0  0  0  0  0  0  0  0  0
    4.6359   -7.6968   23.4139 C   0  0  0  0  0  0  0  0  0  0  0  0
    4.8203   -7.0054   24.7241 C   0  0  0  0  0  0  0  0  0  0  0  0
    6.0395   -6.5778   25.2012 N   0  0  0  0  0  0  0  0  0  0  0  0
    6.7555   -6.6160   24.1385 C   0  0  0  0  0  0  0  0  0  0  0  0
    5.9467   -6.9465   23.0870 N   0  0  0  0  0  0  0  0  0  0  0  0
   -9.9701  -20.8204   29.9907 H   0  0  0  0  0  0  0  0  0  0  0  0
  -10.1179  -21.2406   28.2619 H   0  0  0  0  0  0  0  0  0  0  0  0
  -11.0322  -20.1187   29.4180 H   0  0  0  0  0  0  0  0  0  0  0  0
   -8.0031  -18.5449   28.7880 H   0  0  0  0  0  0  0  0  0  0  0  0
   -9.7196  -18.1129   28.1638 H   0  0  0  0  0  0  0  0  0  0  0  0
   -7.7022  -16.6560   27.9810 H   0  0  0  0  0  0  0  0  0  0  0  0
   -9.3505  -16.4892   26.9453 H   0  0  0  0  0  0  0  0  0  0  0  0
   -6.2855  -15.7236   26.7480 H   0  0  0  0  0  0  0  0  0  0  0  0
   -7.2131  -15.9054   25.1711 H   0  0  0  0  0  0  0  0  0  0  0  0
   -9.3727  -11.5929   26.0191 H   0  0  0  0  0  0  0  0  0  0  0  0
   -7.4434  -11.0180   24.2542 H   0  0  0  0  0  0  0  0  0  0  0  0
   -2.6840  -12.2857   25.4286 H   0  0  0  0  0  0  0  0  0  0  0  0
   -0.4793  -14.0624   23.1475 H   0  0  0  0  0  0  0  0  0  0  0  0
   -1.5230  -12.4270   20.6659 H   0  0  0  0  0  0  0  0  0  0  0  0
   -0.8657  -10.8572   21.4291 H   0  0  0  0  0  0  0  0  0  0  0  0
   -2.4162  -11.3759   21.5256 H   0  0  0  0  0  0  0  0  0  0  0  0
    0.4699  -10.9759   22.5212 H   0  0  0  0  0  0  0  0  0  0  0  0
    1.6037  -12.0126   23.7850 H   0  0  0  0  0  0  0  0  0  0  0  0
    3.7926  -11.1677   22.6083 H   0  0  0  0  0  0  0  0  0  0  0  0
    4.0182   -6.6278   25.2921 H   0  0  0  0  0  0  0  0  0  0  0  0
    7.8027   -6.3764   24.0296 H   0  0  0  0  0  0  0  0  0  0  0  0
    6.3762   -7.0829   22.2063 H   0  0  0  0  0  0  0  0  0  0  0  0
  1  2  1  0
  2  3  1  0
  3  4  1  0
  4  5  1  0
  5  6  1  0
  6  7  2  0
  7  8  1  0
  8  9  2  0
  9 10  1  0
 10 11  2  0
 10 12  1  0
 12 13  1  0
 13 14  1  0
 13 15  1  0
 15 16  1  0
 16 17  1  0
 17 18  2  0
 17 19  1  0
 19 20  2  0
 20 21  1  0
 21 22  2  0
 22 23  1  0
  9  5  1  0
 23 19  1  0
  1 24  1  0
  1 25  1  0
  1 26  1  0
  2 27  1  0
  2 28  1  0
  3 29  1  0
  3 30  1  0
  4 31  1  0
  4 32  1  0
  7 33  1  0
  8 34  1  0
 12 35  1  0
 13 36  1  0
 14 37  1  0
 14 38  1  0
 14 39  1  0
 15 40  1  0
 15 41  1  0
 16 42  1  0
 20 43  1  0
 22 44  1  0
 23 45  1  0
M  END
>  <Energy>  (1221) 
1848.2158425383134

>  <compound_id>  (1221) 
10052

>  <target_id>  (1221) 
1

>  <reference_id>  (1221) 
114

>  <inspiration_ids>  (1221) 
[96, 114]

>  <energy_score>  (1221) 
1880.790695379316

>  <distance_score>  (1221) 
12.553994149619514

>  <path>  (1221) 
/opt/xchem-fragalysis-2/maxwin/BulkDock/SCRATCH/511013/C10052-P114/C10052-P114.minimised.mol

>  <scratch_subdir>  (1221) 
/opt/xchem-fragalysis-2/maxwin/BulkDock/SCRATCH/511013/C10052-P114

>  <fragmenstein_runtime>  (1221) 
58.20432710647583

>  <fragmenstein_outcome>  (1221) 
too moved

>  <fragmenstein_mode>  (1221) 
expansion

>  <fragmenstein_error>  (1221) 


$$$$
C10053-P96
     RDKit          3D

 33 34  0  0  0  0  0  0  0  0999 V2000
    3.1854  -17.1577   22.8111 C   0  0  0  0  0  0  0  0  0  0  0  0
    2.5550  -15.7590   23.0970 C   0  0  0  0  0  0  0  0  0  0  0  0
    3.0130  -13.9911   21.7958 C   0  0  0  0  0  0  0  0  0  0  0  0
    2.5589  -12.9876   20.0485 N   0  0  0  0  0  0  0  0  0  0  0  0
    3.7012  -11.9561   18.8151 C   0  0  0  0  0  0  0  0  0  0  0  0
    4.8520  -11.7233   19.0608 O   0  0  0  0  0  0  0  0  0  0  0  0
    3.4312  -11.5051   17.4947 C   0  0  0  0  0  0  0  0  0  0  0  0
    3.8115  -12.3201   16.3732 C   0  0  0  0  0  0  0  0  0  0  0  0
    4.4659  -11.7206   15.3047 N   0  0  0  0  0  0  0  0  0  0  0  0
    4.9539  -10.6320   15.8085 C   0  0  0  0  0  0  0  0  0  0  0  0
    4.5906  -10.5651   17.1072 N   0  0  0  0  0  0  0  0  0  0  0  0
    1.0135  -17.0134   23.4806 N   0  0  0  0  0  0  0  0  0  0  0  0
    0.5136  -18.4955   22.7013 C   0  0  0  0  0  0  0  0  0  0  0  0
    1.2486  -18.8316   21.9045 O   0  0  0  0  0  0  0  0  0  0  0  0
   -0.8928  -19.6915   22.7900 C   0  0  0  0  0  0  0  0  0  0  0  0
   -2.2304  -19.8537   23.2847 C   0  0  0  0  0  0  0  0  0  0  0  0
   -2.5861  -21.2143   23.3235 C   0  0  0  0  0  0  0  0  0  0  0  0
   -3.6871  -21.6892   23.9365 F   0  0  0  0  0  0  0  0  0  0  0  0
   -1.6066  -21.9655   22.8647 N   0  0  0  0  0  0  0  0  0  0  0  0
   -0.6554  -21.0626   22.5399 N   0  0  0  0  0  0  0  0  0  0  0  0
    3.5235  -17.1887   21.7660 H   0  0  0  0  0  0  0  0  0  0  0  0
    3.7712  -17.5329   23.6701 H   0  0  0  0  0  0  0  0  0  0  0  0
    2.8452  -17.9879   22.2694 H   0  0  0  0  0  0  0  0  0  0  0  0
    2.9430  -15.5934   24.1269 H   0  0  0  0  0  0  0  0  0  0  0  0
    2.8209  -13.0044   22.2537 H   0  0  0  0  0  0  0  0  0  0  0  0
    4.0749  -13.8713   22.0387 H   0  0  0  0  0  0  0  0  0  0  0  0
    1.6221  -12.9982   19.6992 H   0  0  0  0  0  0  0  0  0  0  0  0
    3.7020  -13.4013   16.3379 H   0  0  0  0  0  0  0  0  0  0  0  0
    5.6090   -9.9255   15.3204 H   0  0  0  0  0  0  0  0  0  0  0  0
    5.0102  -10.0113   17.8346 H   0  0  0  0  0  0  0  0  0  0  0  0
    0.3582  -16.8385   24.2257 H   0  0  0  0  0  0  0  0  0  0  0  0
   -2.8424  -19.1839   23.8501 H   0  0  0  0  0  0  0  0  0  0  0  0
    0.1572  -21.4234   22.0656 H   0  0  0  0  0  0  0  0  0  0  0  0
  1  2  1  0
  2  3  1  0
  3  4  1  0
  4  5  1  0
  5  6  2  0
  5  7  1  0
  7  8  2  0
  8  9  1  0
  9 10  2  0
 10 11  1  0
  2 12  1  0
 12 13  1  0
 13 14  2  0
 13 15  1  0
 15 16  2  0
 16 17  1  0
 17 18  1  0
 17 19  2  0
 19 20  1  0
 11  7  1  0
 20 15  1  0
  1 21  1  0
  1 22  1  0
  1 23  1  0
  2 24  1  0
  3 25  1  0
  3 26  1  0
  4 27  1  0
  8 28  1  0
 10 29  1  0
 11 30  1  0
 12 31  1  0
 16 32  1  0
 20 33  1  0
M  END
>  <Energy>  (1222) 
713.41063435534215

>  <compound_id>  (1222) 
10053

>  <target_id>  (1222) 
1

>  <reference_id>  (1222) 
96

>  <inspiration_ids>  (1222) 
[96, 114]

>  <energy_score>  (1222) 
748.9200032108536

>  <distance_score>  (1222) 
12.197837867410497

>  <path>  (1222) 
/opt/xchem-fragalysis-2/maxwin/BulkDock/SCRATCH/511013/C10053-P96/C10053-P96.minimised.mol

>  <scratch_subdir>  (1222) 
/opt/xchem-fragalysis-2/maxwin/BulkDock/SCRATCH/511013/C10053-P96

>  <fragmenstein_runtime>  (1222) 
17.04971981048584

>  <fragmenstein_outcome>  (1222) 
too moved

>  <fragmenstein_mode>  (1222) 
expansion

>  <fragmenstein_error>  (1222) 


$$$$
C10053-P114
     RDKit          3D

 33 34  0  0  0  0  0  0  0  0999 V2000
   -2.3616  -14.7064   14.9820 C   0  0  0  0  0  0  0  0  0  0  0  0
   -2.5305  -14.7261   16.5093 C   0  0  0  0  0  0  0  0  0  0  0  0
   -1.4704  -14.0615   17.8140 C   0  0  0  0  0  0  0  0  0  0  0  0
    0.0271  -13.2223   17.7342 N   0  0  0  0  0  0  0  0  0  0  0  0
    1.8111  -13.7549   17.9884 C   0  0  0  0  0  0  0  0  0  0  0  0
    2.2809  -14.8552   18.1879 O   0  0  0  0  0  0  0  0  0  0  0  0
    3.0547  -12.1197   17.9265 C   0  0  0  0  0  0  0  0  0  0  0  0
    2.4851  -10.3294   18.0333 C   0  0  0  0  0  0  0  0  0  0  0  0
    2.9221   -9.2809   17.4675 N   0  0  0  0  0  0  0  0  0  0  0  0
    3.7387  -10.2009   17.1568 C   0  0  0  0  0  0  0  0  0  0  0  0
    3.5128  -11.4530   16.7244 N   0  0  0  0  0  0  0  0  0  0  0  0
   -3.1894  -16.0352   17.0748 N   0  0  0  0  0  0  0  0  0  0  0  0
   -4.4978  -16.5985   16.8726 C   0  0  0  0  0  0  0  0  0  0  0  0
   -5.3911  -16.2565   16.1547 O   0  0  0  0  0  0  0  0  0  0  0  0
   -4.7930  -17.7379   17.8052 C   0  0  0  0  0  0  0  0  0  0  0  0
   -4.2044  -18.2473   18.9700 C   0  0  0  0  0  0  0  0  0  0  0  0
   -5.1939  -19.0499   19.6022 C   0  0  0  0  0  0  0  0  0  0  0  0
   -5.0765  -19.6243   20.8166 F   0  0  0  0  0  0  0  0  0  0  0  0
   -6.3107  -19.1161   18.8846 N   0  0  0  0  0  0  0  0  0  0  0  0
   -6.0354  -18.3552   17.8037 N   0  0  0  0  0  0  0  0  0  0  0  0
   -1.3301  -14.6767   14.6331 H   0  0  0  0  0  0  0  0  0  0  0  0
   -2.8342  -15.5892   14.5319 H   0  0  0  0  0  0  0  0  0  0  0  0
   -2.8876  -13.8642   14.5263 H   0  0  0  0  0  0  0  0  0  0  0  0
   -3.3816  -14.0326   16.5766 H   0  0  0  0  0  0  0  0  0  0  0  0
   -2.0319  -13.1507   18.0701 H   0  0  0  0  0  0  0  0  0  0  0  0
   -1.4831  -14.7559   18.6824 H   0  0  0  0  0  0  0  0  0  0  0  0
   -0.0478  -12.2689   17.6772 H   0  0  0  0  0  0  0  0  0  0  0  0
    1.9837   -9.8313   18.8725 H   0  0  0  0  0  0  0  0  0  0  0  0
    4.6024   -9.9355   17.7254 H   0  0  0  0  0  0  0  0  0  0  0  0
    4.1788  -11.9024   16.1389 H   0  0  0  0  0  0  0  0  0  0  0  0
   -2.6649  -16.6351   17.6990 H   0  0  0  0  0  0  0  0  0  0  0  0
   -3.2430  -17.9887   19.3884 H   0  0  0  0  0  0  0  0  0  0  0  0
   -6.7680  -18.2032   17.1171 H   0  0  0  0  0  0  0  0  0  0  0  0
  1  2  1  0
  2  3  1  0
  3  4  1  0
  4  5  1  0
  5  6  2  0
  5  7  1  0
  7  8  2  0
  8  9  1  0
  9 10  2  0
 10 11  1  0
  2 12  1  0
 12 13  1  0
 13 14  2  0
 13 15  1  0
 15 16  2  0
 16 17  1  0
 17 18  1  0
 17 19  2  0
 19 20  1  0
 11  7  1  0
 20 15  1  0
  1 21  1  0
  1 22  1  0
  1 23  1  0
  2 24  1  0
  3 25  1  0
  3 26  1  0
  4 27  1  0
  8 28  1  0
 10 29  1  0
 11 30  1  0
 12 31  1  0
 16 32  1  0
 20 33  1  0
M  END
>  <Energy>  (1223) 
399.855764529238

>  <compound_id>  (1223) 
10053

>  <target_id>  (1223) 
1

>  <reference_id>  (1223) 
114

>  <inspiration_ids>  (1223) 
[96, 114]

>  <energy_score>  (1223) 
435.3651333847423

>  <distance_score>  (1223) 
13.311991228854714

>  <path>  (1223) 
/opt/xchem-fragalysis-2/maxwin/BulkDock/SCRATCH/511013/C10053-P114/C10053-P114.minimised.mol

>  <scratch_subdir>  (1223) 
/opt/xchem-fragalysis-2/maxwin/BulkDock/SCRATCH/511013/C10053-P114

>  <fragmenstein_runtime>  (1223) 
17.04533052444458

>  <fragmenstein_outcome>  (1223) 
too moved

>  <fragmenstein_mode>  (1223) 
expansion

>  <fragmenstein_error>  (1223) 


$$$$
C10054-P96
     RDKit          3D

 42 43  0  0  0  0  0  0  0  0999 V2000
   -3.8532  -20.6844   25.4802 C   0  0  0  0  0  0  0  0  0  0  0  0
   -4.0056  -19.4860   26.4320 C   0  0  0  0  0  0  0  0  0  0  0  0
   -4.5516  -18.1202   25.7912 C   0  0  0  0  0  0  0  0  0  0  0  0
   -4.2844  -16.7277   26.4617 N   0  0  0  0  0  0  0  0  0  0  0  0
   -3.3791  -17.0271   27.3921 N   0  0  0  0  0  0  0  0  0  0  0  0
   -2.3283  -17.0991   26.5936 C   0  0  0  0  0  0  0  0  0  0  0  0
   -2.6266  -16.2786   25.4967 C   0  0  0  0  0  0  0  0  0  0  0  0
   -3.8206  -15.4308   25.7603 C   0  0  0  0  0  0  0  0  0  0  0  0
   -3.2341  -13.8748   25.8155 C   0  0  0  0  0  0  0  0  0  0  0  0
   -3.1283  -13.2395   26.8272 O   0  0  0  0  0  0  0  0  0  0  0  0
   -2.7919  -13.5660   24.4261 N   0  0  0  0  0  0  0  0  0  0  0  0
   -1.7873  -12.1923   23.7559 C   0  0  0  0  0  0  0  0  0  0  0  0
   -1.1682  -12.8003   22.3079 C   0  0  0  0  0  0  0  0  0  0  0  0
    0.2157  -11.6857   24.1563 C   0  0  0  0  0  0  0  0  0  0  0  0
    1.5346  -11.3715   23.6928 N   0  0  0  0  0  0  0  0  0  0  0  0
    3.1724  -11.7917   24.3975 C   0  0  0  0  0  0  0  0  0  0  0  0
    3.3922  -12.5153   25.3418 O   0  0  0  0  0  0  0  0  0  0  0  0
    4.7298  -10.9358   23.8038 C   0  0  0  0  0  0  0  0  0  0  0  0
    5.4787  -10.0606   22.8659 C   0  0  0  0  0  0  0  0  0  0  0  0
    6.6753   -9.5375   23.2718 N   0  0  0  0  0  0  0  0  0  0  0  0
    6.4839   -9.4833   24.5453 C   0  0  0  0  0  0  0  0  0  0  0  0
    5.2832  -10.0522   24.8519 N   0  0  0  0  0  0  0  0  0  0  0  0
   -3.5437  -20.3814   24.4763 H   0  0  0  0  0  0  0  0  0  0  0  0
   -4.7452  -21.2993   25.4177 H   0  0  0  0  0  0  0  0  0  0  0  0
   -3.1305  -21.4021   25.8862 H   0  0  0  0  0  0  0  0  0  0  0  0
   -4.7028  -19.8334   27.1913 H   0  0  0  0  0  0  0  0  0  0  0  0
   -3.0802  -19.3628   26.9918 H   0  0  0  0  0  0  0  0  0  0  0  0
   -5.5895  -18.2207   25.9215 H   0  0  0  0  0  0  0  0  0  0  0  0
   -4.2827  -18.0870   24.7489 H   0  0  0  0  0  0  0  0  0  0  0  0
   -1.4484  -17.6430   26.8829 H   0  0  0  0  0  0  0  0  0  0  0  0
   -1.8145  -16.0784   24.8561 H   0  0  0  0  0  0  0  0  0  0  0  0
   -3.1216  -14.2955   23.8004 H   0  0  0  0  0  0  0  0  0  0  0  0
   -1.6538  -13.2191   23.4857 H   0  0  0  0  0  0  0  0  0  0  0  0
   -1.7628  -13.6415   21.8999 H   0  0  0  0  0  0  0  0  0  0  0  0
   -1.0916  -12.2481   21.4176 H   0  0  0  0  0  0  0  0  0  0  0  0
   -0.0923  -12.8038   22.4394 H   0  0  0  0  0  0  0  0  0  0  0  0
    0.0748  -10.5924   24.3636 H   0  0  0  0  0  0  0  0  0  0  0  0
    0.5831  -12.0287   25.0880 H   0  0  0  0  0  0  0  0  0  0  0  0
    1.6551  -10.8125   22.8583 H   0  0  0  0  0  0  0  0  0  0  0  0
    5.2182   -9.6871   21.8930 H   0  0  0  0  0  0  0  0  0  0  0  0
    7.1290   -9.0191   25.2796 H   0  0  0  0  0  0  0  0  0  0  0  0
    4.8046  -10.0075   25.7386 H   0  0  0  0  0  0  0  0  0  0  0  0
  1  2  1  0
  2  3  1  0
  3  4  1  0
  4  5  1  0
  5  6  2  0
  6  7  1  0
  7  8  2  0
  8  9  1  0
  9 10  2  0
  9 11  1  0
 11 12  1  0
 12 13  1  0
 12 14  1  0
 14 15  1  0
 15 16  1  0
 16 17  2  0
 16 18  1  0
 18 19  2  0
 19 20  1  0
 20 21  2  0
 21 22  1  0
  8  4  1  0
 22 18  1  0
  1 23  1  0
  1 24  1  0
  1 25  1  0
  2 26  1  0
  2 27  1  0
  3 28  1  0
  3 29  1  0
  6 30  1  0
  7 31  1  0
 11 32  1  0
 12 33  1  0
 13 34  1  0
 13 35  1  0
 13 36  1  0
 14 37  1  0
 14 38  1  0
 15 39  1  0
 19 40  1  0
 21 41  1  0
 22 42  1  0
M  END
>  <Energy>  (1224) 
580.1506016004779

>  <compound_id>  (1224) 
10054

>  <target_id>  (1224) 
1

>  <reference_id>  (1224) 
96

>  <inspiration_ids>  (1224) 
[96, 114]

>  <energy_score>  (1224) 
616.0220510334766

>  <distance_score>  (1224) 
12.686139491569309

>  <path>  (1224) 
/opt/xchem-fragalysis-2/maxwin/BulkDock/SCRATCH/511013/C10054-P96/C10054-P96.minimised.mol

>  <scratch_subdir>  (1224) 
/opt/xchem-fragalysis-2/maxwin/BulkDock/SCRATCH/511013/C10054-P96

>  <fragmenstein_runtime>  (1224) 
23.341209411621094

>  <fragmenstein_outcome>  (1224) 
too moved

>  <fragmenstein_mode>  (1224) 
expansion

>  <fragmenstein_error>  (1224) 


$$$$
C10054-P114
     RDKit          3D

 42 43  0  0  0  0  0  0  0  0999 V2000
   -4.9422  -20.0158   21.0371 C   0  0  0  0  0  0  0  0  0  0  0  0
   -4.3335  -18.7635   20.4569 C   0  0  0  0  0  0  0  0  0  0  0  0
   -2.7736  -18.8487   20.5062 C   0  0  0  0  0  0  0  0  0  0  0  0
   -1.9873  -17.4170   20.6432 N   0  0  0  0  0  0  0  0  0  0  0  0
   -2.8914  -16.4003   20.2690 N   0  0  0  0  0  0  0  0  0  0  0  0
   -2.8597  -16.8258   19.0526 C   0  0  0  0  0  0  0  0  0  0  0  0
   -1.5559  -17.4126   19.0505 C   0  0  0  0  0  0  0  0  0  0  0  0
   -0.4614  -16.7880   20.1438 C   0  0  0  0  0  0  0  0  0  0  0  0
    0.9574  -15.5986   20.6782 C   0  0  0  0  0  0  0  0  0  0  0  0
    0.7844  -15.2830   21.8264 O   0  0  0  0  0  0  0  0  0  0  0  0
    2.4497  -14.6776   19.7501 N   0  0  0  0  0  0  0  0  0  0  0  0
    3.7529  -13.1200   20.3299 C   0  0  0  0  0  0  0  0  0  0  0  0
    4.3847  -13.4691   19.0502 C   0  0  0  0  0  0  0  0  0  0  0  0
    5.1749  -11.4943   20.0925 C   0  0  0  0  0  0  0  0  0  0  0  0
    5.4435   -9.6598   19.0429 N   0  0  0  0  0  0  0  0  0  0  0  0
    6.2034   -7.8378   19.6617 C   0  0  0  0  0  0  0  0  0  0  0  0
    6.4565   -7.6662   20.8155 O   0  0  0  0  0  0  0  0  0  0  0  0
    6.7691   -6.5655   18.8364 C   0  0  0  0  0  0  0  0  0  0  0  0
    7.5095   -5.7611   20.1731 C   0  0  0  0  0  0  0  0  0  0  0  0
    8.8244   -5.5180   20.2181 N   0  0  0  0  0  0  0  0  0  0  0  0
    9.1313   -6.7565   20.0802 C   0  0  0  0  0  0  0  0  0  0  0  0
    8.3153   -7.2637   19.0833 N   0  0  0  0  0  0  0  0  0  0  0  0
   -4.4023  -20.4133   21.9015 H   0  0  0  0  0  0  0  0  0  0  0  0
   -4.9795  -20.7990   20.2754 H   0  0  0  0  0  0  0  0  0  0  0  0
   -5.9455  -19.7552   21.3768 H   0  0  0  0  0  0  0  0  0  0  0  0
   -4.6852  -18.6708   19.4221 H   0  0  0  0  0  0  0  0  0  0  0  0
   -4.7352  -17.8918   20.9872 H   0  0  0  0  0  0  0  0  0  0  0  0
   -2.5441  -19.3384   19.5583 H   0  0  0  0  0  0  0  0  0  0  0  0
   -2.3945  -19.4164   21.3437 H   0  0  0  0  0  0  0  0  0  0  0  0
   -3.7329  -16.8421   18.4067 H   0  0  0  0  0  0  0  0  0  0  0  0
   -1.2227  -18.1080   18.2711 H   0  0  0  0  0  0  0  0  0  0  0  0
    2.4444  -14.9601   18.7720 H   0  0  0  0  0  0  0  0  0  0  0  0
    3.8240  -13.3041   21.3601 H   0  0  0  0  0  0  0  0  0  0  0  0
    5.4438  -13.5581   19.2678 H   0  0  0  0  0  0  0  0  0  0  0  0
    3.9782  -12.6936   18.3951 H   0  0  0  0  0  0  0  0  0  0  0  0
    4.1577  -14.3783   18.4672 H   0  0  0  0  0  0  0  0  0  0  0  0
    5.4574  -11.3136   21.1330 H   0  0  0  0  0  0  0  0  0  0  0  0
    6.0995  -11.9427   19.7302 H   0  0  0  0  0  0  0  0  0  0  0  0
    5.2035   -9.6079   18.0502 H   0  0  0  0  0  0  0  0  0  0  0  0
    7.3322   -6.0710   21.2176 H   0  0  0  0  0  0  0  0  0  0  0  0
    9.9044   -7.2998   20.6000 H   0  0  0  0  0  0  0  0  0  0  0  0
    8.4442   -8.1918   18.6931 H   0  0  0  0  0  0  0  0  0  0  0  0
  1  2  1  0
  2  3  1  0
  3  4  1  0
  4  5  1  0
  5  6  2  0
  6  7  1  0
  7  8  2  0
  8  9  1  0
  9 10  2  0
  9 11  1  0
 11 12  1  0
 12 13  1  0
 12 14  1  0
 14 15  1  0
 15 16  1  0
 16 17  2  0
 16 18  1  0
 18 19  2  0
 19 20  1  0
 20 21  2  0
 21 22  1  0
  8  4  1  0
 22 18  1  0
  1 23  1  0
  1 24  1  0
  1 25  1  0
  2 26  1  0
  2 27  1  0
  3 28  1  0
  3 29  1  0
  6 30  1  0
  7 31  1  0
 11 32  1  0
 12 33  1  0
 13 34  1  0
 13 35  1  0
 13 36  1  0
 14 37  1  0
 14 38  1  0
 15 39  1  0
 19 40  1  0
 21 41  1  0
 22 42  1  0
M  END
>  <Energy>  (1225) 
1290.277487610243

>  <compound_id>  (1225) 
10054

>  <target_id>  (1225) 
1

>  <reference_id>  (1225) 
114

>  <inspiration_ids>  (1225) 
[96, 114]

>  <energy_score>  (1225) 
1326.14893704325

>  <distance_score>  (1225) 
12.261119460812195

>  <path>  (1225) 
/opt/xchem-fragalysis-2/maxwin/BulkDock/SCRATCH/511013/C10054-P114/C10054-P114.minimised.mol

>  <scratch_subdir>  (1225) 
/opt/xchem-fragalysis-2/maxwin/BulkDock/SCRATCH/511013/C10054-P114

>  <fragmenstein_runtime>  (1225) 
23.29459047317505

>  <fragmenstein_outcome>  (1225) 
too moved

>  <fragmenstein_mode>  (1225) 
expansion

>  <fragmenstein_error>  (1225) 


$$$$
C10055-P96
     RDKit          3D

 40 41  0  0  0  0  0  0  0  0999 V2000
  -12.3918  -23.1383   30.8400 C   0  0  0  0  0  0  0  0  0  0  0  0
  -13.1067  -22.7330   31.9997 O   0  0  0  0  0  0  0  0  0  0  0  0
  -12.2478  -22.2269   33.0320 C   0  0  0  0  0  0  0  0  0  0  0  0
  -11.7167  -20.8415   32.8186 C   0  0  0  0  0  0  0  0  0  0  0  0
  -11.8923  -19.6834   33.6368 C   0  0  0  0  0  0  0  0  0  0  0  0
  -11.0594  -18.6913   33.1154 C   0  0  0  0  0  0  0  0  0  0  0  0
  -10.7316  -17.2518   33.6337 C   0  0  0  0  0  0  0  0  0  0  0  0
  -11.5792  -16.7677   34.3570 O   0  0  0  0  0  0  0  0  0  0  0  0
   -9.3221  -16.6297   33.1090 N   0  0  0  0  0  0  0  0  0  0  0  0
   -8.5553  -15.1778   33.4925 C   0  0  0  0  0  0  0  0  0  0  0  0
   -7.1136  -15.4483   33.9577 C   0  0  0  0  0  0  0  0  0  0  0  0
   -8.4533  -13.8926   32.4633 C   0  0  0  0  0  0  0  0  0  0  0  0
   -7.2199  -13.5818   31.6250 N   0  0  0  0  0  0  0  0  0  0  0  0
   -7.0932  -13.0880   30.2562 C   0  0  0  0  0  0  0  0  0  0  0  0
   -7.9292  -12.8803   29.4226 O   0  0  0  0  0  0  0  0  0  0  0  0
   -5.7098  -12.6591   29.8088 C   0  0  0  0  0  0  0  0  0  0  0  0
   -4.4285  -12.5502   30.3450 C   0  0  0  0  0  0  0  0  0  0  0  0
   -3.5088  -11.9841   29.4633 N   0  0  0  0  0  0  0  0  0  0  0  0
   -4.1857  -11.7507   28.3675 C   0  0  0  0  0  0  0  0  0  0  0  0
   -5.4891  -12.1371   28.5179 N   0  0  0  0  0  0  0  0  0  0  0  0
  -10.5234  -19.3162   32.0129 N   0  0  0  0  0  0  0  0  0  0  0  0
  -10.8858  -20.5823   31.8039 N   0  0  0  0  0  0  0  0  0  0  0  0
  -11.5212  -23.7493   31.0978 H   0  0  0  0  0  0  0  0  0  0  0  0
  -12.0922  -22.2721   30.2452 H   0  0  0  0  0  0  0  0  0  0  0  0
  -13.0624  -23.7454   30.2257 H   0  0  0  0  0  0  0  0  0  0  0  0
  -11.4233  -22.9279   33.2118 H   0  0  0  0  0  0  0  0  0  0  0  0
  -12.8503  -22.2195   33.9475 H   0  0  0  0  0  0  0  0  0  0  0  0
  -12.4790  -19.5978   34.5415 H   0  0  0  0  0  0  0  0  0  0  0  0
   -8.8130  -17.3341   32.5849 H   0  0  0  0  0  0  0  0  0  0  0  0
   -9.1668  -14.8003   34.3234 H   0  0  0  0  0  0  0  0  0  0  0  0
   -7.0567  -16.0755   34.8457 H   0  0  0  0  0  0  0  0  0  0  0  0
   -6.6093  -14.5123   34.2224 H   0  0  0  0  0  0  0  0  0  0  0  0
   -6.5350  -15.9381   33.1694 H   0  0  0  0  0  0  0  0  0  0  0  0
   -9.3356  -13.7995   31.8265 H   0  0  0  0  0  0  0  0  0  0  0  0
   -8.4948  -13.0147   33.1231 H   0  0  0  0  0  0  0  0  0  0  0  0
   -6.3114  -13.5562   32.0709 H   0  0  0  0  0  0  0  0  0  0  0  0
   -4.1102  -12.8336   31.3402 H   0  0  0  0  0  0  0  0  0  0  0  0
   -3.8029  -11.3158   27.4545 H   0  0  0  0  0  0  0  0  0  0  0  0
   -6.2266  -12.0478   27.8327 H   0  0  0  0  0  0  0  0  0  0  0  0
   -9.9197  -18.8858   31.3325 H   0  0  0  0  0  0  0  0  0  0  0  0
  1  2  1  0
  2  3  1  0
  3  4  1  0
  4  5  1  0
  5  6  2  0
  6  7  1  0
  7  8  2  0
  7  9  1  0
  9 10  1  0
 10 11  1  0
 10 12  1  0
 12 13  1  0
 13 14  1  0
 14 15  2  0
 14 16  1  0
 16 17  2  0
 17 18  1  0
 18 19  2  0
 19 20  1  0
  6 21  1  0
 21 22  1  0
 22  4  2  0
 20 16  1  0
  1 23  1  0
  1 24  1  0
  1 25  1  0
  3 26  1  0
  3 27  1  0
  5 28  1  0
  9 29  1  0
 10 30  1  0
 11 31  1  0
 11 32  1  0
 11 33  1  0
 12 34  1  0
 12 35  1  0
 13 36  1  0
 17 37  1  0
 19 38  1  0
 20 39  1  0
 21 40  1  0
M  END
>  <Energy>  (1226) 
42.383812170204742

>  <compound_id>  (1226) 
10055

>  <target_id>  (1226) 
1

>  <reference_id>  (1226) 
96

>  <inspiration_ids>  (1226) 
[96, 114]

>  <energy_score>  (1226) 
44.00449898863525

>  <distance_score>  (1226) 
15.47449695539403

>  <path>  (1226) 
/opt/xchem-fragalysis-2/maxwin/BulkDock/SCRATCH/511013/C10055-P96/C10055-P96.minimised.mol

>  <scratch_subdir>  (1226) 
/opt/xchem-fragalysis-2/maxwin/BulkDock/SCRATCH/511013/C10055-P96

>  <fragmenstein_runtime>  (1226) 
23.867544889450073

>  <fragmenstein_outcome>  (1226) 
too moved

>  <fragmenstein_mode>  (1226) 
expansion

>  <fragmenstein_error>  (1226) 


$$$$
C10055-P114
     RDKit          3D

 40 41  0  0  0  0  0  0  0  0999 V2000
   -3.1700  -22.8401   26.1125 C   0  0  0  0  0  0  0  0  0  0  0  0
   -2.7081  -21.5004   26.2068 O   0  0  0  0  0  0  0  0  0  0  0  0
   -3.7731  -20.5723   25.9516 C   0  0  0  0  0  0  0  0  0  0  0  0
   -3.3104  -19.1470   26.0376 C   0  0  0  0  0  0  0  0  0  0  0  0
   -2.1410  -18.6438   26.6616 C   0  0  0  0  0  0  0  0  0  0  0  0
   -2.1573  -17.2640   26.4983 C   0  0  0  0  0  0  0  0  0  0  0  0
   -1.3064  -16.2542   27.1433 C   0  0  0  0  0  0  0  0  0  0  0  0
   -1.1081  -16.4401   28.3069 O   0  0  0  0  0  0  0  0  0  0  0  0
   -0.9280  -15.1508   26.2882 N   0  0  0  0  0  0  0  0  0  0  0  0
   -0.2746  -13.8807   26.5986 C   0  0  0  0  0  0  0  0  0  0  0  0
   -1.3622  -12.8650   26.9913 C   0  0  0  0  0  0  0  0  0  0  0  0
    1.1605  -13.2985   26.0827 C   0  0  0  0  0  0  0  0  0  0  0  0
    1.9135  -12.5107   24.6469 N   0  0  0  0  0  0  0  0  0  0  0  0
    2.9181  -12.9457   23.7704 C   0  0  0  0  0  0  0  0  0  0  0  0
    3.4661  -13.9815   23.7051 O   0  0  0  0  0  0  0  0  0  0  0  0
    3.5149  -11.5726   22.6508 C   0  0  0  0  0  0  0  0  0  0  0  0
    3.6475  -10.1285   23.1736 C   0  0  0  0  0  0  0  0  0  0  0  0
    3.0072   -8.6170   22.8911 N   0  0  0  0  0  0  0  0  0  0  0  0
    4.3567   -8.4852   22.9541 C   0  0  0  0  0  0  0  0  0  0  0  0
    4.8488  -10.3900   22.6621 N   0  0  0  0  0  0  0  0  0  0  0  0
   -3.3453  -17.0347   25.8513 N   0  0  0  0  0  0  0  0  0  0  0  0
   -4.0351  -18.1454   25.5160 N   0  0  0  0  0  0  0  0  0  0  0  0
   -3.9429  -23.0240   26.8638 H   0  0  0  0  0  0  0  0  0  0  0  0
   -2.3286  -23.5106   26.3066 H   0  0  0  0  0  0  0  0  0  0  0  0
   -3.5584  -23.0464   25.1106 H   0  0  0  0  0  0  0  0  0  0  0  0
   -4.1649  -20.7623   24.9471 H   0  0  0  0  0  0  0  0  0  0  0  0
   -4.5545  -20.7289   26.6992 H   0  0  0  0  0  0  0  0  0  0  0  0
   -1.3944  -19.2120   27.2012 H   0  0  0  0  0  0  0  0  0  0  0  0
   -1.3349  -15.2879   25.3735 H   0  0  0  0  0  0  0  0  0  0  0  0
    0.0756  -14.1404   27.6142 H   0  0  0  0  0  0  0  0  0  0  0  0
   -1.9721  -13.2645   27.8124 H   0  0  0  0  0  0  0  0  0  0  0  0
   -2.0620  -12.6739   26.1761 H   0  0  0  0  0  0  0  0  0  0  0  0
   -0.9359  -11.9261   27.3522 H   0  0  0  0  0  0  0  0  0  0  0  0
    1.0852  -12.3641   26.6689 H   0  0  0  0  0  0  0  0  0  0  0  0
    1.9380  -13.8265   26.6390 H   0  0  0  0  0  0  0  0  0  0  0  0
    1.6210  -11.6212   24.3747 H   0  0  0  0  0  0  0  0  0  0  0  0
    4.8262   -9.7212   24.0479 H   0  0  0  0  0  0  0  0  0  0  0  0
    4.9635   -7.6557   23.4068 H   0  0  0  0  0  0  0  0  0  0  0  0
    5.7781  -10.6712   22.9853 H   0  0  0  0  0  0  0  0  0  0  0  0
   -3.7715  -16.1377   25.6516 H   0  0  0  0  0  0  0  0  0  0  0  0
  1  2  1  0
  2  3  1  0
  3  4  1  0
  4  5  1  0
  5  6  2  0
  6  7  1  0
  7  8  2  0
  7  9  1  0
  9 10  1  0
 10 11  1  0
 10 12  1  0
 12 13  1  0
 13 14  1  0
 14 15  2  0
 14 16  1  0
 16 17  2  0
 17 18  1  0
 18 19  2  0
 19 20  1  0
  6 21  1  0
 21 22  1  0
 22  4  2  0
 20 16  1  0
  1 23  1  0
  1 24  1  0
  1 25  1  0
  3 26  1  0
  3 27  1  0
  5 28  1  0
  9 29  1  0
 10 30  1  0
 11 31  1  0
 11 32  1  0
 11 33  1  0
 12 34  1  0
 12 35  1  0
 13 36  1  0
 17 37  1  0
 19 38  1  0
 20 39  1  0
 21 40  1  0
M  END
>  <Energy>  (1227) 
594.91070561712456

>  <compound_id>  (1227) 
10055

>  <target_id>  (1227) 
1

>  <reference_id>  (1227) 
114

>  <inspiration_ids>  (1227) 
[96, 114]

>  <energy_score>  (1227) 
596.5313924355578

>  <distance_score>  (1227) 
12.99681810562491

>  <path>  (1227) 
/opt/xchem-fragalysis-2/maxwin/BulkDock/SCRATCH/511013/C10055-P114/C10055-P114.minimised.mol

>  <scratch_subdir>  (1227) 
/opt/xchem-fragalysis-2/maxwin/BulkDock/SCRATCH/511013/C10055-P114

>  <fragmenstein_runtime>  (1227) 
25.73272204399109

>  <fragmenstein_outcome>  (1227) 
too moved

>  <fragmenstein_mode>  (1227) 
expansion

>  <fragmenstein_error>  (1227) 


$$$$
C10056-P96
     RDKit          3D

 36 37  0  0  0  0  0  0  0  0999 V2000
    3.1531  -17.0499   23.6071 C   0  0  0  0  0  0  0  0  0  0  0  0
    1.7315  -16.9074   23.4405 N   0  0  0  0  0  0  0  0  0  0  0  0
    2.7187  -15.3836   22.3940 C   0  0  0  0  0  0  0  0  0  0  0  0
    2.4256  -13.3958   21.5127 C   0  0  0  0  0  0  0  0  0  0  0  0
    2.5255  -11.8516   20.1958 N   0  0  0  0  0  0  0  0  0  0  0  0
    3.7969  -11.4547   18.8302 C   0  0  0  0  0  0  0  0  0  0  0  0
    4.5671  -12.2584   18.6463 O   0  0  0  0  0  0  0  0  0  0  0  0
    4.1576  -10.3153   18.0534 C   0  0  0  0  0  0  0  0  0  0  0  0
    5.6471  -10.4247   18.0592 C   0  0  0  0  0  0  0  0  0  0  0  0
    6.6625   -9.6364   17.1939 N   0  0  0  0  0  0  0  0  0  0  0  0
    5.8205   -8.9730   16.5312 C   0  0  0  0  0  0  0  0  0  0  0  0
    4.6583   -9.6826   16.8800 N   0  0  0  0  0  0  0  0  0  0  0  0
    0.3555  -18.1679   22.7032 C   0  0  0  0  0  0  0  0  0  0  0  0
    0.8914  -19.0751   22.2980 O   0  0  0  0  0  0  0  0  0  0  0  0
   -1.4374  -18.5405   22.5955 C   0  0  0  0  0  0  0  0  0  0  0  0
   -2.3988  -19.1271   23.8833 N   0  0  0  0  0  0  0  0  0  0  0  0
   -3.4179  -19.9453   23.7298 N   0  0  0  0  0  0  0  0  0  0  0  0
   -2.9461  -20.6920   22.7593 C   0  0  0  0  0  0  0  0  0  0  0  0
   -1.6213  -20.2343   22.4948 C   0  0  0  0  0  0  0  0  0  0  0  0
   -0.6638  -21.4700   22.5369 C   0  0  0  0  0  0  0  0  0  0  0  0
    0.3882  -21.5279   21.7044 F   0  0  0  0  0  0  0  0  0  0  0  0
   -1.3751  -22.6007   22.2116 F   0  0  0  0  0  0  0  0  0  0  0  0
   -0.2202  -21.7147   23.7954 F   0  0  0  0  0  0  0  0  0  0  0  0
    3.4594  -16.2637   24.2519 H   0  0  0  0  0  0  0  0  0  0  0  0
    3.5816  -17.8962   24.1463 H   0  0  0  0  0  0  0  0  0  0  0  0
    3.4195  -17.5557   22.6816 H   0  0  0  0  0  0  0  0  0  0  0  0
    3.6296  -15.0845   22.9674 H   0  0  0  0  0  0  0  0  0  0  0  0
    3.2314  -15.9631   21.7504 H   0  0  0  0  0  0  0  0  0  0  0  0
    3.1542  -12.9170   22.1767 H   0  0  0  0  0  0  0  0  0  0  0  0
    1.4222  -13.1032   21.7692 H   0  0  0  0  0  0  0  0  0  0  0  0
    1.8468  -11.1192   20.2210 H   0  0  0  0  0  0  0  0  0  0  0  0
    6.2308  -11.0118   18.7318 H   0  0  0  0  0  0  0  0  0  0  0  0
    5.9264   -8.2208   15.7617 H   0  0  0  0  0  0  0  0  0  0  0  0
    3.8884   -9.1974   16.4718 H   0  0  0  0  0  0  0  0  0  0  0  0
   -2.3126  -18.5796   24.7315 H   0  0  0  0  0  0  0  0  0  0  0  0
   -3.4385  -21.6324   22.5324 H   0  0  0  0  0  0  0  0  0  0  0  0
  1  2  1  0
  2  3  1  0
  3  4  1  0
  4  5  1  0
  5  6  1  0
  6  7  2  0
  6  8  1  0
  8  9  2  0
  9 10  1  0
 10 11  2  0
 11 12  1  0
  2 13  1  0
 13 14  2  0
 13 15  1  0
 15 16  1  0
 16 17  1  0
 17 18  2  0
 18 19  1  0
 19 20  1  0
 20 21  1  0
 20 22  1  0
 20 23  1  0
 12  8  1  0
 19 15  2  0
  1 24  1  0
  1 25  1  0
  1 26  1  0
  3 27  1  0
  3 28  1  0
  4 29  1  0
  4 30  1  0
  5 31  1  0
  9 32  1  0
 11 33  1  0
 12 34  1  0
 16 35  1  0
 18 36  1  0
M  END
>  <Energy>  (1228) 
1089.3539023124679

>  <compound_id>  (1228) 
10056

>  <target_id>  (1228) 
1

>  <reference_id>  (1228) 
96

>  <inspiration_ids>  (1228) 
[96, 114]

>  <energy_score>  (1228) 
1101.5920515812595

>  <distance_score>  (1228) 
11.451599716789028

>  <path>  (1228) 
/opt/xchem-fragalysis-2/maxwin/BulkDock/SCRATCH/511013/C10056-P96/C10056-P96.minimised.mol

>  <scratch_subdir>  (1228) 
/opt/xchem-fragalysis-2/maxwin/BulkDock/SCRATCH/511013/C10056-P96

>  <fragmenstein_runtime>  (1228) 
15.275920867919922

>  <fragmenstein_outcome>  (1228) 
too moved

>  <fragmenstein_mode>  (1228) 
expansion

>  <fragmenstein_error>  (1228) 


$$$$
C10056-P114
     RDKit          3D

 36 37  0  0  0  0  0  0  0  0999 V2000
   -0.2821  -14.5670   22.4812 C   0  0  0  0  0  0  0  0  0  0  0  0
   -0.8113  -14.1431   23.7950 N   0  0  0  0  0  0  0  0  0  0  0  0
    1.0068  -14.1053   23.9434 C   0  0  0  0  0  0  0  0  0  0  0  0
    2.4996  -12.7479   23.5368 C   0  0  0  0  0  0  0  0  0  0  0  0
    3.8699  -12.0537   22.4611 N   0  0  0  0  0  0  0  0  0  0  0  0
    4.3560  -12.4496   21.1031 C   0  0  0  0  0  0  0  0  0  0  0  0
    3.9347  -13.2310   20.3481 O   0  0  0  0  0  0  0  0  0  0  0  0
    5.7698  -11.7640   20.6703 C   0  0  0  0  0  0  0  0  0  0  0  0
    6.3286  -11.2618   19.5311 C   0  0  0  0  0  0  0  0  0  0  0  0
    7.6183  -10.6869   19.6787 N   0  0  0  0  0  0  0  0  0  0  0  0
    8.0495  -11.1746   20.7880 C   0  0  0  0  0  0  0  0  0  0  0  0
    7.0589  -11.9875   21.2363 N   0  0  0  0  0  0  0  0  0  0  0  0
   -1.9539  -15.0311   24.8378 C   0  0  0  0  0  0  0  0  0  0  0  0
   -2.3953  -16.1124   24.7291 O   0  0  0  0  0  0  0  0  0  0  0  0
   -2.6130  -14.3464   25.9958 C   0  0  0  0  0  0  0  0  0  0  0  0
   -3.5892  -13.3614   25.7803 N   0  0  0  0  0  0  0  0  0  0  0  0
   -4.5763  -13.2878   26.6890 N   0  0  0  0  0  0  0  0  0  0  0  0
   -4.3565  -14.3165   27.4903 C   0  0  0  0  0  0  0  0  0  0  0  0
   -3.2031  -15.0450   27.1250 C   0  0  0  0  0  0  0  0  0  0  0  0
   -2.8947  -16.3380   27.8047 C   0  0  0  0  0  0  0  0  0  0  0  0
   -2.8332  -17.4055   26.9736 F   0  0  0  0  0  0  0  0  0  0  0  0
   -3.8529  -16.6506   28.7247 F   0  0  0  0  0  0  0  0  0  0  0  0
   -1.7324  -16.2857   28.5022 F   0  0  0  0  0  0  0  0  0  0  0  0
   -1.2394  -14.7121   21.9769 H   0  0  0  0  0  0  0  0  0  0  0  0
    0.6155  -14.8568   22.0455 H   0  0  0  0  0  0  0  0  0  0  0  0
   -0.4024  -15.6412   22.1313 H   0  0  0  0  0  0  0  0  0  0  0  0
    0.9658  -13.8678   25.0466 H   0  0  0  0  0  0  0  0  0  0  0  0
    1.5990  -14.8767   23.4880 H   0  0  0  0  0  0  0  0  0  0  0  0
    2.1150  -11.8973   24.0310 H   0  0  0  0  0  0  0  0  0  0  0  0
    3.2027  -13.2978   24.1548 H   0  0  0  0  0  0  0  0  0  0  0  0
    4.4189  -11.2932   22.7934 H   0  0  0  0  0  0  0  0  0  0  0  0
    5.8268  -11.1568   18.6109 H   0  0  0  0  0  0  0  0  0  0  0  0
    9.0338  -11.0881   21.2271 H   0  0  0  0  0  0  0  0  0  0  0  0
    7.3295  -12.9298   21.1432 H   0  0  0  0  0  0  0  0  0  0  0  0
   -3.6444  -12.7055   25.0099 H   0  0  0  0  0  0  0  0  0  0  0  0
   -5.0600  -14.5203   28.2900 H   0  0  0  0  0  0  0  0  0  0  0  0
  1  2  1  0
  2  3  1  0
  3  4  1  0
  4  5  1  0
  5  6  1  0
  6  7  2  0
  6  8  1  0
  8  9  2  0
  9 10  1  0
 10 11  2  0
 11 12  1  0
  2 13  1  0
 13 14  2  0
 13 15  1  0
 15 16  1  0
 16 17  1  0
 17 18  2  0
 18 19  1  0
 19 20  1  0
 20 21  1  0
 20 22  1  0
 20 23  1  0
 12  8  1  0
 19 15  2  0
  1 24  1  0
  1 25  1  0
  1 26  1  0
  3 27  1  0
  3 28  1  0
  4 29  1  0
  4 30  1  0
  5 31  1  0
  9 32  1  0
 11 33  1  0
 12 34  1  0
 16 35  1  0
 18 36  1  0
M  END
>  <Energy>  (1229) 
441.86488488327416

>  <compound_id>  (1229) 
10056

>  <target_id>  (1229) 
1

>  <reference_id>  (1229) 
114

>  <inspiration_ids>  (1229) 
[96, 114]

>  <energy_score>  (1229) 
454.103034152061

>  <distance_score>  (1229) 
12.462534866672799

>  <path>  (1229) 
/opt/xchem-fragalysis-2/maxwin/BulkDock/SCRATCH/511013/C10056-P114/C10056-P114.minimised.mol

>  <scratch_subdir>  (1229) 
/opt/xchem-fragalysis-2/maxwin/BulkDock/SCRATCH/511013/C10056-P114

>  <fragmenstein_runtime>  (1229) 
18.714951992034912

>  <fragmenstein_outcome>  (1229) 
too moved

>  <fragmenstein_mode>  (1229) 
expansion

>  <fragmenstein_error>  (1229) 


$$$$
C10057-P96
     RDKit          3D

 39 40  0  0  0  0  0  0  0  0999 V2000
    2.2883  -11.5750   21.3352 C   0  0  0  0  0  0  0  0  0  0  0  0
    2.3021  -11.1458   22.6120 N   0  0  0  0  0  0  0  0  0  0  0  0
    0.8596  -11.6225   22.5514 C   0  0  0  0  0  0  0  0  0  0  0  0
   -0.9336  -12.6804   22.8087 C   0  0  0  0  0  0  0  0  0  0  0  0
   -2.2952  -13.1091   24.1358 N   0  0  0  0  0  0  0  0  0  0  0  0
   -2.6720  -11.7980   23.8431 C   0  0  0  0  0  0  0  0  0  0  0  0
   -3.0446  -14.6811   23.7962 C   0  0  0  0  0  0  0  0  0  0  0  0
   -3.9885  -14.5357   23.1101 O   0  0  0  0  0  0  0  0  0  0  0  0
   -2.7460  -16.5600   24.4472 C   0  0  0  0  0  0  0  0  0  0  0  0
   -3.8988  -18.3240   24.2332 C   0  0  0  0  0  0  0  0  0  0  0  0
   -3.4528  -19.4817   23.5757 C   0  0  0  0  0  0  0  0  0  0  0  0
   -2.2159  -18.9414   23.6391 N   0  0  0  0  0  0  0  0  0  0  0  0
   -2.0743  -17.5926   24.9469 N   0  0  0  0  0  0  0  0  0  0  0  0
    3.6387  -11.7803   23.4544 C   0  0  0  0  0  0  0  0  0  0  0  0
    3.7263  -12.7880   24.0917 O   0  0  0  0  0  0  0  0  0  0  0  0
    5.1754  -10.5432   23.4442 C   0  0  0  0  0  0  0  0  0  0  0  0
    5.6144   -9.1600   24.0314 C   0  0  0  0  0  0  0  0  0  0  0  0
    5.4972   -8.4132   25.1851 C   0  0  0  0  0  0  0  0  0  0  0  0
    6.0791   -7.1646   25.0473 N   0  0  0  0  0  0  0  0  0  0  0  0
    6.6533   -7.1629   23.8709 C   0  0  0  0  0  0  0  0  0  0  0  0
    6.4623   -8.3555   23.2467 N   0  0  0  0  0  0  0  0  0  0  0  0
    2.8217  -10.9055   20.6635 H   0  0  0  0  0  0  0  0  0  0  0  0
    1.6614  -10.8198   20.8473 H   0  0  0  0  0  0  0  0  0  0  0  0
    2.3569  -12.6544   21.2054 H   0  0  0  0  0  0  0  0  0  0  0  0
    0.7718  -11.3775   23.6739 H   0  0  0  0  0  0  0  0  0  0  0  0
    0.6977  -10.5870   22.0903 H   0  0  0  0  0  0  0  0  0  0  0  0
   -1.2734  -12.9658   21.8246 H   0  0  0  0  0  0  0  0  0  0  0  0
   -0.1951  -13.2521   23.0843 H   0  0  0  0  0  0  0  0  0  0  0  0
   -3.3445  -11.8769   24.6613 H   0  0  0  0  0  0  0  0  0  0  0  0
   -3.5610  -11.3066   23.4070 H   0  0  0  0  0  0  0  0  0  0  0  0
   -2.0752  -10.9849   23.9641 H   0  0  0  0  0  0  0  0  0  0  0  0
   -5.0061  -18.3603   24.2236 H   0  0  0  0  0  0  0  0  0  0  0  0
   -3.8092  -20.4235   23.1808 H   0  0  0  0  0  0  0  0  0  0  0  0
   -1.3286  -19.1693   23.2002 H   0  0  0  0  0  0  0  0  0  0  0  0
    6.0481  -11.0317   23.8889 H   0  0  0  0  0  0  0  0  0  0  0  0
    5.4524  -10.2828   22.4214 H   0  0  0  0  0  0  0  0  0  0  0  0
    4.9868   -8.6779   26.1024 H   0  0  0  0  0  0  0  0  0  0  0  0
    7.2143   -6.3496   23.4313 H   0  0  0  0  0  0  0  0  0  0  0  0
    6.8035   -8.5868   22.3255 H   0  0  0  0  0  0  0  0  0  0  0  0
  1  2  1  0
  2  3  1  0
  3  4  1  0
  4  5  1  0
  5  6  1  0
  5  7  1  0
  7  8  2  0
  7  9  1  0
  9 10  1  0
 10 11  2  0
 11 12  1  0
 12 13  1  0
  2 14  1  0
 14 15  2  0
 14 16  1  0
 16 17  1  0
 17 18  2  0
 18 19  1  0
 19 20  2  0
 20 21  1  0
 13  9  2  0
 21 17  1  0
  1 22  1  0
  1 23  1  0
  1 24  1  0
  3 25  1  0
  3 26  1  0
  4 27  1  0
  4 28  1  0
  6 29  1  0
  6 30  1  0
  6 31  1  0
 10 32  1  0
 11 33  1  0
 12 34  1  0
 16 35  1  0
 16 36  1  0
 18 37  1  0
 20 38  1  0
 21 39  1  0
M  END
>  <Energy>  (1230) 
1081.3767328348308

>  <compound_id>  (1230) 
10057

>  <target_id>  (1230) 
1

>  <reference_id>  (1230) 
96

>  <inspiration_ids>  (1230) 
[96, 114]

>  <energy_score>  (1230) 
985.5472832471185

>  <distance_score>  (1230) 
12.03243556122684

>  <path>  (1230) 
/opt/xchem-fragalysis-2/maxwin/BulkDock/SCRATCH/511013/C10057-P96/C10057-P96.minimised.mol

>  <scratch_subdir>  (1230) 
/opt/xchem-fragalysis-2/maxwin/BulkDock/SCRATCH/511013/C10057-P96

>  <fragmenstein_runtime>  (1230) 
17.825212001800537

>  <fragmenstein_outcome>  (1230) 
too moved

>  <fragmenstein_mode>  (1230) 
expansion

>  <fragmenstein_error>  (1230) 


$$$$
C10057-P114
     RDKit          3D

 39 40  0  0  0  0  0  0  0  0999 V2000
   -3.5873  -12.2888   20.1805 C   0  0  0  0  0  0  0  0  0  0  0  0
   -2.2253  -12.2976   19.7915 N   0  0  0  0  0  0  0  0  0  0  0  0
   -2.2363  -14.1673   20.6164 C   0  0  0  0  0  0  0  0  0  0  0  0
   -2.9963  -16.0761   20.6966 C   0  0  0  0  0  0  0  0  0  0  0  0
   -4.5968  -15.9859   21.6458 N   0  0  0  0  0  0  0  0  0  0  0  0
   -3.4492  -15.6675   23.1673 C   0  0  0  0  0  0  0  0  0  0  0  0
   -5.6426  -17.4396   21.2712 C   0  0  0  0  0  0  0  0  0  0  0  0
   -5.7326  -18.5331   21.8442 O   0  0  0  0  0  0  0  0  0  0  0  0
   -6.6570  -17.3510   20.1869 C   0  0  0  0  0  0  0  0  0  0  0  0
   -8.0535  -17.4868   20.4945 C   0  0  0  0  0  0  0  0  0  0  0  0
   -8.6575  -17.8193   19.3144 C   0  0  0  0  0  0  0  0  0  0  0  0
   -7.6503  -17.8808   18.3985 N   0  0  0  0  0  0  0  0  0  0  0  0
   -6.4317  -17.5743   18.8855 N   0  0  0  0  0  0  0  0  0  0  0  0
   -1.5730  -11.0002   20.2684 C   0  0  0  0  0  0  0  0  0  0  0  0
   -0.9919  -10.7468   21.2937 O   0  0  0  0  0  0  0  0  0  0  0  0
   -1.9495   -9.8262   19.0354 C   0  0  0  0  0  0  0  0  0  0  0  0
   -1.1001   -8.6044   18.4675 C   0  0  0  0  0  0  0  0  0  0  0  0
   -1.3299   -7.7721   17.3738 C   0  0  0  0  0  0  0  0  0  0  0  0
   -0.2368   -6.9886   17.0593 N   0  0  0  0  0  0  0  0  0  0  0  0
    0.6694   -7.3019   17.9519 C   0  0  0  0  0  0  0  0  0  0  0  0
    0.1738   -8.2056   18.8487 N   0  0  0  0  0  0  0  0  0  0  0  0
   -3.7160  -11.5288   19.3625 H   0  0  0  0  0  0  0  0  0  0  0  0
   -3.7131  -11.4355   20.8541 H   0  0  0  0  0  0  0  0  0  0  0  0
   -4.5508  -12.4573   19.7072 H   0  0  0  0  0  0  0  0  0  0  0  0
   -1.8142  -14.6318   19.6867 H   0  0  0  0  0  0  0  0  0  0  0  0
   -1.6200  -14.4611   21.3980 H   0  0  0  0  0  0  0  0  0  0  0  0
   -2.3943  -17.0144   20.6294 H   0  0  0  0  0  0  0  0  0  0  0  0
   -3.2290  -16.2700   19.6414 H   0  0  0  0  0  0  0  0  0  0  0  0
   -2.6312  -14.9860   23.1418 H   0  0  0  0  0  0  0  0  0  0  0  0
   -3.2949  -15.8879   24.2575 H   0  0  0  0  0  0  0  0  0  0  0  0
   -4.2647  -15.0316   23.5567 H   0  0  0  0  0  0  0  0  0  0  0  0
   -8.5030  -17.4519   21.4770 H   0  0  0  0  0  0  0  0  0  0  0  0
   -9.6771  -18.0651   19.0551 H   0  0  0  0  0  0  0  0  0  0  0  0
   -7.7181  -18.1377   17.4189 H   0  0  0  0  0  0  0  0  0  0  0  0
   -2.2244  -10.4115   18.1464 H   0  0  0  0  0  0  0  0  0  0  0  0
   -2.8747   -9.3650   19.4106 H   0  0  0  0  0  0  0  0  0  0  0  0
   -2.2207   -7.7397   16.7599 H   0  0  0  0  0  0  0  0  0  0  0  0
    1.6777   -6.9175   18.0075 H   0  0  0  0  0  0  0  0  0  0  0  0
    0.6904   -8.7054   19.5588 H   0  0  0  0  0  0  0  0  0  0  0  0
  1  2  1  0
  2  3  1  0
  3  4  1  0
  4  5  1  0
  5  6  1  0
  5  7  1  0
  7  8  2  0
  7  9  1  0
  9 10  1  0
 10 11  2  0
 11 12  1  0
 12 13  1  0
  2 14  1  0
 14 15  2  0
 14 16  1  0
 16 17  1  0
 17 18  2  0
 18 19  1  0
 19 20  2  0
 20 21  1  0
 13  9  2  0
 21 17  1  0
  1 22  1  0
  1 23  1  0
  1 24  1  0
  3 25  1  0
  3 26  1  0
  4 27  1  0
  4 28  1  0
  6 29  1  0
  6 30  1  0
  6 31  1  0
 10 32  1  0
 11 33  1  0
 12 34  1  0
 16 35  1  0
 16 36  1  0
 18 37  1  0
 20 38  1  0
 21 39  1  0
M  END
>  <Energy>  (1231) 
656.29055405191707

>  <compound_id>  (1231) 
10057

>  <target_id>  (1231) 
1

>  <reference_id>  (1231) 
114

>  <inspiration_ids>  (1231) 
[96, 114]

>  <energy_score>  (1231) 
560.4611044641948

>  <distance_score>  (1231) 
13.387372386647105

>  <path>  (1231) 
/opt/xchem-fragalysis-2/maxwin/BulkDock/SCRATCH/511013/C10057-P114/C10057-P114.minimised.mol

>  <scratch_subdir>  (1231) 
/opt/xchem-fragalysis-2/maxwin/BulkDock/SCRATCH/511013/C10057-P114

>  <fragmenstein_runtime>  (1231) 
17.769019603729248

>  <fragmenstein_outcome>  (1231) 
too moved

>  <fragmenstein_mode>  (1231) 
expansion

>  <fragmenstein_error>  (1231) 


$$$$
C10058-P96
     RDKit          3D

 44 48  0  0  0  0  0  0  0  0999 V2000
    2.2752  -12.8293   20.8693 O   0  0  0  0  0  0  0  0  0  0  0  0
    2.2202  -12.9047   19.6099 C   0  0  0  0  0  0  0  0  0  0  0  0
    1.2545  -13.9640   18.5727 N   0  0  0  0  0  0  0  0  0  0  0  0
   -0.0980  -15.2314   18.9669 C   0  0  0  0  0  0  0  0  0  0  0  0
   -1.1994  -15.4535   20.0360 C   0  0  0  0  0  0  0  0  0  0  0  0
   -1.7436  -16.7248   19.9999 C   0  0  0  0  0  0  0  0  0  0  0  0
   -2.4201  -17.4584   21.1308 C   0  0  0  0  0  0  0  0  0  0  0  0
   -3.8435  -16.6186   21.7902 C   0  0  0  0  0  0  0  0  0  0  0  0
   -5.0489  -17.8379   22.5763 C   0  0  0  0  0  0  0  0  0  0  0  0
   -4.8517  -19.6556   22.2418 C   0  0  0  0  0  0  0  0  0  0  0  0
   -3.0633  -20.1648   22.2929 C   0  0  0  0  0  0  0  0  0  0  0  0
   -2.7978  -19.7029   23.6466 C   0  0  0  0  0  0  0  0  0  0  0  0
   -3.1878  -18.3428   23.1045 C   0  0  0  0  0  0  0  0  0  0  0  0
   -4.3912  -17.8355   23.8740 C   0  0  0  0  0  0  0  0  0  0  0  0
   -3.4850  -18.3544   21.1063 C   0  0  0  0  0  0  0  0  0  0  0  0
   -1.7617  -19.0571   21.4917 C   0  0  0  0  0  0  0  0  0  0  0  0
   -1.3032  -17.1144   18.7653 N   0  0  0  0  0  0  0  0  0  0  0  0
   -0.5345  -16.1762   18.0630 N   0  0  0  0  0  0  0  0  0  0  0  0
    3.2057  -11.7980   18.4204 C   0  0  0  0  0  0  0  0  0  0  0  0
    4.2735  -10.8691   18.2978 C   0  0  0  0  0  0  0  0  0  0  0  0
    4.7016  -10.5874   17.0076 N   0  0  0  0  0  0  0  0  0  0  0  0
    4.0056  -11.3766   16.2329 C   0  0  0  0  0  0  0  0  0  0  0  0
    3.2877  -12.2095   16.9900 N   0  0  0  0  0  0  0  0  0  0  0  0
    1.5123  -13.8246   17.6030 H   0  0  0  0  0  0  0  0  0  0  0  0
   -1.5202  -14.7484   20.7809 H   0  0  0  0  0  0  0  0  0  0  0  0
   -3.5291  -15.8614   22.5224 H   0  0  0  0  0  0  0  0  0  0  0  0
   -4.3882  -16.0949   20.9852 H   0  0  0  0  0  0  0  0  0  0  0  0
   -6.0837  -17.4931   22.5347 H   0  0  0  0  0  0  0  0  0  0  0  0
   -5.3766  -20.2012   23.0365 H   0  0  0  0  0  0  0  0  0  0  0  0
   -5.2922  -19.9128   21.2697 H   0  0  0  0  0  0  0  0  0  0  0  0
   -2.9023  -21.2232   22.0801 H   0  0  0  0  0  0  0  0  0  0  0  0
   -3.4445  -20.1380   24.4121 H   0  0  0  0  0  0  0  0  0  0  0  0
   -1.7543  -19.7814   23.9610 H   0  0  0  0  0  0  0  0  0  0  0  0
   -2.3516  -17.6619   23.3696 H   0  0  0  0  0  0  0  0  0  0  0  0
   -4.2585  -16.8460   24.3185 H   0  0  0  0  0  0  0  0  0  0  0  0
   -4.8325  -18.5108   24.6106 H   0  0  0  0  0  0  0  0  0  0  0  0
   -4.4285  -18.0288   20.5932 H   0  0  0  0  0  0  0  0  0  0  0  0
   -3.3869  -19.2571   20.4465 H   0  0  0  0  0  0  0  0  0  0  0  0
   -1.4352  -19.5617   20.5659 H   0  0  0  0  0  0  0  0  0  0  0  0
   -0.8815  -18.9647   22.1436 H   0  0  0  0  0  0  0  0  0  0  0  0
   -1.4864  -17.9962   18.2990 H   0  0  0  0  0  0  0  0  0  0  0  0
    4.7993  -10.2162   18.9457 H   0  0  0  0  0  0  0  0  0  0  0  0
    4.0159  -11.3991   15.1508 H   0  0  0  0  0  0  0  0  0  0  0  0
    2.9215  -13.0922   16.6876 H   0  0  0  0  0  0  0  0  0  0  0  0
  1  2  2  0
  2  3  1  0
  3  4  1  0
  4  5  1  0
  5  6  2  0
  6  7  1  0
  7  8  1  0
  8  9  1  0
  9 10  1  0
 10 11  1  0
 11 12  1  0
 12 13  1  0
 13 14  1  0
 13 15  1  0
 11 16  1  0
  6 17  1  0
 17 18  1  0
  2 19  1  0
 19 20  2  0
 20 21  1  0
 21 22  2  0
 22 23  1  0
 18  4  2  0
 23 19  1  0
 15  7  1  0
 16  7  1  0
 14  9  1  0
  3 24  1  0
  5 25  1  0
  8 26  1  0
  8 27  1  0
  9 28  1  0
 10 29  1  0
 10 30  1  0
 11 31  1  0
 12 32  1  0
 12 33  1  0
 13 34  1  0
 14 35  1  0
 14 36  1  0
 15 37  1  0
 15 38  1  0
 16 39  1  0
 16 40  1  0
 17 41  1  0
 20 42  1  0
 22 43  1  0
 23 44  1  0
M  END
>  <Energy>  (1232) 
686.66990650866194

>  <compound_id>  (1232) 
10058

>  <target_id>  (1232) 
1

>  <reference_id>  (1232) 
96

>  <inspiration_ids>  (1232) 
[96, 114]

>  <energy_score>  (1232) 
659.0384040200886

>  <distance_score>  (1232) 
14.222621431838407

>  <path>  (1232) 
/opt/xchem-fragalysis-2/maxwin/BulkDock/SCRATCH/511013/C10058-P96/C10058-P96.minimised.mol

>  <scratch_subdir>  (1232) 
/opt/xchem-fragalysis-2/maxwin/BulkDock/SCRATCH/511013/C10058-P96

>  <fragmenstein_runtime>  (1232) 
27.864738941192627

>  <fragmenstein_outcome>  (1232) 
too moved

>  <fragmenstein_mode>  (1232) 
expansion

>  <fragmenstein_error>  (1232) 


$$$$
C10058-P114
     RDKit          3D

 44 48  0  0  0  0  0  0  0  0999 V2000
   -4.4080  -19.5038   25.5255 O   0  0  0  0  0  0  0  0  0  0  0  0
   -3.9062  -20.4382   24.9578 C   0  0  0  0  0  0  0  0  0  0  0  0
   -4.1570  -21.8940   25.0917 N   0  0  0  0  0  0  0  0  0  0  0  0
   -5.1419  -22.6225   25.8697 C   0  0  0  0  0  0  0  0  0  0  0  0
   -6.0555  -22.5289   27.1606 C   0  0  0  0  0  0  0  0  0  0  0  0
   -7.4726  -22.9402   26.9528 C   0  0  0  0  0  0  0  0  0  0  0  0
   -9.1680  -23.4993   27.8030 C   0  0  0  0  0  0  0  0  0  0  0  0
  -10.3294  -22.3805   28.2513 C   0  0  0  0  0  0  0  0  0  0  0  0
  -11.6874  -22.9671   28.5265 C   0  0  0  0  0  0  0  0  0  0  0  0
  -12.1073  -23.5864   27.1733 C   0  0  0  0  0  0  0  0  0  0  0  0
  -11.4175  -24.8807   27.0294 C   0  0  0  0  0  0  0  0  0  0  0  0
  -11.4829  -25.8004   28.2427 C   0  0  0  0  0  0  0  0  0  0  0  0
  -10.7348  -25.1191   29.3839 C   0  0  0  0  0  0  0  0  0  0  0  0
  -11.5692  -23.9008   29.7292 C   0  0  0  0  0  0  0  0  0  0  0  0
   -9.2644  -24.7194   28.9938 C   0  0  0  0  0  0  0  0  0  0  0  0
  -10.0044  -24.4431   26.8006 C   0  0  0  0  0  0  0  0  0  0  0  0
   -7.0625  -23.4542   25.5428 N   0  0  0  0  0  0  0  0  0  0  0  0
   -5.7414  -23.5379   25.1467 N   0  0  0  0  0  0  0  0  0  0  0  0
   -2.7827  -19.9802   24.0589 C   0  0  0  0  0  0  0  0  0  0  0  0
   -1.8004  -20.5369   23.2506 C   0  0  0  0  0  0  0  0  0  0  0  0
   -0.9583  -19.5865   22.6817 N   0  0  0  0  0  0  0  0  0  0  0  0
   -1.3890  -18.4292   23.1164 C   0  0  0  0  0  0  0  0  0  0  0  0
   -2.4746  -18.6056   23.9270 N   0  0  0  0  0  0  0  0  0  0  0  0
   -3.6150  -22.3891   24.3978 H   0  0  0  0  0  0  0  0  0  0  0  0
   -5.7486  -21.9018   27.9370 H   0  0  0  0  0  0  0  0  0  0  0  0
  -10.1321  -21.7296   29.0827 H   0  0  0  0  0  0  0  0  0  0  0  0
  -10.6275  -21.6574   27.5006 H   0  0  0  0  0  0  0  0  0  0  0  0
  -12.3414  -22.1276   28.7862 H   0  0  0  0  0  0  0  0  0  0  0  0
  -11.8527  -22.9097   26.3496 H   0  0  0  0  0  0  0  0  0  0  0  0
  -13.1329  -23.7985   26.9145 H   0  0  0  0  0  0  0  0  0  0  0  0
  -11.7921  -25.4274   26.1539 H   0  0  0  0  0  0  0  0  0  0  0  0
  -11.0171  -26.7640   28.0162 H   0  0  0  0  0  0  0  0  0  0  0  0
  -12.5242  -26.0171   28.5107 H   0  0  0  0  0  0  0  0  0  0  0  0
  -10.7000  -25.8003   30.2429 H   0  0  0  0  0  0  0  0  0  0  0  0
  -11.1799  -23.3807   30.6097 H   0  0  0  0  0  0  0  0  0  0  0  0
  -12.5552  -24.2402   30.0176 H   0  0  0  0  0  0  0  0  0  0  0  0
   -8.8136  -24.5387   29.9533 H   0  0  0  0  0  0  0  0  0  0  0  0
   -8.7548  -25.6345   28.6742 H   0  0  0  0  0  0  0  0  0  0  0  0
   -9.6252  -25.4371   26.9900 H   0  0  0  0  0  0  0  0  0  0  0  0
   -9.9931  -24.1429   25.7578 H   0  0  0  0  0  0  0  0  0  0  0  0
   -7.6757  -23.8874   24.8646 H   0  0  0  0  0  0  0  0  0  0  0  0
   -1.6345  -21.5874   23.0466 H   0  0  0  0  0  0  0  0  0  0  0  0
   -0.9656  -17.4586   22.8889 H   0  0  0  0  0  0  0  0  0  0  0  0
   -2.9891  -17.8776   24.4043 H   0  0  0  0  0  0  0  0  0  0  0  0
  1  2  2  0
  2  3  1  0
  3  4  1  0
  4  5  1  0
  5  6  2  0
  6  7  1  0
  7  8  1  0
  8  9  1  0
  9 10  1  0
 10 11  1  0
 11 12  1  0
 12 13  1  0
 13 14  1  0
 13 15  1  0
 11 16  1  0
  6 17  1  0
 17 18  1  0
  2 19  1  0
 19 20  2  0
 20 21  1  0
 21 22  2  0
 22 23  1  0
 18  4  2  0
 23 19  1  0
 15  7  1  0
 16  7  1  0
 14  9  1  0
  3 24  1  0
  5 25  1  0
  8 26  1  0
  8 27  1  0
  9 28  1  0
 10 29  1  0
 10 30  1  0
 11 31  1  0
 12 32  1  0
 12 33  1  0
 13 34  1  0
 14 35  1  0
 14 36  1  0
 15 37  1  0
 15 38  1  0
 16 39  1  0
 16 40  1  0
 17 41  1  0
 20 42  1  0
 22 43  1  0
 23 44  1  0
M  END
>  <Energy>  (1233) 
200.24532429966075

>  <compound_id>  (1233) 
10058

>  <target_id>  (1233) 
1

>  <reference_id>  (1233) 
114

>  <inspiration_ids>  (1233) 
[96, 114]

>  <energy_score>  (1233) 
172.6138218110899

>  <distance_score>  (1233) 
14.84085095188627

>  <path>  (1233) 
/opt/xchem-fragalysis-2/maxwin/BulkDock/SCRATCH/511013/C10058-P114/C10058-P114.minimised.mol

>  <scratch_subdir>  (1233) 
/opt/xchem-fragalysis-2/maxwin/BulkDock/SCRATCH/511013/C10058-P114

>  <fragmenstein_runtime>  (1233) 
32.95336294174194

>  <fragmenstein_outcome>  (1233) 
too moved

>  <fragmenstein_mode>  (1233) 
expansion

>  <fragmenstein_error>  (1233) 


$$$$
C10059-P96
     RDKit          3D

 43 45  0  0  0  0  0  0  0  0999 V2000
   -2.7333  -12.7833   24.2141 C   0  0  0  0  0  0  0  0  0  0  0  0
   -2.7821  -13.9429   23.1019 C   0  0  0  0  0  0  0  0  0  0  0  0
   -1.1215  -12.9053   22.2293 C   0  0  0  0  0  0  0  0  0  0  0  0
    0.6323  -11.9017   22.1456 N   0  0  0  0  0  0  0  0  0  0  0  0
    2.1691  -12.3591   21.6335 C   0  0  0  0  0  0  0  0  0  0  0  0
    2.5761  -13.4162   21.2865 O   0  0  0  0  0  0  0  0  0  0  0  0
    3.2055  -11.3427   21.4454 C   0  0  0  0  0  0  0  0  0  0  0  0
    4.5845  -11.4107   21.6734 C   0  0  0  0  0  0  0  0  0  0  0  0
    5.3099  -10.5910   20.8185 N   0  0  0  0  0  0  0  0  0  0  0  0
    4.4299  -10.1350   19.9600 C   0  0  0  0  0  0  0  0  0  0  0  0
    3.1636  -10.5320   20.3001 N   0  0  0  0  0  0  0  0  0  0  0  0
   -4.8081  -14.4230   22.6711 C   0  0  0  0  0  0  0  0  0  0  0  0
   -6.0604  -16.2296   22.5645 N   0  0  0  0  0  0  0  0  0  0  0  0
   -6.4599  -17.2162   21.2441 C   0  0  0  0  0  0  0  0  0  0  0  0
   -6.0619  -17.1669   20.0876 O   0  0  0  0  0  0  0  0  0  0  0  0
   -7.6211  -18.3581   21.3932 C   0  0  0  0  0  0  0  0  0  0  0  0
   -7.2378  -19.9594   21.4589 C   0  0  0  0  0  0  0  0  0  0  0  0
   -6.3208  -20.6437   20.6406 C   0  0  0  0  0  0  0  0  0  0  0  0
   -6.5904  -21.9833   20.8256 C   0  0  0  0  0  0  0  0  0  0  0  0
   -7.6844  -22.0382   21.6331 N   0  0  0  0  0  0  0  0  0  0  0  0
   -8.0814  -20.8310   22.0386 N   0  0  0  0  0  0  0  0  0  0  0  0
   -8.6124  -18.1954   20.1698 C   0  0  0  0  0  0  0  0  0  0  0  0
   -9.1462  -18.1472   21.5353 C   0  0  0  0  0  0  0  0  0  0  0  0
   -2.5510  -13.0880   25.2444 H   0  0  0  0  0  0  0  0  0  0  0  0
   -1.9135  -12.2061   23.9106 H   0  0  0  0  0  0  0  0  0  0  0  0
   -3.2657  -11.8212   24.1880 H   0  0  0  0  0  0  0  0  0  0  0  0
   -2.8831  -13.9531   22.0574 H   0  0  0  0  0  0  0  0  0  0  0  0
   -0.5927  -13.1432   23.0558 H   0  0  0  0  0  0  0  0  0  0  0  0
   -1.1170  -13.2389   21.1792 H   0  0  0  0  0  0  0  0  0  0  0  0
    0.6429  -10.9307   22.4522 H   0  0  0  0  0  0  0  0  0  0  0  0
    5.0901  -12.0714   22.3662 H   0  0  0  0  0  0  0  0  0  0  0  0
    4.6396   -9.5346   19.0854 H   0  0  0  0  0  0  0  0  0  0  0  0
    2.3464  -10.4616   19.7116 H   0  0  0  0  0  0  0  0  0  0  0  0
   -5.4186  -13.6132   22.3239 H   0  0  0  0  0  0  0  0  0  0  0  0
   -4.4116  -14.7955   21.7431 H   0  0  0  0  0  0  0  0  0  0  0  0
   -6.6149  -16.4832   23.3362 H   0  0  0  0  0  0  0  0  0  0  0  0
   -5.5867  -20.2109   19.9761 H   0  0  0  0  0  0  0  0  0  0  0  0
   -6.1578  -22.8763   20.4007 H   0  0  0  0  0  0  0  0  0  0  0  0
   -8.2556  -22.8451   21.8881 H   0  0  0  0  0  0  0  0  0  0  0  0
   -8.8250  -19.0657   19.5602 H   0  0  0  0  0  0  0  0  0  0  0  0
   -8.5778  -17.2694   19.6072 H   0  0  0  0  0  0  0  0  0  0  0  0
   -9.7546  -18.9840   21.8664 H   0  0  0  0  0  0  0  0  0  0  0  0
   -9.6013  -17.2257   21.8287 H   0  0  0  0  0  0  0  0  0  0  0  0
  1  2  1  0
  2  3  1  0
  3  4  1  0
  4  5  1  0
  5  6  2  0
  5  7  1  0
  7  8  2  0
  8  9  1  0
  9 10  2  0
 10 11  1  0
  2 12  1  0
 12 13  1  0
 13 14  1  0
 14 15  2  0
 14 16  1  0
 16 17  1  0
 17 18  1  0
 18 19  2  0
 19 20  1  0
 20 21  1  0
 16 22  1  0
 22 23  1  0
 11  7  1  0
 23 16  1  0
 21 17  2  0
  1 24  1  0
  1 25  1  0
  1 26  1  0
  2 27  1  0
  3 28  1  0
  3 29  1  0
  4 30  1  0
  8 31  1  0
 10 32  1  0
 11 33  1  0
 12 34  1  0
 12 35  1  0
 13 36  1  0
 18 37  1  0
 19 38  1  0
 20 39  1  0
 22 40  1  0
 22 41  1  0
 23 42  1  0
 23 43  1  0
M  END
>  <Energy>  (1234) 
723.88430001000017

>  <compound_id>  (1234) 
10059

>  <target_id>  (1234) 
1

>  <reference_id>  (1234) 
96

>  <inspiration_ids>  (1234) 
[96, 114]

>  <energy_score>  (1234) 
706.482606817072

>  <distance_score>  (1234) 
12.028847044894501

>  <path>  (1234) 
/opt/xchem-fragalysis-2/maxwin/BulkDock/SCRATCH/511013/C10059-P96/C10059-P96.minimised.mol

>  <scratch_subdir>  (1234) 
/opt/xchem-fragalysis-2/maxwin/BulkDock/SCRATCH/511013/C10059-P96

>  <fragmenstein_runtime>  (1234) 
19.521111011505127

>  <fragmenstein_outcome>  (1234) 
too moved

>  <fragmenstein_mode>  (1234) 
expansion

>  <fragmenstein_error>  (1234) 


$$$$
C10059-P114
     RDKit          3D

 43 45  0  0  0  0  0  0  0  0999 V2000
   -3.3488  -17.1959   16.6213 C   0  0  0  0  0  0  0  0  0  0  0  0
   -2.1934  -17.8786   17.3425 C   0  0  0  0  0  0  0  0  0  0  0  0
   -1.3461  -16.9183   18.2187 C   0  0  0  0  0  0  0  0  0  0  0  0
   -0.5584  -15.8572   17.5492 N   0  0  0  0  0  0  0  0  0  0  0  0
    0.8077  -15.8514   17.0639 C   0  0  0  0  0  0  0  0  0  0  0  0
    1.6172  -16.7290   17.0100 O   0  0  0  0  0  0  0  0  0  0  0  0
    1.3166  -14.5007   16.6569 C   0  0  0  0  0  0  0  0  0  0  0  0
    2.6570  -14.1531   16.4395 C   0  0  0  0  0  0  0  0  0  0  0  0
    2.8311  -12.8188   16.1547 N   0  0  0  0  0  0  0  0  0  0  0  0
    1.6200  -12.3238   16.1657 C   0  0  0  0  0  0  0  0  0  0  0  0
    0.6821  -13.2876   16.4513 N   0  0  0  0  0  0  0  0  0  0  0  0
   -2.6719  -19.1636   18.1058 C   0  0  0  0  0  0  0  0  0  0  0  0
   -3.9672  -19.2141   18.7971 N   0  0  0  0  0  0  0  0  0  0  0  0
   -4.9390  -20.2908   18.9218 C   0  0  0  0  0  0  0  0  0  0  0  0
   -4.9627  -21.3787   18.4256 O   0  0  0  0  0  0  0  0  0  0  0  0
   -6.1390  -20.0053   19.8782 C   0  0  0  0  0  0  0  0  0  0  0  0
   -6.6103  -21.2576   20.7936 C   0  0  0  0  0  0  0  0  0  0  0  0
   -5.7709  -22.2409   21.3548 C   0  0  0  0  0  0  0  0  0  0  0  0
   -6.6166  -23.0749   22.0448 C   0  0  0  0  0  0  0  0  0  0  0  0
   -7.8761  -22.5981   21.8235 N   0  0  0  0  0  0  0  0  0  0  0  0
   -7.8903  -21.4365   21.1537 N   0  0  0  0  0  0  0  0  0  0  0  0
   -6.5417  -18.6420   20.4276 C   0  0  0  0  0  0  0  0  0  0  0  0
   -7.2930  -19.2068   19.2690 C   0  0  0  0  0  0  0  0  0  0  0  0
   -3.0085  -16.3075   16.0801 H   0  0  0  0  0  0  0  0  0  0  0  0
   -4.1378  -16.8968   17.3161 H   0  0  0  0  0  0  0  0  0  0  0  0
   -3.7977  -17.8776   15.8906 H   0  0  0  0  0  0  0  0  0  0  0  0
   -1.5019  -18.2354   16.5655 H   0  0  0  0  0  0  0  0  0  0  0  0
   -1.9734  -16.4304   18.9701 H   0  0  0  0  0  0  0  0  0  0  0  0
   -0.6058  -17.5158   18.7644 H   0  0  0  0  0  0  0  0  0  0  0  0
   -0.9212  -14.9190   17.5204 H   0  0  0  0  0  0  0  0  0  0  0  0
    3.5066  -14.8238   16.5011 H   0  0  0  0  0  0  0  0  0  0  0  0
    1.3512  -11.2926   15.9763 H   0  0  0  0  0  0  0  0  0  0  0  0
   -0.3117  -13.1200   16.4843 H   0  0  0  0  0  0  0  0  0  0  0  0
   -1.9202  -19.4548   18.8476 H   0  0  0  0  0  0  0  0  0  0  0  0
   -2.7060  -19.9847   17.3784 H   0  0  0  0  0  0  0  0  0  0  0  0
   -4.2227  -18.4669   19.4219 H   0  0  0  0  0  0  0  0  0  0  0  0
   -4.6984  -22.3242   21.2618 H   0  0  0  0  0  0  0  0  0  0  0  0
   -6.4282  -23.9631   22.6250 H   0  0  0  0  0  0  0  0  0  0  0  0
   -8.7727  -23.0221   22.0580 H   0  0  0  0  0  0  0  0  0  0  0  0
   -7.0431  -18.6151   21.3921 H   0  0  0  0  0  0  0  0  0  0  0  0
   -5.9527  -17.7620   20.2400 H   0  0  0  0  0  0  0  0  0  0  0  0
   -7.1413  -18.7666   18.2910 H   0  0  0  0  0  0  0  0  0  0  0  0
   -8.3080  -19.5501   19.4352 H   0  0  0  0  0  0  0  0  0  0  0  0
  1  2  1  0
  2  3  1  0
  3  4  1  0
  4  5  1  0
  5  6  2  0
  5  7  1  0
  7  8  2  0
  8  9  1  0
  9 10  2  0
 10 11  1  0
  2 12  1  0
 12 13  1  0
 13 14  1  0
 14 15  2  0
 14 16  1  0
 16 17  1  0
 17 18  1  0
 18 19  2  0
 19 20  1  0
 20 21  1  0
 16 22  1  0
 22 23  1  0
 11  7  1  0
 23 16  1  0
 21 17  2  0
  1 24  1  0
  1 25  1  0
  1 26  1  0
  2 27  1  0
  3 28  1  0
  3 29  1  0
  4 30  1  0
  8 31  1  0
 10 32  1  0
 11 33  1  0
 12 34  1  0
 12 35  1  0
 13 36  1  0
 18 37  1  0
 19 38  1  0
 20 39  1  0
 22 40  1  0
 22 41  1  0
 23 42  1  0
 23 43  1  0
M  END
>  <Energy>  (1235) 
7.634965561092363

>  <compound_id>  (1235) 
10059

>  <target_id>  (1235) 
1

>  <reference_id>  (1235) 
114

>  <inspiration_ids>  (1235) 
[96, 114]

>  <energy_score>  (1235) 
-9.76672763185627

>  <distance_score>  (1235) 
13.291346327963389

>  <path>  (1235) 
/opt/xchem-fragalysis-2/maxwin/BulkDock/SCRATCH/511013/C10059-P114/C10059-P114.minimised.mol

>  <scratch_subdir>  (1235) 
/opt/xchem-fragalysis-2/maxwin/BulkDock/SCRATCH/511013/C10059-P114

>  <fragmenstein_runtime>  (1235) 
32.06112599372864

>  <fragmenstein_outcome>  (1235) 
too moved

>  <fragmenstein_mode>  (1235) 
expansion

>  <fragmenstein_error>  (1235) 


$$$$
C10066-P96
     RDKit          3D

 33 34  0  0  0  0  0  0  0  0999 V2000
    1.4666  -10.3470   21.4860 C   0  0  0  0  0  0  0  0  0  0  0  0
    2.5143  -10.3672   20.4970 N   0  0  0  0  0  0  0  0  0  0  0  0
    2.7402  -12.3029   21.6019 C   0  0  0  0  0  0  0  0  0  0  0  0
    2.5717  -14.5497   22.0538 C   0  0  0  0  0  0  0  0  0  0  0  0
    1.9767  -16.1236   23.6215 N   0  0  0  0  0  0  0  0  0  0  0  0
    0.1085  -16.6540   24.6717 C   0  0  0  0  0  0  0  0  0  0  0  0
   -0.7252  -15.9307   24.3333 O   0  0  0  0  0  0  0  0  0  0  0  0
   -0.7215  -17.7326   26.0838 C   0  0  0  0  0  0  0  0  0  0  0  0
   -2.1443  -17.8979   25.8614 N   0  0  0  0  0  0  0  0  0  0  0  0
   -2.7843  -18.9306   26.4669 N   0  0  0  0  0  0  0  0  0  0  0  0
   -2.1402  -19.0171   27.6015 C   0  0  0  0  0  0  0  0  0  0  0  0
   -0.9949  -18.1938   27.5528 C   0  0  0  0  0  0  0  0  0  0  0  0
   -0.3131  -17.9603   29.1478 Cl  0  0  0  0  0  0  0  0  0  0  0  0
    3.6962   -8.5892   20.3172 C   0  0  0  0  0  0  0  0  0  0  0  0
    4.6997   -8.6886   21.1051 O   0  0  0  0  0  0  0  0  0  0  0  0
    3.6926   -6.5039   19.3730 C   0  0  0  0  0  0  0  0  0  0  0  0
    4.6568   -6.1181   17.7355 C   0  0  0  0  0  0  0  0  0  0  0  0
    5.7936   -6.0209   16.7935 N   0  0  0  0  0  0  0  0  0  0  0  0
    7.2540   -6.0292   17.6895 C   0  0  0  0  0  0  0  0  0  0  0  0
    5.4758   -5.6001   18.7608 N   0  0  0  0  0  0  0  0  0  0  0  0
    0.5097  -10.2958   20.9852 H   0  0  0  0  0  0  0  0  0  0  0  0
    1.2815  -11.1459   22.1721 H   0  0  0  0  0  0  0  0  0  0  0  0
    1.4794   -9.7866   22.3241 H   0  0  0  0  0  0  0  0  0  0  0  0
    2.9154  -11.9693   22.6375 H   0  0  0  0  0  0  0  0  0  0  0  0
    1.7290  -12.5624   21.5422 H   0  0  0  0  0  0  0  0  0  0  0  0
    3.3369  -15.2151   21.6995 H   0  0  0  0  0  0  0  0  0  0  0  0
    3.6970  -14.2682   22.4305 H   0  0  0  0  0  0  0  0  0  0  0  0
    2.6848  -16.8073   23.8495 H   0  0  0  0  0  0  0  0  0  0  0  0
   -2.6139  -17.4785   25.0755 H   0  0  0  0  0  0  0  0  0  0  0  0
   -2.5473  -19.6020   28.4163 H   0  0  0  0  0  0  0  0  0  0  0  0
    3.9224   -6.5075   16.8903 H   0  0  0  0  0  0  0  0  0  0  0  0
    8.3217   -5.7421   17.7629 H   0  0  0  0  0  0  0  0  0  0  0  0
    5.7345   -5.2052   19.6612 H   0  0  0  0  0  0  0  0  0  0  0  0
  1  2  1  0
  2  3  1  0
  3  4  1  0
  4  5  1  0
  5  6  1  0
  6  7  2  0
  6  8  1  0
  8  9  1  0
  9 10  1  0
 10 11  2  0
 11 12  1  0
 12 13  1  0
  2 14  1  0
 14 15  2  0
 14 16  1  0
 16 17  2  0
 17 18  1  0
 18 19  2  0
 19 20  1  0
 12  8  2  0
 20 16  1  0
  1 21  1  0
  1 22  1  0
  1 23  1  0
  3 24  1  0
  3 25  1  0
  4 26  1  0
  4 27  1  0
  5 28  1  0
  9 29  1  0
 11 30  1  0
 17 31  1  0
 19 32  1  0
 20 33  1  0
M  END
>  <Energy>  (1236) 
2665.5045798279593

>  <compound_id>  (1236) 
10066

>  <target_id>  (1236) 
1

>  <reference_id>  (1236) 
96

>  <inspiration_ids>  (1236) 
[96, 114]

>  <energy_score>  (1236) 
2695.439975161976

>  <distance_score>  (1236) 
10.361929892148746

>  <path>  (1236) 
/opt/xchem-fragalysis-2/maxwin/BulkDock/SCRATCH/511013/C10066-P96/C10066-P96.minimised.mol

>  <scratch_subdir>  (1236) 
/opt/xchem-fragalysis-2/maxwin/BulkDock/SCRATCH/511013/C10066-P96

>  <fragmenstein_runtime>  (1236) 
21.199814796447754

>  <fragmenstein_outcome>  (1236) 
too moved

>  <fragmenstein_mode>  (1236) 
expansion

>  <fragmenstein_error>  (1236) 


$$$$
C10066-P114
     RDKit          3D

 33 34  0  0  0  0  0  0  0  0999 V2000
    4.4426  -12.9167   19.0920 C   0  0  0  0  0  0  0  0  0  0  0  0
    3.1021  -12.3890   18.1858 N   0  0  0  0  0  0  0  0  0  0  0  0
    2.7783  -14.2083   18.1756 C   0  0  0  0  0  0  0  0  0  0  0  0
    2.1743  -15.0448   19.7246 C   0  0  0  0  0  0  0  0  0  0  0  0
    0.6718  -16.3233   20.2137 N   0  0  0  0  0  0  0  0  0  0  0  0
   -1.0522  -16.2564   19.9231 C   0  0  0  0  0  0  0  0  0  0  0  0
   -1.6175  -15.3233   19.4273 O   0  0  0  0  0  0  0  0  0  0  0  0
   -2.1436  -17.5239   20.1445 C   0  0  0  0  0  0  0  0  0  0  0  0
   -3.2381  -17.2442   19.2937 N   0  0  0  0  0  0  0  0  0  0  0  0
   -4.3689  -17.9426   19.3816 N   0  0  0  0  0  0  0  0  0  0  0  0
   -3.9962  -18.9726   20.1049 C   0  0  0  0  0  0  0  0  0  0  0  0
   -2.6659  -18.8071   20.5980 C   0  0  0  0  0  0  0  0  0  0  0  0
   -2.2457  -20.2199   21.6692 Cl  0  0  0  0  0  0  0  0  0  0  0  0
    3.5152  -11.4221   17.0527 C   0  0  0  0  0  0  0  0  0  0  0  0
    3.8186  -11.6446   15.8967 O   0  0  0  0  0  0  0  0  0  0  0  0
    3.4038   -9.7954   17.5184 C   0  0  0  0  0  0  0  0  0  0  0  0
    2.5439   -8.7984   17.8552 C   0  0  0  0  0  0  0  0  0  0  0  0
    3.3485   -7.6142   17.9608 N   0  0  0  0  0  0  0  0  0  0  0  0
    4.7330   -7.5640   18.1443 C   0  0  0  0  0  0  0  0  0  0  0  0
    4.6993   -9.0423   18.3496 N   0  0  0  0  0  0  0  0  0  0  0  0
    4.1795  -12.8943   20.1557 H   0  0  0  0  0  0  0  0  0  0  0  0
    4.8223  -13.9202   18.9127 H   0  0  0  0  0  0  0  0  0  0  0  0
    5.2956  -12.2164   19.0807 H   0  0  0  0  0  0  0  0  0  0  0  0
    3.6213  -14.7844   17.7701 H   0  0  0  0  0  0  0  0  0  0  0  0
    1.8609  -14.3044   17.5851 H   0  0  0  0  0  0  0  0  0  0  0  0
    2.4240  -14.5319   20.6191 H   0  0  0  0  0  0  0  0  0  0  0  0
    3.0254  -15.5458   19.2346 H   0  0  0  0  0  0  0  0  0  0  0  0
    0.8825  -17.1609   20.7094 H   0  0  0  0  0  0  0  0  0  0  0  0
   -3.2080  -16.5234   18.5913 H   0  0  0  0  0  0  0  0  0  0  0  0
   -4.6909  -19.7853   20.2810 H   0  0  0  0  0  0  0  0  0  0  0  0
    1.4685   -8.7385   17.8681 H   0  0  0  0  0  0  0  0  0  0  0  0
    5.5150   -6.8229   18.1093 H   0  0  0  0  0  0  0  0  0  0  0  0
    5.4850   -9.6487   18.4210 H   0  0  0  0  0  0  0  0  0  0  0  0
  1  2  1  0
  2  3  1  0
  3  4  1  0
  4  5  1  0
  5  6  1  0
  6  7  2  0
  6  8  1  0
  8  9  1  0
  9 10  1  0
 10 11  2  0
 11 12  1  0
 12 13  1  0
  2 14  1  0
 14 15  2  0
 14 16  1  0
 16 17  2  0
 17 18  1  0
 18 19  2  0
 19 20  1  0
 12  8  2  0
 20 16  1  0
  1 21  1  0
  1 22  1  0
  1 23  1  0
  3 24  1  0
  3 25  1  0
  4 26  1  0
  4 27  1  0
  5 28  1  0
  9 29  1  0
 11 30  1  0
 17 31  1  0
 19 32  1  0
 20 33  1  0
M  END
>  <Energy>  (1237) 
451.79604573668996

>  <compound_id>  (1237) 
10066

>  <target_id>  (1237) 
1

>  <reference_id>  (1237) 
114

>  <inspiration_ids>  (1237) 
[96, 114]

>  <energy_score>  (1237) 
481.7314410707297

>  <distance_score>  (1237) 
12.601809120409218

>  <path>  (1237) 
/opt/xchem-fragalysis-2/maxwin/BulkDock/SCRATCH/511013/C10066-P114/C10066-P114.minimised.mol

>  <scratch_subdir>  (1237) 
/opt/xchem-fragalysis-2/maxwin/BulkDock/SCRATCH/511013/C10066-P114

>  <fragmenstein_runtime>  (1237) 
21.232141256332397

>  <fragmenstein_outcome>  (1237) 
too moved

>  <fragmenstein_mode>  (1237) 
expansion

>  <fragmenstein_error>  (1237) 


$$$$
C10069-P96
     RDKit          3D

 42 43  0  0  0  0  0  0  0  0999 V2000
    0.0230  -16.6848   25.2708 C   0  0  0  0  0  0  0  0  0  0  0  0
    0.0679  -15.6466   26.2563 C   0  0  0  0  0  0  0  0  0  0  0  0
    1.5844  -14.2457   26.2827 C   0  0  0  0  0  0  0  0  0  0  0  0
    3.1035  -13.0087   26.0005 N   0  0  0  0  0  0  0  0  0  0  0  0
    3.6455  -12.1075   24.5486 C   0  0  0  0  0  0  0  0  0  0  0  0
    3.1737  -12.2091   23.4332 O   0  0  0  0  0  0  0  0  0  0  0  0
    5.0390  -10.6153   24.5667 C   0  0  0  0  0  0  0  0  0  0  0  0
    4.9821   -9.3657   25.5215 C   0  0  0  0  0  0  0  0  0  0  0  0
    6.7195  -10.4548   24.1294 C   0  0  0  0  0  0  0  0  0  0  0  0
    7.2336   -9.2893   23.2495 C   0  0  0  0  0  0  0  0  0  0  0  0
    8.4357   -9.1937   22.5545 C   0  0  0  0  0  0  0  0  0  0  0  0
    8.6277   -7.9527   21.9997 N   0  0  0  0  0  0  0  0  0  0  0  0
    7.5750   -7.2623   22.3640 C   0  0  0  0  0  0  0  0  0  0  0  0
    6.7159   -8.0195   23.1177 N   0  0  0  0  0  0  0  0  0  0  0  0
   -1.7112  -16.2338   26.2554 N   0  0  0  0  0  0  0  0  0  0  0  0
   -2.4188  -17.7447   26.7902 C   0  0  0  0  0  0  0  0  0  0  0  0
   -1.7715  -18.6650   27.1699 O   0  0  0  0  0  0  0  0  0  0  0  0
   -4.0318  -18.0710   26.9981 C   0  0  0  0  0  0  0  0  0  0  0  0
   -4.9389  -17.0961   27.4891 N   0  0  0  0  0  0  0  0  0  0  0  0
   -6.2242  -17.4319   27.4650 N   0  0  0  0  0  0  0  0  0  0  0  0
   -6.1383  -18.7056   27.1435 C   0  0  0  0  0  0  0  0  0  0  0  0
   -4.8747  -19.1858   26.8774 C   0  0  0  0  0  0  0  0  0  0  0  0
   -4.9003  -20.8438   26.4960 Cl  0  0  0  0  0  0  0  0  0  0  0  0
    0.4713  -17.0424   24.3129 H   0  0  0  0  0  0  0  0  0  0  0  0
   -0.7733  -16.2382   24.7319 H   0  0  0  0  0  0  0  0  0  0  0  0
    1.0225  -16.3407   25.5421 H   0  0  0  0  0  0  0  0  0  0  0  0
    0.3715  -15.9334   27.2433 H   0  0  0  0  0  0  0  0  0  0  0  0
    1.0293  -13.3395   26.1481 H   0  0  0  0  0  0  0  0  0  0  0  0
    1.4999  -14.2820   27.3699 H   0  0  0  0  0  0  0  0  0  0  0  0
    3.7245  -12.7969   26.7802 H   0  0  0  0  0  0  0  0  0  0  0  0
    4.8232  -10.2731   23.5512 H   0  0  0  0  0  0  0  0  0  0  0  0
    4.6119   -8.4471   25.0613 H   0  0  0  0  0  0  0  0  0  0  0  0
    4.3741   -9.6293   26.3566 H   0  0  0  0  0  0  0  0  0  0  0  0
    5.9448   -9.0218   25.9179 H   0  0  0  0  0  0  0  0  0  0  0  0
    7.3151  -10.3356   25.0423 H   0  0  0  0  0  0  0  0  0  0  0  0
    7.1088  -11.3734   23.7241 H   0  0  0  0  0  0  0  0  0  0  0  0
    9.1930   -9.9590   22.4558 H   0  0  0  0  0  0  0  0  0  0  0  0
    7.3696   -6.2284   22.1207 H   0  0  0  0  0  0  0  0  0  0  0  0
    5.8779   -7.6573   23.5403 H   0  0  0  0  0  0  0  0  0  0  0  0
   -2.4557  -15.5751   26.0592 H   0  0  0  0  0  0  0  0  0  0  0  0
   -4.7385  -16.1246   27.6884 H   0  0  0  0  0  0  0  0  0  0  0  0
   -6.9812  -19.3618   27.1931 H   0  0  0  0  0  0  0  0  0  0  0  0
  1  2  1  0
  2  3  1  0
  3  4  1  0
  4  5  1  0
  5  6  2  0
  5  7  1  0
  7  8  1  0
  7  9  1  0
  9 10  1  0
 10 11  2  0
 11 12  1  0
 12 13  2  0
 13 14  1  0
  2 15  1  0
 15 16  1  0
 16 17  2  0
 16 18  1  0
 18 19  1  0
 19 20  1  0
 20 21  2  0
 21 22  1  0
 22 23  1  0
 14 10  1  0
 22 18  2  0
  1 24  1  0
  1 25  1  0
  1 26  1  0
  2 27  1  0
  3 28  1  0
  3 29  1  0
  4 30  1  0
  7 31  1  0
  8 32  1  0
  8 33  1  0
  8 34  1  0
  9 35  1  0
  9 36  1  0
 11 37  1  0
 13 38  1  0
 14 39  1  0
 15 40  1  0
 19 41  1  0
 21 42  1  0
M  END
>  <Energy>  (1238) 
663.06862827354769

>  <compound_id>  (1238) 
10069

>  <target_id>  (1238) 
1

>  <reference_id>  (1238) 
96

>  <inspiration_ids>  (1238) 
[96, 114]

>  <energy_score>  (1238) 
668.6962633896942

>  <distance_score>  (1238) 
9.903366563220038

>  <path>  (1238) 
/opt/xchem-fragalysis-2/maxwin/BulkDock/SCRATCH/511013/C10069-P96/C10069-P96.minimised.mol

>  <scratch_subdir>  (1238) 
/opt/xchem-fragalysis-2/maxwin/BulkDock/SCRATCH/511013/C10069-P96

>  <fragmenstein_runtime>  (1238) 
17.443289518356323

>  <fragmenstein_outcome>  (1238) 
too moved

>  <fragmenstein_mode>  (1238) 
expansion

>  <fragmenstein_error>  (1238) 


$$$$
C10069-P114
     RDKit          3D

 42 43  0  0  0  0  0  0  0  0999 V2000
    3.4156  -20.2132   22.2784 C   0  0  0  0  0  0  0  0  0  0  0  0
    2.7985  -19.5335   23.5376 C   0  0  0  0  0  0  0  0  0  0  0  0
    3.2516  -17.5361   23.8324 C   0  0  0  0  0  0  0  0  0  0  0  0
    3.6509  -15.6309   23.4140 N   0  0  0  0  0  0  0  0  0  0  0  0
    3.1515  -14.5775   22.0083 C   0  0  0  0  0  0  0  0  0  0  0  0
    2.3728  -14.9046   21.0473 O   0  0  0  0  0  0  0  0  0  0  0  0
    3.7304  -13.0092   21.7551 C   0  0  0  0  0  0  0  0  0  0  0  0
    3.1672  -12.5810   23.1292 C   0  0  0  0  0  0  0  0  0  0  0  0
    5.1362  -12.7773   20.6803 C   0  0  0  0  0  0  0  0  0  0  0  0
    6.6514  -12.4164   20.5749 C   0  0  0  0  0  0  0  0  0  0  0  0
    6.9737  -11.3582   19.7006 C   0  0  0  0  0  0  0  0  0  0  0  0
    8.4986  -11.1794   19.4393 N   0  0  0  0  0  0  0  0  0  0  0  0
    9.1231  -12.1969   20.0862 C   0  0  0  0  0  0  0  0  0  0  0  0
    8.1520  -12.9406   20.8656 N   0  0  0  0  0  0  0  0  0  0  0  0
    0.8181  -20.0096   23.5195 N   0  0  0  0  0  0  0  0  0  0  0  0
   -0.0364  -21.6219   23.2912 C   0  0  0  0  0  0  0  0  0  0  0  0
    0.5164  -22.6878   23.0166 O   0  0  0  0  0  0  0  0  0  0  0  0
   -1.6180  -21.8632   23.4893 C   0  0  0  0  0  0  0  0  0  0  0  0
   -2.5955  -21.2141   24.2167 N   0  0  0  0  0  0  0  0  0  0  0  0
   -3.7906  -21.8165   24.3116 N   0  0  0  0  0  0  0  0  0  0  0  0
   -3.6356  -22.9097   23.5756 C   0  0  0  0  0  0  0  0  0  0  0  0
   -2.3294  -22.9967   23.0530 C   0  0  0  0  0  0  0  0  0  0  0  0
   -1.8156  -24.2985   22.0842 Cl  0  0  0  0  0  0  0  0  0  0  0  0
    3.5206  -21.2949   22.4067 H   0  0  0  0  0  0  0  0  0  0  0  0
    2.7636  -20.0764   21.4130 H   0  0  0  0  0  0  0  0  0  0  0  0
    4.4048  -19.8343   22.0302 H   0  0  0  0  0  0  0  0  0  0  0  0
    3.2653  -19.7824   24.5001 H   0  0  0  0  0  0  0  0  0  0  0  0
    3.5773  -17.6902   24.8886 H   0  0  0  0  0  0  0  0  0  0  0  0
    3.9764  -17.4511   23.1233 H   0  0  0  0  0  0  0  0  0  0  0  0
    4.3346  -15.1424   23.9719 H   0  0  0  0  0  0  0  0  0  0  0  0
    3.1721  -12.9722   20.9090 H   0  0  0  0  0  0  0  0  0  0  0  0
    2.6212  -11.6853   23.1465 H   0  0  0  0  0  0  0  0  0  0  0  0
    2.5042  -13.2661   23.6650 H   0  0  0  0  0  0  0  0  0  0  0  0
    3.7465  -12.7771   23.9833 H   0  0  0  0  0  0  0  0  0  0  0  0
    4.9764  -11.7266   20.7972 H   0  0  0  0  0  0  0  0  0  0  0  0
    4.8219  -13.0533   19.6690 H   0  0  0  0  0  0  0  0  0  0  0  0
    6.2540  -10.8509   19.1371 H   0  0  0  0  0  0  0  0  0  0  0  0
   10.1726  -12.4649   20.0724 H   0  0  0  0  0  0  0  0  0  0  0  0
    8.4031  -13.8686   21.1400 H   0  0  0  0  0  0  0  0  0  0  0  0
    0.1670  -19.3329   23.8123 H   0  0  0  0  0  0  0  0  0  0  0  0
   -2.4407  -20.4237   24.8303 H   0  0  0  0  0  0  0  0  0  0  0  0
   -4.4644  -23.5967   23.4568 H   0  0  0  0  0  0  0  0  0  0  0  0
  1  2  1  0
  2  3  1  0
  3  4  1  0
  4  5  1  0
  5  6  2  0
  5  7  1  0
  7  8  1  0
  7  9  1  0
  9 10  1  0
 10 11  2  0
 11 12  1  0
 12 13  2  0
 13 14  1  0
  2 15  1  0
 15 16  1  0
 16 17  2  0
 16 18  1  0
 18 19  1  0
 19 20  1  0
 20 21  2  0
 21 22  1  0
 22 23  1  0
 14 10  1  0
 22 18  2  0
  1 24  1  0
  1 25  1  0
  1 26  1  0
  2 27  1  0
  3 28  1  0
  3 29  1  0
  4 30  1  0
  7 31  1  0
  8 32  1  0
  8 33  1  0
  8 34  1  0
  9 35  1  0
  9 36  1  0
 11 37  1  0
 13 38  1  0
 14 39  1  0
 15 40  1  0
 19 41  1  0
 21 42  1  0
M  END
>  <Energy>  (1239) 
613.47456275928653

>  <compound_id>  (1239) 
10069

>  <target_id>  (1239) 
1

>  <reference_id>  (1239) 
114

>  <inspiration_ids>  (1239) 
[96, 114]

>  <energy_score>  (1239) 
619.1021978754312

>  <distance_score>  (1239) 
11.323649842638307

>  <path>  (1239) 
/opt/xchem-fragalysis-2/maxwin/BulkDock/SCRATCH/511013/C10069-P114/C10069-P114.minimised.mol

>  <scratch_subdir>  (1239) 
/opt/xchem-fragalysis-2/maxwin/BulkDock/SCRATCH/511013/C10069-P114

>  <fragmenstein_runtime>  (1239) 
26.648284196853638

>  <fragmenstein_outcome>  (1239) 
too moved

>  <fragmenstein_mode>  (1239) 
expansion

>  <fragmenstein_error>  (1239) 


$$$$
C10070-P96
     RDKit          3D

 39 40  0  0  0  0  0  0  0  0999 V2000
   -1.2193  -17.0716   19.0880 C   0  0  0  0  0  0  0  0  0  0  0  0
    0.0828  -17.0431   20.0190 C   0  0  0  0  0  0  0  0  0  0  0  0
    1.8749  -17.9474   20.5118 C   0  0  0  0  0  0  0  0  0  0  0  0
    1.1749  -18.7802   22.0266 N   0  0  0  0  0  0  0  0  0  0  0  0
    2.5245  -17.8201   20.8447 C   0  0  0  0  0  0  0  0  0  0  0  0
    4.3922  -17.4937   19.9949 C   0  0  0  0  0  0  0  0  0  0  0  0
    5.9430  -16.9132   19.2024 N   0  0  0  0  0  0  0  0  0  0  0  0
    7.1751  -17.6757   18.7734 C   0  0  0  0  0  0  0  0  0  0  0  0
    7.4005  -18.8575   18.7761 O   0  0  0  0  0  0  0  0  0  0  0  0
    8.3319  -16.9238   18.2666 C   0  0  0  0  0  0  0  0  0  0  0  0
    9.0157  -17.0320   17.0609 C   0  0  0  0  0  0  0  0  0  0  0  0
   10.1076  -16.1921   16.9969 N   0  0  0  0  0  0  0  0  0  0  0  0
   10.2299  -15.7281   18.2144 C   0  0  0  0  0  0  0  0  0  0  0  0
    9.2460  -16.2235   19.0236 N   0  0  0  0  0  0  0  0  0  0  0  0
   -0.7363  -18.6765   22.3894 C   0  0  0  0  0  0  0  0  0  0  0  0
   -1.4927  -18.0620   21.8646 O   0  0  0  0  0  0  0  0  0  0  0  0
   -1.6861  -19.8107   23.6514 C   0  0  0  0  0  0  0  0  0  0  0  0
   -2.8201  -19.0815   23.8772 N   0  0  0  0  0  0  0  0  0  0  0  0
   -2.7585  -17.9926   24.9936 N   0  0  0  0  0  0  0  0  0  0  0  0
   -3.5015  -18.7579   25.6845 C   0  0  0  0  0  0  0  0  0  0  0  0
   -3.2029  -19.8333   24.7565 C   0  0  0  0  0  0  0  0  0  0  0  0
   -4.6460  -20.9901   25.4598 Cl  0  0  0  0  0  0  0  0  0  0  0  0
   -2.1003  -17.5955   19.4421 H   0  0  0  0  0  0  0  0  0  0  0  0
   -1.0765  -17.4255   18.0748 H   0  0  0  0  0  0  0  0  0  0  0  0
   -1.6098  -16.0471   19.0332 H   0  0  0  0  0  0  0  0  0  0  0  0
    0.2500  -16.0165   19.6932 H   0  0  0  0  0  0  0  0  0  0  0  0
   -0.4110  -16.9102   20.9183 H   0  0  0  0  0  0  0  0  0  0  0  0
    1.5771  -18.9572   20.0554 H   0  0  0  0  0  0  0  0  0  0  0  0
    2.2732  -18.4460   19.3096 H   0  0  0  0  0  0  0  0  0  0  0  0
    3.0327  -17.0134   21.7098 H   0  0  0  0  0  0  0  0  0  0  0  0
    3.1435  -18.1276   21.8517 H   0  0  0  0  0  0  0  0  0  0  0  0
    4.4039  -16.5139   19.5447 H   0  0  0  0  0  0  0  0  0  0  0  0
    4.8964  -18.4784   19.5417 H   0  0  0  0  0  0  0  0  0  0  0  0
    6.1275  -15.9239   19.1429 H   0  0  0  0  0  0  0  0  0  0  0  0
    8.7372  -17.6456   16.2131 H   0  0  0  0  0  0  0  0  0  0  0  0
   11.0128  -15.0710   18.5682 H   0  0  0  0  0  0  0  0  0  0  0  0
    9.1125  -16.0506   20.0116 H   0  0  0  0  0  0  0  0  0  0  0  0
   -3.1633  -19.0042   22.9384 H   0  0  0  0  0  0  0  0  0  0  0  0
   -4.1297  -18.5289   26.5325 H   0  0  0  0  0  0  0  0  0  0  0  0
  1  2  1  0
  2  3  1  0
  3  4  1  0
  4  5  1  0
  5  6  1  0
  6  7  1  0
  7  8  1  0
  8  9  2  0
  8 10  1  0
 10 11  2  0
 11 12  1  0
 12 13  2  0
 13 14  1  0
  4 15  1  0
 15 16  2  0
 15 17  1  0
 17 18  1  0
 18 19  1  0
 19 20  2  0
 20 21  1  0
 21 22  1  0
 14 10  1  0
 21 17  2  0
  1 23  1  0
  1 24  1  0
  1 25  1  0
  2 26  1  0
  2 27  1  0
  3 28  1  0
  3 29  1  0
  5 30  1  0
  5 31  1  0
  6 32  1  0
  6 33  1  0
  7 34  1  0
 11 35  1  0
 13 36  1  0
 14 37  1  0
 18 38  1  0
 20 39  1  0
M  END
>  <Energy>  (1240) 
1606.3151245748818

>  <compound_id>  (1240) 
10070

>  <target_id>  (1240) 
1

>  <reference_id>  (1240) 
96

>  <inspiration_ids>  (1240) 
[96, 114]

>  <energy_score>  (1240) 
1634.233128899792

>  <distance_score>  (1240) 
13.098734759125104

>  <path>  (1240) 
/opt/xchem-fragalysis-2/maxwin/BulkDock/SCRATCH/511013/C10070-P96/C10070-P96.minimised.mol

>  <scratch_subdir>  (1240) 
/opt/xchem-fragalysis-2/maxwin/BulkDock/SCRATCH/511013/C10070-P96

>  <fragmenstein_runtime>  (1240) 
24.44604229927063

>  <fragmenstein_outcome>  (1240) 
too moved

>  <fragmenstein_mode>  (1240) 
expansion

>  <fragmenstein_error>  (1240) 


$$$$
C10070-P114
     RDKit          3D

 39 40  0  0  0  0  0  0  0  0999 V2000
   -3.0597   -8.0954   23.3802 C   0  0  0  0  0  0  0  0  0  0  0  0
   -2.3480   -8.2348   22.0457 C   0  0  0  0  0  0  0  0  0  0  0  0
   -3.4719   -8.6782   20.6370 C   0  0  0  0  0  0  0  0  0  0  0  0
   -4.6459   -9.1489   20.9944 N   0  0  0  0  0  0  0  0  0  0  0  0
   -3.1242   -8.5036   19.9246 C   0  0  0  0  0  0  0  0  0  0  0  0
   -2.8892   -6.8548   19.3791 C   0  0  0  0  0  0  0  0  0  0  0  0
   -1.5230   -6.6543   18.8785 N   0  0  0  0  0  0  0  0  0  0  0  0
   -0.3816   -6.0220   19.4814 C   0  0  0  0  0  0  0  0  0  0  0  0
   -0.2313   -5.5672   20.5764 O   0  0  0  0  0  0  0  0  0  0  0  0
    0.7781   -5.9092   18.5790 C   0  0  0  0  0  0  0  0  0  0  0  0
    1.1256   -6.4116   17.3342 C   0  0  0  0  0  0  0  0  0  0  0  0
    2.3714   -5.9867   16.9249 N   0  0  0  0  0  0  0  0  0  0  0  0
    2.8071   -5.2361   17.9052 C   0  0  0  0  0  0  0  0  0  0  0  0
    1.9043   -5.1708   18.9240 N   0  0  0  0  0  0  0  0  0  0  0  0
   -5.6141  -10.3013   20.4890 C   0  0  0  0  0  0  0  0  0  0  0  0
   -5.5815  -10.9990   19.5691 O   0  0  0  0  0  0  0  0  0  0  0  0
   -6.7123  -10.5891   21.4405 C   0  0  0  0  0  0  0  0  0  0  0  0
   -7.6729  -11.5320   21.1085 N   0  0  0  0  0  0  0  0  0  0  0  0
   -8.4273  -11.9845   22.1319 N   0  0  0  0  0  0  0  0  0  0  0  0
   -8.0353  -11.2062   23.1415 C   0  0  0  0  0  0  0  0  0  0  0  0
   -7.0121  -10.3008   22.7604 C   0  0  0  0  0  0  0  0  0  0  0  0
   -6.3264   -9.1798   23.8268 Cl  0  0  0  0  0  0  0  0  0  0  0  0
   -3.4585   -9.0567   23.7088 H   0  0  0  0  0  0  0  0  0  0  0  0
   -3.8745   -7.3681   23.3257 H   0  0  0  0  0  0  0  0  0  0  0  0
   -2.3621   -7.7398   24.1446 H   0  0  0  0  0  0  0  0  0  0  0  0
   -1.5567   -8.9952   22.0798 H   0  0  0  0  0  0  0  0  0  0  0  0
   -1.8568   -7.2896   21.7914 H   0  0  0  0  0  0  0  0  0  0  0  0
   -4.0557   -7.7065   21.1651 H   0  0  0  0  0  0  0  0  0  0  0  0
   -3.1739   -9.8021   21.1036 H   0  0  0  0  0  0  0  0  0  0  0  0
   -3.5856   -8.8442   18.8380 H   0  0  0  0  0  0  0  0  0  0  0  0
   -2.1017   -9.1935   19.6680 H   0  0  0  0  0  0  0  0  0  0  0  0
   -3.0569   -6.1461   20.1974 H   0  0  0  0  0  0  0  0  0  0  0  0
   -3.5932   -6.6551   18.5646 H   0  0  0  0  0  0  0  0  0  0  0  0
   -1.3198   -6.8423   17.9058 H   0  0  0  0  0  0  0  0  0  0  0  0
    0.5487   -7.0698   16.6985 H   0  0  0  0  0  0  0  0  0  0  0  0
    3.7564   -4.7324   17.9476 H   0  0  0  0  0  0  0  0  0  0  0  0
    2.0267   -4.6960   19.8102 H   0  0  0  0  0  0  0  0  0  0  0  0
   -7.7760  -11.9611   20.1942 H   0  0  0  0  0  0  0  0  0  0  0  0
   -8.5046  -11.3156   24.1104 H   0  0  0  0  0  0  0  0  0  0  0  0
  1  2  1  0
  2  3  1  0
  3  4  1  0
  4  5  1  0
  5  6  1  0
  6  7  1  0
  7  8  1  0
  8  9  2  0
  8 10  1  0
 10 11  2  0
 11 12  1  0
 12 13  2  0
 13 14  1  0
  4 15  1  0
 15 16  2  0
 15 17  1  0
 17 18  1  0
 18 19  1  0
 19 20  2  0
 20 21  1  0
 21 22  1  0
 14 10  1  0
 21 17  2  0
  1 23  1  0
  1 24  1  0
  1 25  1  0
  2 26  1  0
  2 27  1  0
  3 28  1  0
  3 29  1  0
  5 30  1  0
  5 31  1  0
  6 32  1  0
  6 33  1  0
  7 34  1  0
 11 35  1  0
 13 36  1  0
 14 37  1  0
 18 38  1  0
 20 39  1  0
M  END
>  <Energy>  (1241) 
716.24058100063769

>  <compound_id>  (1241) 
10070

>  <target_id>  (1241) 
1

>  <reference_id>  (1241) 
114

>  <inspiration_ids>  (1241) 
[96, 114]

>  <energy_score>  (1241) 
744.1585853255526

>  <distance_score>  (1241) 
13.754775716675164

>  <path>  (1241) 
/opt/xchem-fragalysis-2/maxwin/BulkDock/SCRATCH/511013/C10070-P114/C10070-P114.minimised.mol

>  <scratch_subdir>  (1241) 
/opt/xchem-fragalysis-2/maxwin/BulkDock/SCRATCH/511013/C10070-P114

>  <fragmenstein_runtime>  (1241) 
32.163755893707275

>  <fragmenstein_outcome>  (1241) 
too moved

>  <fragmenstein_mode>  (1241) 
expansion

>  <fragmenstein_error>  (1241) 


$$$$
C10071-P96
     RDKit          3D

 42 43  0  0  0  0  0  0  0  0999 V2000
   -1.3715  -23.4447   24.7589 C   0  0  0  0  0  0  0  0  0  0  0  0
   -2.2381  -22.4217   25.4840 C   0  0  0  0  0  0  0  0  0  0  0  0
   -1.8340  -22.2867   26.9518 C   0  0  0  0  0  0  0  0  0  0  0  0
   -2.7699  -21.5249   27.9162 C   0  0  0  0  0  0  0  0  0  0  0  0
   -3.8509  -20.5274   27.3419 C   0  0  0  0  0  0  0  0  0  0  0  0
   -2.9010  -19.4574   26.4675 C   0  0  0  0  0  0  0  0  0  0  0  0
   -3.0807  -17.9968   26.4642 N   0  0  0  0  0  0  0  0  0  0  0  0
   -2.0695  -16.8219   26.0640 C   0  0  0  0  0  0  0  0  0  0  0  0
   -0.9171  -16.8707   25.7624 O   0  0  0  0  0  0  0  0  0  0  0  0
   -2.6043  -15.3431   25.8969 C   0  0  0  0  0  0  0  0  0  0  0  0
   -2.3878  -13.9036   26.0992 C   0  0  0  0  0  0  0  0  0  0  0  0
   -2.6692  -13.0849   24.7192 N   0  0  0  0  0  0  0  0  0  0  0  0
   -3.0266  -14.0415   23.8535 C   0  0  0  0  0  0  0  0  0  0  0  0
   -2.9342  -15.2492   24.5458 N   0  0  0  0  0  0  0  0  0  0  0  0
   -5.3823  -21.2784   27.6121 N   0  0  0  0  0  0  0  0  0  0  0  0
   -6.7467  -20.7533   27.5277 C   0  0  0  0  0  0  0  0  0  0  0  0
   -7.1034  -19.6944   27.1633 O   0  0  0  0  0  0  0  0  0  0  0  0
   -8.1986  -21.7194   28.1783 C   0  0  0  0  0  0  0  0  0  0  0  0
   -9.5530  -20.9625   28.3799 N   0  0  0  0  0  0  0  0  0  0  0  0
  -10.6572  -21.6887   28.5706 N   0  0  0  0  0  0  0  0  0  0  0  0
  -10.1841  -22.8796   28.8175 C   0  0  0  0  0  0  0  0  0  0  0  0
   -8.7697  -22.9373   28.7629 C   0  0  0  0  0  0  0  0  0  0  0  0
   -8.2416  -24.4035   29.4553 Cl  0  0  0  0  0  0  0  0  0  0  0  0
   -1.6818  -23.5280   23.7125 H   0  0  0  0  0  0  0  0  0  0  0  0
   -1.4483  -24.4355   25.2152 H   0  0  0  0  0  0  0  0  0  0  0  0
   -0.3190  -23.1431   24.7763 H   0  0  0  0  0  0  0  0  0  0  0  0
   -3.2924  -22.6851   25.3835 H   0  0  0  0  0  0  0  0  0  0  0  0
   -2.0960  -21.4770   24.9588 H   0  0  0  0  0  0  0  0  0  0  0  0
   -1.6733  -23.2856   27.3780 H   0  0  0  0  0  0  0  0  0  0  0  0
   -0.8465  -21.8063   26.9839 H   0  0  0  0  0  0  0  0  0  0  0  0
   -2.1150  -20.9398   28.5811 H   0  0  0  0  0  0  0  0  0  0  0  0
   -3.2093  -22.2429   28.6112 H   0  0  0  0  0  0  0  0  0  0  0  0
   -4.0077  -19.7574   28.1035 H   0  0  0  0  0  0  0  0  0  0  0  0
   -3.0001  -19.7340   25.4168 H   0  0  0  0  0  0  0  0  0  0  0  0
   -1.8799  -19.5895   26.8058 H   0  0  0  0  0  0  0  0  0  0  0  0
   -4.0148  -17.6157   26.5821 H   0  0  0  0  0  0  0  0  0  0  0  0
   -1.9271  -13.2423   26.8177 H   0  0  0  0  0  0  0  0  0  0  0  0
   -3.3943  -14.0630   22.8547 H   0  0  0  0  0  0  0  0  0  0  0  0
   -2.7638  -16.0982   24.1048 H   0  0  0  0  0  0  0  0  0  0  0  0
   -5.4110  -22.1588   28.0313 H   0  0  0  0  0  0  0  0  0  0  0  0
   -9.7037  -19.9792   28.1488 H   0  0  0  0  0  0  0  0  0  0  0  0
  -10.8796  -23.6572   29.1090 H   0  0  0  0  0  0  0  0  0  0  0  0
  1  2  1  0
  2  3  1  0
  3  4  1  0
  4  5  1  0
  5  6  1  0
  6  7  1  0
  7  8  1  0
  8  9  2  0
  8 10  1  0
 10 11  2  0
 11 12  1  0
 12 13  2  0
 13 14  1  0
  5 15  1  0
 15 16  1  0
 16 17  2  0
 16 18  1  0
 18 19  1  0
 19 20  1  0
 20 21  2  0
 21 22  1  0
 22 23  1  0
 14 10  1  0
 22 18  2  0
  1 24  1  0
  1 25  1  0
  1 26  1  0
  2 27  1  0
  2 28  1  0
  3 29  1  0
  3 30  1  0
  4 31  1  0
  4 32  1  0
  5 33  1  0
  6 34  1  0
  6 35  1  0
  7 36  1  0
 11 37  1  0
 13 38  1  0
 14 39  1  0
 15 40  1  0
 19 41  1  0
 21 42  1  0
M  END
>  <Energy>  (1242) 
215.67792534708747

>  <compound_id>  (1242) 
10071

>  <target_id>  (1242) 
1

>  <reference_id>  (1242) 
96

>  <inspiration_ids>  (1242) 
[96, 114]

>  <energy_score>  (1242) 
243.37873056785043

>  <distance_score>  (1242) 
15.271772930246538

>  <path>  (1242) 
/opt/xchem-fragalysis-2/maxwin/BulkDock/SCRATCH/511013/C10071-P96/C10071-P96.minimised.mol

>  <scratch_subdir>  (1242) 
/opt/xchem-fragalysis-2/maxwin/BulkDock/SCRATCH/511013/C10071-P96

>  <fragmenstein_runtime>  (1242) 
19.55143165588379

>  <fragmenstein_outcome>  (1242) 
too moved

>  <fragmenstein_mode>  (1242) 
expansion

>  <fragmenstein_error>  (1242) 


$$$$
C10071-P114
     RDKit          3D

 42 43  0  0  0  0  0  0  0  0999 V2000
   -0.0502   -9.8456   21.9932 C   0  0  0  0  0  0  0  0  0  0  0  0
    0.8553  -11.3408   22.4715 C   0  0  0  0  0  0  0  0  0  0  0  0
    2.7247  -12.0646   22.7812 C   0  0  0  0  0  0  0  0  0  0  0  0
    3.6607  -13.0220   21.4327 C   0  0  0  0  0  0  0  0  0  0  0  0
    5.1580  -13.9461   21.3171 C   0  0  0  0  0  0  0  0  0  0  0  0
    6.2723  -12.4337   20.8596 C   0  0  0  0  0  0  0  0  0  0  0  0
    7.7472  -12.1933   20.9191 N   0  0  0  0  0  0  0  0  0  0  0  0
    8.5380  -11.0903   20.4552 C   0  0  0  0  0  0  0  0  0  0  0  0
    8.2126  -10.0486   19.9753 O   0  0  0  0  0  0  0  0  0  0  0  0
    9.9786  -11.2300   20.5139 C   0  0  0  0  0  0  0  0  0  0  0  0
   10.8984  -12.2261   20.7315 C   0  0  0  0  0  0  0  0  0  0  0  0
   12.1866  -11.7677   20.5451 N   0  0  0  0  0  0  0  0  0  0  0  0
   12.0747  -10.4999   20.2304 C   0  0  0  0  0  0  0  0  0  0  0  0
   10.7716  -10.1319   20.2058 N   0  0  0  0  0  0  0  0  0  0  0  0
    5.0375  -15.1392   23.1933 N   0  0  0  0  0  0  0  0  0  0  0  0
    4.3920  -14.8655   24.4719 C   0  0  0  0  0  0  0  0  0  0  0  0
    3.6832  -13.9731   24.7977 O   0  0  0  0  0  0  0  0  0  0  0  0
    4.7628  -15.8023   25.6706 C   0  0  0  0  0  0  0  0  0  0  0  0
    4.3759  -15.3552   26.9538 N   0  0  0  0  0  0  0  0  0  0  0  0
    4.3113  -16.3316   27.8814 N   0  0  0  0  0  0  0  0  0  0  0  0
    5.1847  -17.2020   27.3865 C   0  0  0  0  0  0  0  0  0  0  0  0
    5.6469  -16.7886   26.1072 C   0  0  0  0  0  0  0  0  0  0  0  0
    7.0639  -17.4560   25.4369 Cl  0  0  0  0  0  0  0  0  0  0  0  0
   -1.0019  -10.1499   21.5404 H   0  0  0  0  0  0  0  0  0  0  0  0
    0.5121   -9.2806   21.2288 H   0  0  0  0  0  0  0  0  0  0  0  0
   -0.2276   -9.0814   22.7392 H   0  0  0  0  0  0  0  0  0  0  0  0
    0.1310  -12.0521   22.7175 H   0  0  0  0  0  0  0  0  0  0  0  0
    0.8922  -11.0460   21.4443 H   0  0  0  0  0  0  0  0  0  0  0  0
    2.6676  -12.5912   23.7150 H   0  0  0  0  0  0  0  0  0  0  0  0
    3.3909  -11.2155   22.7389 H   0  0  0  0  0  0  0  0  0  0  0  0
    4.0625  -12.3692   20.7016 H   0  0  0  0  0  0  0  0  0  0  0  0
    3.0203  -13.7145   20.9350 H   0  0  0  0  0  0  0  0  0  0  0  0
    5.4665  -14.1226   20.2052 H   0  0  0  0  0  0  0  0  0  0  0  0
    5.8420  -11.5052   21.2322 H   0  0  0  0  0  0  0  0  0  0  0  0
    6.0098  -12.2883   19.8015 H   0  0  0  0  0  0  0  0  0  0  0  0
    8.3620  -12.9473   21.1881 H   0  0  0  0  0  0  0  0  0  0  0  0
   10.7217  -13.2634   20.9835 H   0  0  0  0  0  0  0  0  0  0  0  0
   12.8885   -9.8196   20.0185 H   0  0  0  0  0  0  0  0  0  0  0  0
   10.3934   -9.2267   19.9682 H   0  0  0  0  0  0  0  0  0  0  0  0
    5.6273  -15.9193   23.2952 H   0  0  0  0  0  0  0  0  0  0  0  0
    3.9223  -14.4619   27.1359 H   0  0  0  0  0  0  0  0  0  0  0  0
    5.5206  -18.0293   27.9995 H   0  0  0  0  0  0  0  0  0  0  0  0
  1  2  1  0
  2  3  1  0
  3  4  1  0
  4  5  1  0
  5  6  1  0
  6  7  1  0
  7  8  1  0
  8  9  2  0
  8 10  1  0
 10 11  2  0
 11 12  1  0
 12 13  2  0
 13 14  1  0
  5 15  1  0
 15 16  1  0
 16 17  2  0
 16 18  1  0
 18 19  1  0
 19 20  1  0
 20 21  2  0
 21 22  1  0
 22 23  1  0
 14 10  1  0
 22 18  2  0
  1 24  1  0
  1 25  1  0
  1 26  1  0
  2 27  1  0
  2 28  1  0
  3 29  1  0
  3 30  1  0
  4 31  1  0
  4 32  1  0
  5 33  1  0
  6 34  1  0
  6 35  1  0
  7 36  1  0
 11 37  1  0
 13 38  1  0
 14 39  1  0
 15 40  1  0
 19 41  1  0
 21 42  1  0
M  END
>  <Energy>  (1243) 
483.02745553108633

>  <compound_id>  (1243) 
10071

>  <target_id>  (1243) 
1

>  <reference_id>  (1243) 
114

>  <inspiration_ids>  (1243) 
[96, 114]

>  <energy_score>  (1243) 
510.7282607518374

>  <distance_score>  (1243) 
14.821688955705296

>  <path>  (1243) 
/opt/xchem-fragalysis-2/maxwin/BulkDock/SCRATCH/511013/C10071-P114/C10071-P114.minimised.mol

>  <scratch_subdir>  (1243) 
/opt/xchem-fragalysis-2/maxwin/BulkDock/SCRATCH/511013/C10071-P114

>  <fragmenstein_runtime>  (1243) 
48.483213663101196

>  <fragmenstein_outcome>  (1243) 
too moved

>  <fragmenstein_mode>  (1243) 
expansion

>  <fragmenstein_error>  (1243) 


$$$$
C10074-P96
     RDKit          3D

 42 43  0  0  0  0  0  0  0  0999 V2000
    4.7320  -16.6449   20.5146 C   0  0  0  0  0  0  0  0  0  0  0  0
    3.3192  -17.2312   21.7942 C   0  0  0  0  0  0  0  0  0  0  0  0
    2.2239  -18.0466   20.6306 C   0  0  0  0  0  0  0  0  0  0  0  0
    3.0902  -16.4551   23.6228 C   0  0  0  0  0  0  0  0  0  0  0  0
    2.7586  -15.0908   25.0051 C   0  0  0  0  0  0  0  0  0  0  0  0
    3.6877  -13.2245   24.8913 C   0  0  0  0  0  0  0  0  0  0  0  0
    4.1248  -11.6737   23.9193 N   0  0  0  0  0  0  0  0  0  0  0  0
    5.6090  -10.6821   23.9074 C   0  0  0  0  0  0  0  0  0  0  0  0
    6.6359  -10.9273   24.4945 O   0  0  0  0  0  0  0  0  0  0  0  0
    5.7577   -9.4189   23.1674 C   0  0  0  0  0  0  0  0  0  0  0  0
    6.3386   -9.1035   21.9334 C   0  0  0  0  0  0  0  0  0  0  0  0
    6.9303   -7.8600   21.8771 N   0  0  0  0  0  0  0  0  0  0  0  0
    6.7645   -7.3671   23.0733 C   0  0  0  0  0  0  0  0  0  0  0  0
    6.1299   -8.2614   23.8885 N   0  0  0  0  0  0  0  0  0  0  0  0
    1.2916  -15.5809   26.1510 N   0  0  0  0  0  0  0  0  0  0  0  0
   -0.3057  -16.2768   25.7792 C   0  0  0  0  0  0  0  0  0  0  0  0
   -0.7390  -16.4453   24.6956 O   0  0  0  0  0  0  0  0  0  0  0  0
   -1.3482  -16.9560   26.9080 C   0  0  0  0  0  0  0  0  0  0  0  0
   -2.3272  -17.7617   26.3618 N   0  0  0  0  0  0  0  0  0  0  0  0
   -3.1435  -18.4454   27.1993 N   0  0  0  0  0  0  0  0  0  0  0  0
   -2.4616  -18.4452   28.3261 C   0  0  0  0  0  0  0  0  0  0  0  0
   -1.2850  -17.6818   28.1883 C   0  0  0  0  0  0  0  0  0  0  0  0
   -0.1846  -17.7125   29.5182 Cl  0  0  0  0  0  0  0  0  0  0  0  0
    5.7248  -16.3520   20.8533 H   0  0  0  0  0  0  0  0  0  0  0  0
    4.4536  -17.4955   19.9327 H   0  0  0  0  0  0  0  0  0  0  0  0
    4.7970  -16.2191   19.4970 H   0  0  0  0  0  0  0  0  0  0  0  0
    3.6294  -18.0643   22.3733 H   0  0  0  0  0  0  0  0  0  0  0  0
    2.4931  -18.4799   19.6785 H   0  0  0  0  0  0  0  0  0  0  0  0
    1.8580  -18.7046   21.3435 H   0  0  0  0  0  0  0  0  0  0  0  0
    1.2310  -17.6878   20.3648 H   0  0  0  0  0  0  0  0  0  0  0  0
    3.3969  -15.5525   23.1092 H   0  0  0  0  0  0  0  0  0  0  0  0
    3.7923  -17.0778   24.1913 H   0  0  0  0  0  0  0  0  0  0  0  0
    2.1714  -15.3719   24.2427 H   0  0  0  0  0  0  0  0  0  0  0  0
    3.1403  -12.6292   25.6194 H   0  0  0  0  0  0  0  0  0  0  0  0
    3.6589  -13.3126   23.8048 H   0  0  0  0  0  0  0  0  0  0  0  0
    3.3935  -11.1933   23.4123 H   0  0  0  0  0  0  0  0  0  0  0  0
    6.4637   -9.7160   21.0695 H   0  0  0  0  0  0  0  0  0  0  0  0
    7.1110   -6.4040   23.4240 H   0  0  0  0  0  0  0  0  0  0  0  0
    6.0462   -8.1744   24.8920 H   0  0  0  0  0  0  0  0  0  0  0  0
    1.3851  -15.4674   27.1531 H   0  0  0  0  0  0  0  0  0  0  0  0
   -2.5504  -17.7837   25.3670 H   0  0  0  0  0  0  0  0  0  0  0  0
   -2.8100  -19.0208   29.1735 H   0  0  0  0  0  0  0  0  0  0  0  0
  1  2  1  0
  2  3  1  0
  2  4  1  0
  4  5  1  0
  5  6  1  0
  6  7  1  0
  7  8  1  0
  8  9  2  0
  8 10  1  0
 10 11  2  0
 11 12  1  0
 12 13  2  0
 13 14  1  0
  5 15  1  0
 15 16  1  0
 16 17  2  0
 16 18  1  0
 18 19  1  0
 19 20  1  0
 20 21  2  0
 21 22  1  0
 22 23  1  0
 14 10  1  0
 22 18  2  0
  1 24  1  0
  1 25  1  0
  1 26  1  0
  2 27  1  0
  3 28  1  0
  3 29  1  0
  3 30  1  0
  4 31  1  0
  4 32  1  0
  5 33  1  0
  6 34  1  0
  6 35  1  0
  7 36  1  0
 11 37  1  0
 13 38  1  0
 14 39  1  0
 15 40  1  0
 19 41  1  0
 21 42  1  0
M  END
>  <Energy>  (1244) 
742.48116202365725

>  <compound_id>  (1244) 
10074

>  <target_id>  (1244) 
1

>  <reference_id>  (1244) 
96

>  <inspiration_ids>  (1244) 
[96, 114]

>  <energy_score>  (1244) 
756.9030505649023

>  <distance_score>  (1244) 
11.45094243331285

>  <path>  (1244) 
/opt/xchem-fragalysis-2/maxwin/BulkDock/SCRATCH/511013/C10074-P96/C10074-P96.minimised.mol

>  <scratch_subdir>  (1244) 
/opt/xchem-fragalysis-2/maxwin/BulkDock/SCRATCH/511013/C10074-P96

>  <fragmenstein_runtime>  (1244) 
15.689892768859863

>  <fragmenstein_outcome>  (1244) 
too moved

>  <fragmenstein_mode>  (1244) 
expansion

>  <fragmenstein_error>  (1244) 


$$$$
C10074-P114
     RDKit          3D

 42 43  0  0  0  0  0  0  0  0999 V2000
    4.3067  -15.0464   17.6368 C   0  0  0  0  0  0  0  0  0  0  0  0
    2.9419  -13.9828   18.3795 C   0  0  0  0  0  0  0  0  0  0  0  0
    2.6341  -14.0894   20.4598 C   0  0  0  0  0  0  0  0  0  0  0  0
    1.7903  -14.4071   17.7461 C   0  0  0  0  0  0  0  0  0  0  0  0
    2.6625  -15.0080   18.8580 C   0  0  0  0  0  0  0  0  0  0  0  0
    4.3449  -13.5718   19.3762 C   0  0  0  0  0  0  0  0  0  0  0  0
    5.6025  -12.3628   19.1166 N   0  0  0  0  0  0  0  0  0  0  0  0
    6.2670  -11.5624   19.9859 C   0  0  0  0  0  0  0  0  0  0  0  0
    6.1129  -11.4087   21.1376 O   0  0  0  0  0  0  0  0  0  0  0  0
    7.7516  -10.6794   19.1881 C   0  0  0  0  0  0  0  0  0  0  0  0
    8.8941   -9.7455   19.3013 C   0  0  0  0  0  0  0  0  0  0  0  0
   10.0207  -10.0751   18.5762 N   0  0  0  0  0  0  0  0  0  0  0  0
    9.4964  -10.4614   17.4624 C   0  0  0  0  0  0  0  0  0  0  0  0
    8.1616  -10.5086   17.6622 N   0  0  0  0  0  0  0  0  0  0  0  0
    0.9732  -16.1133   19.2731 N   0  0  0  0  0  0  0  0  0  0  0  0
    0.5356  -17.7138   18.7709 C   0  0  0  0  0  0  0  0  0  0  0  0
    1.1815  -18.5487   18.1488 O   0  0  0  0  0  0  0  0  0  0  0  0
   -1.2551  -17.7390   19.3151 C   0  0  0  0  0  0  0  0  0  0  0  0
   -1.8236  -16.7807   20.0956 N   0  0  0  0  0  0  0  0  0  0  0  0
   -3.1345  -16.4917   19.9330 N   0  0  0  0  0  0  0  0  0  0  0  0
   -3.5420  -17.4590   19.1377 C   0  0  0  0  0  0  0  0  0  0  0  0
   -2.4594  -18.2244   18.6630 C   0  0  0  0  0  0  0  0  0  0  0  0
   -2.8725  -19.2631   17.3639 Cl  0  0  0  0  0  0  0  0  0  0  0  0
    4.6920  -15.7162   18.4034 H   0  0  0  0  0  0  0  0  0  0  0  0
    3.5058  -15.4208   16.9737 H   0  0  0  0  0  0  0  0  0  0  0  0
    4.7524  -15.5145   16.7717 H   0  0  0  0  0  0  0  0  0  0  0  0
    3.2283  -12.9117   18.0647 H   0  0  0  0  0  0  0  0  0  0  0  0
    3.0349  -13.1709   20.9565 H   0  0  0  0  0  0  0  0  0  0  0  0
    3.1434  -14.3553   21.4354 H   0  0  0  0  0  0  0  0  0  0  0  0
    1.9412  -14.8789   20.6704 H   0  0  0  0  0  0  0  0  0  0  0  0
    0.8901  -13.8449   17.9139 H   0  0  0  0  0  0  0  0  0  0  0  0
    1.8110  -14.7729   16.7141 H   0  0  0  0  0  0  0  0  0  0  0  0
    3.0754  -15.9305   18.5397 H   0  0  0  0  0  0  0  0  0  0  0  0
    4.4815  -13.2312   20.4234 H   0  0  0  0  0  0  0  0  0  0  0  0
    5.2260  -14.1885   19.2599 H   0  0  0  0  0  0  0  0  0  0  0  0
    5.9277  -12.1859   18.2359 H   0  0  0  0  0  0  0  0  0  0  0  0
    9.0134   -8.8162   19.8500 H   0  0  0  0  0  0  0  0  0  0  0  0
    9.9876  -10.6078   16.5097 H   0  0  0  0  0  0  0  0  0  0  0  0
    7.4655  -10.1110   17.0578 H   0  0  0  0  0  0  0  0  0  0  0  0
    0.2609  -15.7409   19.8240 H   0  0  0  0  0  0  0  0  0  0  0  0
   -1.3578  -16.2826   20.8368 H   0  0  0  0  0  0  0  0  0  0  0  0
   -4.5874  -17.5175   18.8640 H   0  0  0  0  0  0  0  0  0  0  0  0
  1  2  1  0
  2  3  1  0
  2  4  1  0
  4  5  1  0
  5  6  1  0
  6  7  1  0
  7  8  1  0
  8  9  2  0
  8 10  1  0
 10 11  2  0
 11 12  1  0
 12 13  2  0
 13 14  1  0
  5 15  1  0
 15 16  1  0
 16 17  2  0
 16 18  1  0
 18 19  1  0
 19 20  1  0
 20 21  2  0
 21 22  1  0
 22 23  1  0
 14 10  1  0
 22 18  2  0
  1 24  1  0
  1 25  1  0
  1 26  1  0
  2 27  1  0
  3 28  1  0
  3 29  1  0
  3 30  1  0
  4 31  1  0
  4 32  1  0
  5 33  1  0
  6 34  1  0
  6 35  1  0
  7 36  1  0
 11 37  1  0
 13 38  1  0
 14 39  1  0
 15 40  1  0
 19 41  1  0
 21 42  1  0
M  END
>  <Energy>  (1245) 
1253.1869136870189

>  <compound_id>  (1245) 
10074

>  <target_id>  (1245) 
1

>  <reference_id>  (1245) 
114

>  <inspiration_ids>  (1245) 
[96, 114]

>  <energy_score>  (1245) 
1267.608802228272

>  <distance_score>  (1245) 
12.73957963643285

>  <path>  (1245) 
/opt/xchem-fragalysis-2/maxwin/BulkDock/SCRATCH/511013/C10074-P114/C10074-P114.minimised.mol

>  <scratch_subdir>  (1245) 
/opt/xchem-fragalysis-2/maxwin/BulkDock/SCRATCH/511013/C10074-P114

>  <fragmenstein_runtime>  (1245) 
20.371981143951416

>  <fragmenstein_outcome>  (1245) 
too moved

>  <fragmenstein_mode>  (1245) 
expansion

>  <fragmenstein_error>  (1245) 


$$$$
C10075-P96
     RDKit          3D

 40 41  0  0  0  0  0  0  0  0999 V2000
    3.3958  -12.1507   24.9790 C   0  0  0  0  0  0  0  0  0  0  0  0
    3.9878  -12.1468   23.6898 O   0  0  0  0  0  0  0  0  0  0  0  0
    3.6851  -13.0378   22.6859 C   0  0  0  0  0  0  0  0  0  0  0  0
    2.4323  -12.7116   21.8532 C   0  0  0  0  0  0  0  0  0  0  0  0
    0.8129  -11.8603   22.3724 C   0  0  0  0  0  0  0  0  0  0  0  0
    1.5581  -10.6304   21.1604 C   0  0  0  0  0  0  0  0  0  0  0  0
    2.9394  -10.0735   20.1546 N   0  0  0  0  0  0  0  0  0  0  0  0
    3.6353  -10.7336   18.8817 C   0  0  0  0  0  0  0  0  0  0  0  0
    3.3386  -11.7033   18.2617 O   0  0  0  0  0  0  0  0  0  0  0  0
    4.9718  -10.0802   18.4399 C   0  0  0  0  0  0  0  0  0  0  0  0
    6.1419   -9.6289   19.0730 C   0  0  0  0  0  0  0  0  0  0  0  0
    7.0675   -9.0373   18.2306 N   0  0  0  0  0  0  0  0  0  0  0  0
    6.4507   -9.0036   17.0848 C   0  0  0  0  0  0  0  0  0  0  0  0
    5.2425   -9.7116   17.1528 N   0  0  0  0  0  0  0  0  0  0  0  0
   -0.8945  -12.7339   23.0198 N   0  0  0  0  0  0  0  0  0  0  0  0
   -2.3073  -12.0721   23.7055 C   0  0  0  0  0  0  0  0  0  0  0  0
   -2.6319  -10.9084   23.8704 O   0  0  0  0  0  0  0  0  0  0  0  0
   -3.4484  -13.0785   24.3701 C   0  0  0  0  0  0  0  0  0  0  0  0
   -3.3439  -14.0374   25.3824 N   0  0  0  0  0  0  0  0  0  0  0  0
   -4.4677  -14.7248   25.6718 N   0  0  0  0  0  0  0  0  0  0  0  0
   -5.4086  -13.9041   25.2188 C   0  0  0  0  0  0  0  0  0  0  0  0
   -4.8313  -12.8184   24.5218 C   0  0  0  0  0  0  0  0  0  0  0  0
   -5.7375  -11.4230   24.1514 Cl  0  0  0  0  0  0  0  0  0  0  0  0
    3.9227  -11.3524   25.5022 H   0  0  0  0  0  0  0  0  0  0  0  0
    3.5364  -13.0735   25.5423 H   0  0  0  0  0  0  0  0  0  0  0  0
    2.3425  -11.8625   25.0290 H   0  0  0  0  0  0  0  0  0  0  0  0
    4.4894  -13.1728   22.0356 H   0  0  0  0  0  0  0  0  0  0  0  0
    3.9380  -14.0905   22.8039 H   0  0  0  0  0  0  0  0  0  0  0  0
    2.1949  -13.7062   21.8071 H   0  0  0  0  0  0  0  0  0  0  0  0
    2.4456  -12.7035   20.7851 H   0  0  0  0  0  0  0  0  0  0  0  0
    0.6209  -12.8568   21.9098 H   0  0  0  0  0  0  0  0  0  0  0  0
    1.2536   -9.8822   21.7747 H   0  0  0  0  0  0  0  0  0  0  0  0
    2.4000  -10.7982   21.8000 H   0  0  0  0  0  0  0  0  0  0  0  0
    3.4035   -9.2058   20.3790 H   0  0  0  0  0  0  0  0  0  0  0  0
    6.3417   -9.5670   20.1367 H   0  0  0  0  0  0  0  0  0  0  0  0
    6.7952   -8.5558   16.1618 H   0  0  0  0  0  0  0  0  0  0  0  0
    4.5672   -9.8354   16.4008 H   0  0  0  0  0  0  0  0  0  0  0  0
   -0.9835  -13.6725   22.9686 H   0  0  0  0  0  0  0  0  0  0  0  0
   -2.5499  -14.2367   25.9786 H   0  0  0  0  0  0  0  0  0  0  0  0
   -6.4478  -14.0900   25.4584 H   0  0  0  0  0  0  0  0  0  0  0  0
  1  2  1  0
  2  3  1  0
  3  4  1  0
  4  5  1  0
  5  6  1  0
  6  7  1  0
  7  8  1  0
  8  9  2  0
  8 10  1  0
 10 11  2  0
 11 12  1  0
 12 13  2  0
 13 14  1  0
  5 15  1  0
 15 16  1  0
 16 17  2  0
 16 18  1  0
 18 19  1  0
 19 20  1  0
 20 21  2  0
 21 22  1  0
 22 23  1  0
 14 10  1  0
 22 18  2  0
  1 24  1  0
  1 25  1  0
  1 26  1  0
  3 27  1  0
  3 28  1  0
  4 29  1  0
  4 30  1  0
  5 31  1  0
  6 32  1  0
  6 33  1  0
  7 34  1  0
 11 35  1  0
 13 36  1  0
 14 37  1  0
 15 38  1  0
 19 39  1  0
 21 40  1  0
M  END
>  <Energy>  (1246) 
461.45168289134477

>  <compound_id>  (1246) 
10075

>  <target_id>  (1246) 
1

>  <reference_id>  (1246) 
96

>  <inspiration_ids>  (1246) 
[96, 114]

>  <energy_score>  (1246) 
481.8722659215962

>  <distance_score>  (1246) 
12.168623925845896

>  <path>  (1246) 
/opt/xchem-fragalysis-2/maxwin/BulkDock/SCRATCH/511013/C10075-P96/C10075-P96.minimised.mol

>  <scratch_subdir>  (1246) 
/opt/xchem-fragalysis-2/maxwin/BulkDock/SCRATCH/511013/C10075-P96

>  <fragmenstein_runtime>  (1246) 
19.073498964309692

>  <fragmenstein_outcome>  (1246) 
too moved

>  <fragmenstein_mode>  (1246) 
expansion

>  <fragmenstein_error>  (1246) 


$$$$
C10075-P114
     RDKit          3D

 40 41  0  0  0  0  0  0  0  0999 V2000
    4.6691  -15.4035   23.4765 C   0  0  0  0  0  0  0  0  0  0  0  0
    5.0920  -14.6171   21.6575 O   0  0  0  0  0  0  0  0  0  0  0  0
    3.2621  -14.4275   21.9006 C   0  0  0  0  0  0  0  0  0  0  0  0
    2.3895  -15.3379   20.3500 C   0  0  0  0  0  0  0  0  0  0  0  0
    2.5500  -14.2065   20.8679 C   0  0  0  0  0  0  0  0  0  0  0  0
    4.5089  -13.2182   20.5039 C   0  0  0  0  0  0  0  0  0  0  0  0
    4.6750  -11.8069   20.5010 N   0  0  0  0  0  0  0  0  0  0  0  0
    5.5641  -10.6299   19.2645 C   0  0  0  0  0  0  0  0  0  0  0  0
    6.1982  -11.0842   18.4223 O   0  0  0  0  0  0  0  0  0  0  0  0
    5.2718   -8.5335   19.0901 C   0  0  0  0  0  0  0  0  0  0  0  0
    5.2637   -7.1947   18.1885 C   0  0  0  0  0  0  0  0  0  0  0  0
    6.5855   -6.5048   18.1399 N   0  0  0  0  0  0  0  0  0  0  0  0
    7.3675   -6.8636   19.1503 C   0  0  0  0  0  0  0  0  0  0  0  0
    6.6263   -7.6173   19.9465 N   0  0  0  0  0  0  0  0  0  0  0  0
    0.9035  -14.7680   22.2217 N   0  0  0  0  0  0  0  0  0  0  0  0
   -0.3516  -15.6173   22.0316 C   0  0  0  0  0  0  0  0  0  0  0  0
   -0.6823  -16.3060   21.0460 O   0  0  0  0  0  0  0  0  0  0  0  0
   -1.3975  -15.1786   23.7545 C   0  0  0  0  0  0  0  0  0  0  0  0
   -2.8565  -15.3666   24.0936 N   0  0  0  0  0  0  0  0  0  0  0  0
   -3.2509  -15.9144   25.2995 N   0  0  0  0  0  0  0  0  0  0  0  0
   -2.7184  -15.1084   26.1524 C   0  0  0  0  0  0  0  0  0  0  0  0
   -1.8450  -14.3402   25.2861 C   0  0  0  0  0  0  0  0  0  0  0  0
   -3.3443  -12.8509   25.4910 Cl  0  0  0  0  0  0  0  0  0  0  0  0
    3.9417  -16.1994   23.3467 H   0  0  0  0  0  0  0  0  0  0  0  0
    4.2385  -14.6920   24.2019 H   0  0  0  0  0  0  0  0  0  0  0  0
    5.4966  -15.9488   23.9240 H   0  0  0  0  0  0  0  0  0  0  0  0
    2.9861  -14.6931   22.9546 H   0  0  0  0  0  0  0  0  0  0  0  0
    3.3206  -13.2010   22.1656 H   0  0  0  0  0  0  0  0  0  0  0  0
    1.3630  -15.7237   20.4494 H   0  0  0  0  0  0  0  0  0  0  0  0
    2.7739  -15.2018   19.2014 H   0  0  0  0  0  0  0  0  0  0  0  0
    2.1370  -14.0500   19.9544 H   0  0  0  0  0  0  0  0  0  0  0  0
    5.4469  -13.6132   20.0556 H   0  0  0  0  0  0  0  0  0  0  0  0
    4.2013  -13.1977   19.4282 H   0  0  0  0  0  0  0  0  0  0  0  0
    4.2488  -11.2694   21.2261 H   0  0  0  0  0  0  0  0  0  0  0  0
    4.4331   -6.7570   17.6372 H   0  0  0  0  0  0  0  0  0  0  0  0
    8.4099   -6.8040   19.4514 H   0  0  0  0  0  0  0  0  0  0  0  0
    6.5879   -7.4889   20.9439 H   0  0  0  0  0  0  0  0  0  0  0  0
    0.9092  -14.4021   23.1718 H   0  0  0  0  0  0  0  0  0  0  0  0
   -3.5640  -15.0816   23.4304 H   0  0  0  0  0  0  0  0  0  0  0  0
   -3.0477  -15.0074   27.1792 H   0  0  0  0  0  0  0  0  0  0  0  0
  1  2  1  0
  2  3  1  0
  3  4  1  0
  4  5  1  0
  5  6  1  0
  6  7  1  0
  7  8  1  0
  8  9  2  0
  8 10  1  0
 10 11  2  0
 11 12  1  0
 12 13  2  0
 13 14  1  0
  5 15  1  0
 15 16  1  0
 16 17  2  0
 16 18  1  0
 18 19  1  0
 19 20  1  0
 20 21  2  0
 21 22  1  0
 22 23  1  0
 14 10  1  0
 22 18  2  0
  1 24  1  0
  1 25  1  0
  1 26  1  0
  3 27  1  0
  3 28  1  0
  4 29  1  0
  4 30  1  0
  5 31  1  0
  6 32  1  0
  6 33  1  0
  7 34  1  0
 11 35  1  0
 13 36  1  0
 14 37  1  0
 15 38  1  0
 19 39  1  0
 21 40  1  0
M  END
>  <Energy>  (1247) 
1626.5693048211351

>  <compound_id>  (1247) 
10075

>  <target_id>  (1247) 
1

>  <reference_id>  (1247) 
114

>  <inspiration_ids>  (1247) 
[96, 114]

>  <energy_score>  (1247) 
1646.989887851414

>  <distance_score>  (1247) 
11.530408273730862

>  <path>  (1247) 
/opt/xchem-fragalysis-2/maxwin/BulkDock/SCRATCH/511013/C10075-P114/C10075-P114.minimised.mol

>  <scratch_subdir>  (1247) 
/opt/xchem-fragalysis-2/maxwin/BulkDock/SCRATCH/511013/C10075-P114

>  <fragmenstein_runtime>  (1247) 
23.39623188972473

>  <fragmenstein_outcome>  (1247) 
too moved

>  <fragmenstein_mode>  (1247) 
expansion

>  <fragmenstein_error>  (1247) 


$$$$
C10080-P96
     RDKit          3D

 39 40  0  0  0  0  0  0  0  0999 V2000
   -5.0606   -8.3688   17.7311 C   0  0  0  0  0  0  0  0  0  0  0  0
   -3.7593   -8.8978   17.2195 N   0  0  0  0  0  0  0  0  0  0  0  0
   -4.3255  -10.2750   17.8801 C   0  0  0  0  0  0  0  0  0  0  0  0
   -2.8061  -11.3247   18.3659 C   0  0  0  0  0  0  0  0  0  0  0  0
   -2.4558   -9.8956   19.1754 C   0  0  0  0  0  0  0  0  0  0  0  0
   -2.8675  -11.6943   16.7995 C   0  0  0  0  0  0  0  0  0  0  0  0
   -3.5314  -12.4087   19.3512 N   0  0  0  0  0  0  0  0  0  0  0  0
   -2.8372  -13.6295   20.7165 C   0  0  0  0  0  0  0  0  0  0  0  0
   -1.6171  -13.7697   20.9072 O   0  0  0  0  0  0  0  0  0  0  0  0
   -4.2719  -14.5194   21.9530 C   0  0  0  0  0  0  0  0  0  0  0  0
   -4.9126  -15.8305   20.9609 N   0  0  0  0  0  0  0  0  0  0  0  0
   -6.0110  -17.0228   21.7373 N   0  0  0  0  0  0  0  0  0  0  0  0
   -6.6325  -16.4212   22.8592 C   0  0  0  0  0  0  0  0  0  0  0  0
   -5.8927  -14.6496   22.9375 C   0  0  0  0  0  0  0  0  0  0  0  0
   -7.8324  -13.8636   23.3811 Cl  0  0  0  0  0  0  0  0  0  0  0  0
   -3.5799   -8.5202   15.8492 C   0  0  0  0  0  0  0  0  0  0  0  0
   -3.8883   -9.0906   14.8353 O   0  0  0  0  0  0  0  0  0  0  0  0
   -2.7944   -7.2644   15.7522 C   0  0  0  0  0  0  0  0  0  0  0  0
   -2.4071   -6.5320   14.6358 C   0  0  0  0  0  0  0  0  0  0  0  0
   -1.4429   -5.5885   14.9257 N   0  0  0  0  0  0  0  0  0  0  0  0
   -1.2064   -5.7371   16.2060 C   0  0  0  0  0  0  0  0  0  0  0  0
   -1.9817   -6.7288   16.7431 N   0  0  0  0  0  0  0  0  0  0  0  0
   -5.0935   -8.2761   18.8251 H   0  0  0  0  0  0  0  0  0  0  0  0
   -5.1235   -7.3250   17.3891 H   0  0  0  0  0  0  0  0  0  0  0  0
   -5.9488   -8.8387   17.2823 H   0  0  0  0  0  0  0  0  0  0  0  0
   -4.9648  -10.7874   17.1482 H   0  0  0  0  0  0  0  0  0  0  0  0
   -4.9047  -10.2004   18.8122 H   0  0  0  0  0  0  0  0  0  0  0  0
   -1.6848   -9.8519   19.9344 H   0  0  0  0  0  0  0  0  0  0  0  0
   -3.3343   -9.5100   19.6914 H   0  0  0  0  0  0  0  0  0  0  0  0
   -2.1516   -9.0295   18.6024 H   0  0  0  0  0  0  0  0  0  0  0  0
   -3.8052  -12.1291   16.4689 H   0  0  0  0  0  0  0  0  0  0  0  0
   -2.7642  -10.8097   16.2000 H   0  0  0  0  0  0  0  0  0  0  0  0
   -2.1654  -12.4101   16.3731 H   0  0  0  0  0  0  0  0  0  0  0  0
   -4.5335  -12.5023   19.2998 H   0  0  0  0  0  0  0  0  0  0  0  0
   -4.3461  -16.0738   20.1504 H   0  0  0  0  0  0  0  0  0  0  0  0
   -7.5843  -16.7092   23.2801 H   0  0  0  0  0  0  0  0  0  0  0  0
   -2.7523   -6.6769   13.6195 H   0  0  0  0  0  0  0  0  0  0  0  0
   -0.4915   -5.1753   16.7916 H   0  0  0  0  0  0  0  0  0  0  0  0
   -1.8930   -7.1153   17.6717 H   0  0  0  0  0  0  0  0  0  0  0  0
  1  2  1  0
  2  3  1  0
  3  4  1  0
  4  5  1  0
  4  6  1  0
  4  7  1  0
  7  8  1  0
  8  9  2  0
  8 10  1  0
 10 11  1  0
 11 12  1  0
 12 13  2  0
 13 14  1  0
 14 15  1  0
  2 16  1  0
 16 17  2  0
 16 18  1  0
 18 19  2  0
 19 20  1  0
 20 21  2  0
 21 22  1  0
 14 10  2  0
 22 18  1  0
  1 23  1  0
  1 24  1  0
  1 25  1  0
  3 26  1  0
  3 27  1  0
  5 28  1  0
  5 29  1  0
  5 30  1  0
  6 31  1  0
  6 32  1  0
  6 33  1  0
  7 34  1  0
 11 35  1  0
 13 36  1  0
 19 37  1  0
 21 38  1  0
 22 39  1  0
M  END
>  <Energy>  (1248) 
713.82568652661473

>  <compound_id>  (1248) 
10080

>  <target_id>  (1248) 
1

>  <reference_id>  (1248) 
96

>  <inspiration_ids>  (1248) 
[96, 114]

>  <energy_score>  (1248) 
713.373572462139

>  <distance_score>  (1248) 
13.94936841991179

>  <path>  (1248) 
/opt/xchem-fragalysis-2/maxwin/BulkDock/SCRATCH/511013/C10080-P96/C10080-P96.minimised.mol

>  <scratch_subdir>  (1248) 
/opt/xchem-fragalysis-2/maxwin/BulkDock/SCRATCH/511013/C10080-P96

>  <fragmenstein_runtime>  (1248) 
16.147752285003662

>  <fragmenstein_outcome>  (1248) 
too moved

>  <fragmenstein_mode>  (1248) 
expansion

>  <fragmenstein_error>  (1248) 


$$$$
C10080-P114
     RDKit          3D

 39 40  0  0  0  0  0  0  0  0999 V2000
    2.2404  -10.1970   18.0637 C   0  0  0  0  0  0  0  0  0  0  0  0
    3.2478  -10.6375   17.1944 N   0  0  0  0  0  0  0  0  0  0  0  0
    3.3354  -12.3304   18.4803 C   0  0  0  0  0  0  0  0  0  0  0  0
    2.4893  -14.2034   19.4765 C   0  0  0  0  0  0  0  0  0  0  0  0
    3.8001  -14.9971   18.5011 C   0  0  0  0  0  0  0  0  0  0  0  0
    1.7732  -14.4253   18.0956 C   0  0  0  0  0  0  0  0  0  0  0  0
    1.2731  -15.1277   21.0593 N   0  0  0  0  0  0  0  0  0  0  0  0
    0.0010  -14.3490   22.5362 C   0  0  0  0  0  0  0  0  0  0  0  0
    0.0051  -13.1583   22.5633 O   0  0  0  0  0  0  0  0  0  0  0  0
   -1.1359  -14.9876   24.0940 C   0  0  0  0  0  0  0  0  0  0  0  0
   -2.4817  -15.4413   24.1705 N   0  0  0  0  0  0  0  0  0  0  0  0
   -2.7889  -16.4041   25.1040 N   0  0  0  0  0  0  0  0  0  0  0  0
   -2.9133  -15.7025   26.1541 C   0  0  0  0  0  0  0  0  0  0  0  0
   -1.9482  -14.4669   25.6678 C   0  0  0  0  0  0  0  0  0  0  0  0
   -1.8172  -14.8511   27.8069 Cl  0  0  0  0  0  0  0  0  0  0  0  0
    4.1568   -9.5482   17.0022 C   0  0  0  0  0  0  0  0  0  0  0  0
    5.1253   -9.2652   17.5799 O   0  0  0  0  0  0  0  0  0  0  0  0
    3.9848   -8.6489   15.8410 C   0  0  0  0  0  0  0  0  0  0  0  0
    4.5344   -7.3854   15.6524 C   0  0  0  0  0  0  0  0  0  0  0  0
    4.4493   -6.9779   14.3534 N   0  0  0  0  0  0  0  0  0  0  0  0
    4.1034   -8.0489   13.6919 C   0  0  0  0  0  0  0  0  0  0  0  0
    3.9014   -9.0946   14.5385 N   0  0  0  0  0  0  0  0  0  0  0  0
    2.1823   -9.7795   19.0765 H   0  0  0  0  0  0  0  0  0  0  0  0
    1.4447   -9.5536   17.6321 H   0  0  0  0  0  0  0  0  0  0  0  0
    2.6174   -9.1321   18.0590 H   0  0  0  0  0  0  0  0  0  0  0  0
    4.3241  -12.4232   19.0432 H   0  0  0  0  0  0  0  0  0  0  0  0
    3.7649  -12.8008   17.6969 H   0  0  0  0  0  0  0  0  0  0  0  0
    4.6866  -14.3848   18.6286 H   0  0  0  0  0  0  0  0  0  0  0  0
    3.7104  -15.1261   17.4514 H   0  0  0  0  0  0  0  0  0  0  0  0
    4.1528  -15.9368   18.8336 H   0  0  0  0  0  0  0  0  0  0  0  0
    2.0763  -14.7199   17.1141 H   0  0  0  0  0  0  0  0  0  0  0  0
    1.7412  -15.4092   18.4987 H   0  0  0  0  0  0  0  0  0  0  0  0
    0.8441  -13.8947   17.9042 H   0  0  0  0  0  0  0  0  0  0  0  0
    1.1538  -16.1436   21.0310 H   0  0  0  0  0  0  0  0  0  0  0  0
   -3.0553  -15.3945   23.3523 H   0  0  0  0  0  0  0  0  0  0  0  0
   -3.5048  -16.0301   27.0120 H   0  0  0  0  0  0  0  0  0  0  0  0
    4.9825   -6.7536   16.4076 H   0  0  0  0  0  0  0  0  0  0  0  0
    4.0069   -8.1354   12.6182 H   0  0  0  0  0  0  0  0  0  0  0  0
    3.7666  -10.0617   14.2824 H   0  0  0  0  0  0  0  0  0  0  0  0
  1  2  1  0
  2  3  1  0
  3  4  1  0
  4  5  1  0
  4  6  1  0
  4  7  1  0
  7  8  1  0
  8  9  2  0
  8 10  1  0
 10 11  1  0
 11 12  1  0
 12 13  2  0
 13 14  1  0
 14 15  1  0
  2 16  1  0
 16 17  2  0
 16 18  1  0
 18 19  2  0
 19 20  1  0
 20 21  2  0
 21 22  1  0
 14 10  2  0
 22 18  1  0
  1 23  1  0
  1 24  1  0
  1 25  1  0
  3 26  1  0
  3 27  1  0
  5 28  1  0
  5 29  1  0
  5 30  1  0
  6 31  1  0
  6 32  1  0
  6 33  1  0
  7 34  1  0
 11 35  1  0
 13 36  1  0
 19 37  1  0
 21 38  1  0
 22 39  1  0
M  END
>  <Energy>  (1249) 
1369.4420960209407

>  <compound_id>  (1249) 
10080

>  <target_id>  (1249) 
1

>  <reference_id>  (1249) 
114

>  <inspiration_ids>  (1249) 
[96, 114]

>  <energy_score>  (1249) 
1368.989981956478

>  <distance_score>  (1249) 
11.909931211917133

>  <path>  (1249) 
/opt/xchem-fragalysis-2/maxwin/BulkDock/SCRATCH/511013/C10080-P114/C10080-P114.minimised.mol

>  <scratch_subdir>  (1249) 
/opt/xchem-fragalysis-2/maxwin/BulkDock/SCRATCH/511013/C10080-P114

>  <fragmenstein_runtime>  (1249) 
17.66814160346985

>  <fragmenstein_outcome>  (1249) 
too moved

>  <fragmenstein_mode>  (1249) 
expansion

>  <fragmenstein_error>  (1249) 


$$$$
C10081-P96
     RDKit          3D

 34 35  0  0  0  0  0  0  0  0999 V2000
    2.2198  -12.3122   18.8858 O   0  0  0  0  0  0  0  0  0  0  0  0
    2.6414  -11.5522   19.6409 C   0  0  0  0  0  0  0  0  0  0  0  0
    1.9844  -11.6370   21.3602 N   0  0  0  0  0  0  0  0  0  0  0  0
    0.5884  -12.7160   22.1250 C   0  0  0  0  0  0  0  0  0  0  0  0
   -1.3031  -12.8067   22.3922 C   0  0  0  0  0  0  0  0  0  0  0  0
   -1.1598  -11.3361   20.9085 C   0  0  0  0  0  0  0  0  0  0  0  0
    0.0845  -10.4439   20.9223 O   0  0  0  0  0  0  0  0  0  0  0  0
   -2.4915  -13.3276   23.9826 N   0  0  0  0  0  0  0  0  0  0  0  0
   -2.7554  -15.0407   24.9223 C   0  0  0  0  0  0  0  0  0  0  0  0
   -2.2146  -16.0150   24.4722 O   0  0  0  0  0  0  0  0  0  0  0  0
   -3.5275  -15.4769   26.4876 C   0  0  0  0  0  0  0  0  0  0  0  0
   -2.8537  -16.8460   26.8262 N   0  0  0  0  0  0  0  0  0  0  0  0
   -3.3180  -17.5479   27.8801 N   0  0  0  0  0  0  0  0  0  0  0  0
   -4.3655  -16.8381   28.2567 C   0  0  0  0  0  0  0  0  0  0  0  0
   -4.6270  -15.6560   27.4589 C   0  0  0  0  0  0  0  0  0  0  0  0
   -6.2600  -15.1518   27.8033 Cl  0  0  0  0  0  0  0  0  0  0  0  0
    3.9230  -10.6469   18.8751 C   0  0  0  0  0  0  0  0  0  0  0  0
    5.1992   -9.9034   18.9265 C   0  0  0  0  0  0  0  0  0  0  0  0
    5.7352   -9.5715   17.7360 N   0  0  0  0  0  0  0  0  0  0  0  0
    4.8300  -10.1074   16.9784 C   0  0  0  0  0  0  0  0  0  0  0  0
    4.2140  -11.1406   17.6197 N   0  0  0  0  0  0  0  0  0  0  0  0
    2.4904  -10.9845   21.9245 H   0  0  0  0  0  0  0  0  0  0  0  0
    1.2834  -13.5292   21.9831 H   0  0  0  0  0  0  0  0  0  0  0  0
    0.2715  -13.2650   21.2054 H   0  0  0  0  0  0  0  0  0  0  0  0
   -1.7130  -13.5808   21.7314 H   0  0  0  0  0  0  0  0  0  0  0  0
   -1.4111  -10.1982   20.6179 H   0  0  0  0  0  0  0  0  0  0  0  0
   -2.1578  -11.1096   19.9836 H   0  0  0  0  0  0  0  0  0  0  0  0
    0.4757  -10.4359   21.8156 H   0  0  0  0  0  0  0  0  0  0  0  0
   -2.9287  -12.5946   24.5173 H   0  0  0  0  0  0  0  0  0  0  0  0
   -2.2651  -17.2873   26.1338 H   0  0  0  0  0  0  0  0  0  0  0  0
   -4.9729  -17.2258   29.0643 H   0  0  0  0  0  0  0  0  0  0  0  0
    5.7445   -9.5157   19.7903 H   0  0  0  0  0  0  0  0  0  0  0  0
    4.6375   -9.8508   15.9366 H   0  0  0  0  0  0  0  0  0  0  0  0
    3.5866  -11.8348   17.2430 H   0  0  0  0  0  0  0  0  0  0  0  0
  1  2  2  0
  2  3  1  0
  3  4  1  0
  4  5  1  0
  5  6  1  0
  6  7  1  0
  5  8  1  0
  8  9  1  0
  9 10  2  0
  9 11  1  0
 11 12  1  0
 12 13  1  0
 13 14  2  0
 14 15  1  0
 15 16  1  0
  2 17  1  0
 17 18  2  0
 18 19  1  0
 19 20  2  0
 20 21  1  0
 15 11  2  0
 21 17  1  0
  3 22  1  0
  4 23  1  0
  4 24  1  0
  5 25  1  0
  6 26  1  0
  6 27  1  0
  7 28  1  0
  8 29  1  0
 12 30  1  0
 14 31  1  0
 18 32  1  0
 20 33  1  0
 21 34  1  0
M  END
>  <Energy>  (1250) 
827.27104683623656

>  <compound_id>  (1250) 
10081

>  <target_id>  (1250) 
1

>  <reference_id>  (1250) 
96

>  <inspiration_ids>  (1250) 
[96, 114]

>  <energy_score>  (1250) 
848.258617095717

>  <distance_score>  (1250) 
11.434984221665927

>  <path>  (1250) 
/opt/xchem-fragalysis-2/maxwin/BulkDock/SCRATCH/511013/C10081-P96/C10081-P96.minimised.mol

>  <scratch_subdir>  (1250) 
/opt/xchem-fragalysis-2/maxwin/BulkDock/SCRATCH/511013/C10081-P96

>  <fragmenstein_runtime>  (1250) 
14.491745710372925

>  <fragmenstein_outcome>  (1250) 
too moved

>  <fragmenstein_mode>  (1250) 
expansion

>  <fragmenstein_error>  (1250) 


$$$$
C10081-P114
     RDKit          3D

 34 35  0  0  0  0  0  0  0  0999 V2000
    3.9797  -11.4952   22.3550 O   0  0  0  0  0  0  0  0  0  0  0  0
    4.2614  -12.3023   21.5313 C   0  0  0  0  0  0  0  0  0  0  0  0
    3.9817  -13.6263   21.4499 N   0  0  0  0  0  0  0  0  0  0  0  0
    3.1538  -14.9192   22.8162 C   0  0  0  0  0  0  0  0  0  0  0  0
    3.4688  -16.9795   23.5063 C   0  0  0  0  0  0  0  0  0  0  0  0
    3.4919  -19.0028   22.8757 C   0  0  0  0  0  0  0  0  0  0  0  0
    2.7305  -19.7263   21.8150 O   0  0  0  0  0  0  0  0  0  0  0  0
    3.2030  -17.8740   25.1971 N   0  0  0  0  0  0  0  0  0  0  0  0
    2.3571  -19.0821   25.5614 C   0  0  0  0  0  0  0  0  0  0  0  0
    1.7116  -19.8216   24.8673 O   0  0  0  0  0  0  0  0  0  0  0  0
    2.1862  -19.3750   26.9892 C   0  0  0  0  0  0  0  0  0  0  0  0
    1.6966  -18.4934   27.9232 N   0  0  0  0  0  0  0  0  0  0  0  0
    1.1350  -19.0625   29.0072 N   0  0  0  0  0  0  0  0  0  0  0  0
    1.3166  -20.3677   28.7993 C   0  0  0  0  0  0  0  0  0  0  0  0
    1.9781  -20.6175   27.5813 C   0  0  0  0  0  0  0  0  0  0  0  0
    2.3249  -22.1633   26.9726 Cl  0  0  0  0  0  0  0  0  0  0  0  0
    5.2779  -11.8186   20.4395 C   0  0  0  0  0  0  0  0  0  0  0  0
    6.6047  -11.5922   21.2108 C   0  0  0  0  0  0  0  0  0  0  0  0
    7.7606  -11.2734   20.6577 N   0  0  0  0  0  0  0  0  0  0  0  0
    7.2500  -10.9542   19.5454 C   0  0  0  0  0  0  0  0  0  0  0  0
    5.9458  -11.5037   19.2858 N   0  0  0  0  0  0  0  0  0  0  0  0
    4.4469  -13.9956   20.6641 H   0  0  0  0  0  0  0  0  0  0  0  0
    2.3393  -14.4273   23.3136 H   0  0  0  0  0  0  0  0  0  0  0  0
    3.7370  -14.6120   23.7101 H   0  0  0  0  0  0  0  0  0  0  0  0
    4.3256  -16.4177   24.0602 H   0  0  0  0  0  0  0  0  0  0  0  0
    4.4588  -19.2538   22.3310 H   0  0  0  0  0  0  0  0  0  0  0  0
    3.4773  -19.7303   23.7003 H   0  0  0  0  0  0  0  0  0  0  0  0
    1.8447  -19.7740   22.2275 H   0  0  0  0  0  0  0  0  0  0  0  0
    3.6779  -17.5330   26.0295 H   0  0  0  0  0  0  0  0  0  0  0  0
    1.6184  -17.4874   27.8395 H   0  0  0  0  0  0  0  0  0  0  0  0
    0.9574  -21.0787   29.5323 H   0  0  0  0  0  0  0  0  0  0  0  0
    6.7272  -11.4608   22.2877 H   0  0  0  0  0  0  0  0  0  0  0  0
    7.8740  -10.4995   18.7752 H   0  0  0  0  0  0  0  0  0  0  0  0
    5.4627  -11.2827   18.4231 H   0  0  0  0  0  0  0  0  0  0  0  0
  1  2  2  0
  2  3  1  0
  3  4  1  0
  4  5  1  0
  5  6  1  0
  6  7  1  0
  5  8  1  0
  8  9  1  0
  9 10  2  0
  9 11  1  0
 11 12  1  0
 12 13  1  0
 13 14  2  0
 14 15  1  0
 15 16  1  0
  2 17  1  0
 17 18  2  0
 18 19  1  0
 19 20  2  0
 20 21  1  0
 15 11  2  0
 21 17  1  0
  3 22  1  0
  4 23  1  0
  4 24  1  0
  5 25  1  0
  6 26  1  0
  6 27  1  0
  7 28  1  0
  8 29  1  0
 12 30  1  0
 14 31  1  0
 18 32  1  0
 20 33  1  0
 21 34  1  0
M  END
>  <Energy>  (1251) 
547.51924808265892

>  <compound_id>  (1251) 
10081

>  <target_id>  (1251) 
1

>  <reference_id>  (1251) 
114

>  <inspiration_ids>  (1251) 
[96, 114]

>  <energy_score>  (1251) 
568.5068183421331

>  <distance_score>  (1251) 
12.9822763893317

>  <path>  (1251) 
/opt/xchem-fragalysis-2/maxwin/BulkDock/SCRATCH/511013/C10081-P114/C10081-P114.minimised.mol

>  <scratch_subdir>  (1251) 
/opt/xchem-fragalysis-2/maxwin/BulkDock/SCRATCH/511013/C10081-P114

>  <fragmenstein_runtime>  (1251) 
22.847779989242554

>  <fragmenstein_outcome>  (1251) 
too moved

>  <fragmenstein_mode>  (1251) 
expansion

>  <fragmenstein_error>  (1251) 


$$$$
C35943-P85
     RDKit          3D

 37 39  0  0  0  0  0  0  0  0999 V2000
   -8.9302  -20.1576   17.5842 O   0  0  0  0  0  0  0  0  0  0  0  0
   -8.5389  -20.1339   18.7096 C   0  0  0  0  0  0  0  0  0  0  0  0
   -7.0283  -19.4864   19.3864 N   0  0  0  0  0  0  0  0  0  0  0  0
   -5.7832  -18.6232   18.6629 C   0  0  0  0  0  0  0  0  0  0  0  0
   -4.3249  -18.7735   17.5476 C   0  0  0  0  0  0  0  0  0  0  0  0
   -2.8510  -18.1056   16.8276 N   0  0  0  0  0  0  0  0  0  0  0  0
   -0.9753  -18.4744   17.3851 C   0  0  0  0  0  0  0  0  0  0  0  0
    0.5998  -19.6046   17.1570 C   0  0  0  0  0  0  0  0  0  0  0  0
    1.3761  -19.5655   15.9787 C   0  0  0  0  0  0  0  0  0  0  0  0
    0.3091  -18.7930   14.5988 C   0  0  0  0  0  0  0  0  0  0  0  0
   -1.6760  -18.5593   15.1691 C   0  0  0  0  0  0  0  0  0  0  0  0
   -9.6921  -20.7181   19.8639 C   0  0  0  0  0  0  0  0  0  0  0  0
   -9.5383  -20.3298   21.3133 C   0  0  0  0  0  0  0  0  0  0  0  0
  -10.5560  -20.6703   22.1107 C   0  0  0  0  0  0  0  0  0  0  0  0
  -11.6360  -21.3581   21.6415 N   0  0  0  0  0  0  0  0  0  0  0  0
  -12.7731  -21.7387   22.3016 C   0  0  0  0  0  0  0  0  0  0  0  0
  -13.5330  -22.3455   21.3368 C   0  0  0  0  0  0  0  0  0  0  0  0
  -12.8618  -22.3803   20.1348 N   0  0  0  0  0  0  0  0  0  0  0  0
  -11.7231  -21.7346   20.3168 C   0  0  0  0  0  0  0  0  0  0  0  0
  -10.7360  -21.3875   19.4178 N   0  0  0  0  0  0  0  0  0  0  0  0
   -7.0351  -19.5484   20.3961 H   0  0  0  0  0  0  0  0  0  0  0  0
   -6.3306  -17.7447   18.4425 H   0  0  0  0  0  0  0  0  0  0  0  0
   -5.2643  -18.3813   19.5942 H   0  0  0  0  0  0  0  0  0  0  0  0
   -4.7198  -18.8855   16.6306 H   0  0  0  0  0  0  0  0  0  0  0  0
   -4.2167  -19.7490   17.8619 H   0  0  0  0  0  0  0  0  0  0  0  0
   -1.1474  -19.1491   18.0865 H   0  0  0  0  0  0  0  0  0  0  0  0
   -0.6313  -17.5977   17.8712 H   0  0  0  0  0  0  0  0  0  0  0  0
    1.0538  -20.0218   18.0526 H   0  0  0  0  0  0  0  0  0  0  0  0
    2.3241  -20.0096   15.7231 H   0  0  0  0  0  0  0  0  0  0  0  0
    1.0166  -18.0704   14.3531 H   0  0  0  0  0  0  0  0  0  0  0  0
    0.3670  -19.4665   13.6931 H   0  0  0  0  0  0  0  0  0  0  0  0
   -1.9195  -19.4340   14.6467 H   0  0  0  0  0  0  0  0  0  0  0  0
   -2.2668  -17.9419   14.4927 H   0  0  0  0  0  0  0  0  0  0  0  0
   -8.7049  -19.7401   21.6621 H   0  0  0  0  0  0  0  0  0  0  0  0
  -10.6513  -20.3857   23.1339 H   0  0  0  0  0  0  0  0  0  0  0  0
  -12.9510  -21.5219   23.3452 H   0  0  0  0  0  0  0  0  0  0  0  0
  -14.5233  -22.7705   21.4355 H   0  0  0  0  0  0  0  0  0  0  0  0
  1  2  2  0
  2  3  1  0
  3  4  1  0
  4  5  1  0
  5  6  1  0
  6  7  1  0
  7  8  1  0
  8  9  2  0
  9 10  1  0
 10 11  1  0
  2 12  1  0
 12 13  1  0
 13 14  2  0
 14 15  1  0
 15 16  1  0
 16 17  2  0
 17 18  1  0
 18 19  2  0
 19 20  1  0
 11  6  1  0
 20 12  2  0
 19 15  1  0
  3 21  1  0
  4 22  1  0
  4 23  1  0
  5 24  1  0
  5 25  1  0
  7 26  1  0
  7 27  1  0
  8 28  1  0
  9 29  1  0
 10 30  1  0
 10 31  1  0
 11 32  1  0
 11 33  1  0
 13 34  1  0
 14 35  1  0
 16 36  1  0
 17 37  1  0
M  END
>  <Energy>  (1252) 
743.10067652610962

>  <compound_id>  (1252) 
35943

>  <target_id>  (1252) 
1

>  <reference_id>  (1252) 
85

>  <inspiration_ids>  (1252) 
[85, 107]

>  <energy_score>  (1252) 
628.8946034824012

>  <distance_score>  (1252) 
9.612668573594044

>  <path>  (1252) 
/opt/xchem-fragalysis-2/maxwin/BulkDock/SCRATCH/511013/C35943-P85/C35943-P85.minimised.mol

>  <scratch_subdir>  (1252) 
/opt/xchem-fragalysis-2/maxwin/BulkDock/SCRATCH/511013/C35943-P85

>  <fragmenstein_runtime>  (1252) 
9.341981172561646

>  <fragmenstein_outcome>  (1252) 
too moved

>  <fragmenstein_mode>  (1252) 
expansion

>  <fragmenstein_error>  (1252) 


$$$$
C35943-P107
     RDKit          3D

 37 39  0  0  0  0  0  0  0  0999 V2000
   -9.9183  -17.4137   23.5194 O   0  0  0  0  0  0  0  0  0  0  0  0
   -9.4750  -18.5057   23.2408 C   0  0  0  0  0  0  0  0  0  0  0  0
   -8.0304  -18.9146   22.6163 N   0  0  0  0  0  0  0  0  0  0  0  0
   -6.9142  -18.0642   22.1234 C   0  0  0  0  0  0  0  0  0  0  0  0
   -6.1166  -18.4950   20.7087 C   0  0  0  0  0  0  0  0  0  0  0  0
   -5.0626  -17.8767   19.7196 N   0  0  0  0  0  0  0  0  0  0  0  0
   -3.6123  -17.1702   20.0081 C   0  0  0  0  0  0  0  0  0  0  0  0
   -2.3685  -17.8286   19.7586 C   0  0  0  0  0  0  0  0  0  0  0  0
   -2.4488  -18.3008   18.5466 C   0  0  0  0  0  0  0  0  0  0  0  0
   -3.7965  -18.2237   17.8141 C   0  0  0  0  0  0  0  0  0  0  0  0
   -4.7841  -18.8873   18.7128 C   0  0  0  0  0  0  0  0  0  0  0  0
  -10.5057  -20.2616   23.3293 C   0  0  0  0  0  0  0  0  0  0  0  0
  -10.0302  -21.5317   22.6419 C   0  0  0  0  0  0  0  0  0  0  0  0
  -10.3636  -22.6568   23.2948 C   0  0  0  0  0  0  0  0  0  0  0  0
  -11.5867  -22.7076   23.9238 N   0  0  0  0  0  0  0  0  0  0  0  0
  -12.2874  -23.5569   24.7359 C   0  0  0  0  0  0  0  0  0  0  0  0
  -13.5874  -23.2161   24.3859 C   0  0  0  0  0  0  0  0  0  0  0  0
  -13.5983  -22.0259   23.6713 N   0  0  0  0  0  0  0  0  0  0  0  0
  -12.3550  -21.6037   23.8050 C   0  0  0  0  0  0  0  0  0  0  0  0
  -11.6901  -20.4233   23.9382 N   0  0  0  0  0  0  0  0  0  0  0  0
   -7.9476  -19.9200   22.5823 H   0  0  0  0  0  0  0  0  0  0  0  0
   -6.2290  -17.9922   22.9459 H   0  0  0  0  0  0  0  0  0  0  0  0
   -7.5034  -17.1868   21.8652 H   0  0  0  0  0  0  0  0  0  0  0  0
   -5.8822  -19.5530   20.7990 H   0  0  0  0  0  0  0  0  0  0  0  0
   -6.9606  -18.5492   20.0451 H   0  0  0  0  0  0  0  0  0  0  0  0
   -3.4135  -16.4239   19.2578 H   0  0  0  0  0  0  0  0  0  0  0  0
   -3.6256  -16.5778   20.9310 H   0  0  0  0  0  0  0  0  0  0  0  0
   -1.4418  -17.6019   20.2627 H   0  0  0  0  0  0  0  0  0  0  0  0
   -1.4596  -18.3958   18.1289 H   0  0  0  0  0  0  0  0  0  0  0  0
   -4.1177  -17.1912   17.6036 H   0  0  0  0  0  0  0  0  0  0  0  0
   -3.7659  -18.5677   16.8150 H   0  0  0  0  0  0  0  0  0  0  0  0
   -5.7163  -19.1417   18.2461 H   0  0  0  0  0  0  0  0  0  0  0  0
   -4.3744  -19.7904   19.1717 H   0  0  0  0  0  0  0  0  0  0  0  0
   -9.2616  -21.4152   21.9401 H   0  0  0  0  0  0  0  0  0  0  0  0
   -9.7165  -23.5117   23.3480 H   0  0  0  0  0  0  0  0  0  0  0  0
  -11.8516  -24.3815   25.2774 H   0  0  0  0  0  0  0  0  0  0  0  0
  -14.5105  -23.7269   24.6233 H   0  0  0  0  0  0  0  0  0  0  0  0
  1  2  2  0
  2  3  1  0
  3  4  1  0
  4  5  1  0
  5  6  1  0
  6  7  1  0
  7  8  1  0
  8  9  2  0
  9 10  1  0
 10 11  1  0
  2 12  1  0
 12 13  1  0
 13 14  2  0
 14 15  1  0
 15 16  1  0
 16 17  2  0
 17 18  1  0
 18 19  2  0
 19 20  1  0
 11  6  1  0
 20 12  2  0
 19 15  1  0
  3 21  1  0
  4 22  1  0
  4 23  1  0
  5 24  1  0
  5 25  1  0
  7 26  1  0
  7 27  1  0
  8 28  1  0
  9 29  1  0
 10 30  1  0
 10 31  1  0
 11 32  1  0
 11 33  1  0
 13 34  1  0
 14 35  1  0
 16 36  1  0
 17 37  1  0
M  END
>  <Energy>  (1253) 
318.20099782662714

>  <compound_id>  (1253) 
35943

>  <target_id>  (1253) 
1

>  <reference_id>  (1253) 
107

>  <inspiration_ids>  (1253) 
[85, 107]

>  <energy_score>  (1253) 
203.9949247829308

>  <distance_score>  (1253) 
9.619502102636012

>  <path>  (1253) 
/opt/xchem-fragalysis-2/maxwin/BulkDock/SCRATCH/511013/C35943-P107/C35943-P107.minimised.mol

>  <scratch_subdir>  (1253) 
/opt/xchem-fragalysis-2/maxwin/BulkDock/SCRATCH/511013/C35943-P107

>  <fragmenstein_runtime>  (1253) 
15.125713109970093

>  <fragmenstein_outcome>  (1253) 
too moved

>  <fragmenstein_mode>  (1253) 
expansion

>  <fragmenstein_error>  (1253) 


$$$$
C35952-P85
     RDKit          3D

 41 42  0  0  0  0  0  0  0  0999 V2000
    1.4077  -10.5606   11.5700 C   0  0  0  0  0  0  0  0  0  0  0  0
    3.0682  -10.3057   12.3478 C   0  0  0  0  0  0  0  0  0  0  0  0
    3.6227  -10.9173   10.9324 C   0  0  0  0  0  0  0  0  0  0  0  0
    3.6218   -9.8311   14.2573 N   0  0  0  0  0  0  0  0  0  0  0  0
    2.8676   -8.5355   15.5190 C   0  0  0  0  0  0  0  0  0  0  0  0
    2.6518   -8.6005   17.2733 C   0  0  0  0  0  0  0  0  0  0  0  0
    1.4141   -8.3392   18.8831 C   0  0  0  0  0  0  0  0  0  0  0  0
    0.8084   -7.9679   20.7871 N   0  0  0  0  0  0  0  0  0  0  0  0
    0.7931   -6.4135   21.8070 C   0  0  0  0  0  0  0  0  0  0  0  0
    1.0825   -5.2457   21.4570 O   0  0  0  0  0  0  0  0  0  0  0  0
    0.4079   -6.6542   23.7371 C   0  0  0  0  0  0  0  0  0  0  0  0
    1.4901   -7.2953   24.7613 C   0  0  0  0  0  0  0  0  0  0  0  0
    1.4306   -7.4025   26.0996 C   0  0  0  0  0  0  0  0  0  0  0  0
    0.2805   -7.0214   26.9352 C   0  0  0  0  0  0  0  0  0  0  0  0
   -0.6409   -6.2219   26.1862 N   0  0  0  0  0  0  0  0  0  0  0  0
   -0.8842   -6.5632   24.7695 C   0  0  0  0  0  0  0  0  0  0  0  0
    3.1062   -9.9989   17.4508 C   0  0  0  0  0  0  0  0  0  0  0  0
    2.5472  -10.1559   18.4896 O   0  0  0  0  0  0  0  0  0  0  0  0
    3.5834  -10.9751   16.5298 N   0  0  0  0  0  0  0  0  0  0  0  0
    4.1850  -10.9353   14.9534 C   0  0  0  0  0  0  0  0  0  0  0  0
    5.0713  -11.6975   14.5688 O   0  0  0  0  0  0  0  0  0  0  0  0
    1.2641   -9.9741   10.6784 H   0  0  0  0  0  0  0  0  0  0  0  0
    1.2486  -11.6212   11.4047 H   0  0  0  0  0  0  0  0  0  0  0  0
    0.5343  -10.3517   12.1441 H   0  0  0  0  0  0  0  0  0  0  0  0
    2.4031  -10.8957   12.9650 H   0  0  0  0  0  0  0  0  0  0  0  0
    3.9683  -11.9495   10.9045 H   0  0  0  0  0  0  0  0  0  0  0  0
    4.2696  -10.2014   10.4660 H   0  0  0  0  0  0  0  0  0  0  0  0
    2.8852  -11.0520   10.1431 H   0  0  0  0  0  0  0  0  0  0  0  0
    3.3876   -7.5841   15.2409 H   0  0  0  0  0  0  0  0  0  0  0  0
    2.1622   -7.5846   19.0836 H   0  0  0  0  0  0  0  0  0  0  0  0
    0.4390   -8.4003   18.3704 H   0  0  0  0  0  0  0  0  0  0  0  0
    0.6140   -8.7454   21.3586 H   0  0  0  0  0  0  0  0  0  0  0  0
    0.5815   -5.5794   23.8438 H   0  0  0  0  0  0  0  0  0  0  0  0
    2.3743   -7.7942   24.3640 H   0  0  0  0  0  0  0  0  0  0  0  0
    2.2532   -7.8948   26.6174 H   0  0  0  0  0  0  0  0  0  0  0  0
   -0.2109   -7.9256   27.3112 H   0  0  0  0  0  0  0  0  0  0  0  0
    0.6284   -6.4530   27.8038 H   0  0  0  0  0  0  0  0  0  0  0  0
   -1.5026   -6.1051   26.7176 H   0  0  0  0  0  0  0  0  0  0  0  0
   -1.5597   -5.7788   24.4364 H   0  0  0  0  0  0  0  0  0  0  0  0
   -1.5014   -7.4502   24.7853 H   0  0  0  0  0  0  0  0  0  0  0  0
    3.6671  -11.8743   17.0171 H   0  0  0  0  0  0  0  0  0  0  0  0
  1  2  1  0
  2  3  1  0
  2  4  1  0
  4  5  1  0
  5  6  2  0
  6  7  1  0
  7  8  1  0
  8  9  1  0
  9 10  2  0
  9 11  1  0
 11 12  1  0
 12 13  2  0
 13 14  1  0
 14 15  1  0
 15 16  1  0
  6 17  1  0
 17 18  2  0
 17 19  1  0
 19 20  1  0
 20 21  2  0
 20  4  1  0
 16 11  1  0
  1 22  1  0
  1 23  1  0
  1 24  1  0
  2 25  1  0
  3 26  1  0
  3 27  1  0
  3 28  1  0
  5 29  1  0
  7 30  1  0
  7 31  1  0
  8 32  1  0
 11 33  1  0
 12 34  1  0
 13 35  1  0
 14 36  1  0
 14 37  1  0
 15 38  1  0
 16 39  1  0
 16 40  1  0
 19 41  1  0
M  END
>  <Energy>  (1254) 
886.59716418606308

>  <compound_id>  (1254) 
35952

>  <target_id>  (1254) 
1

>  <reference_id>  (1254) 
85

>  <inspiration_ids>  (1254) 
[85, 70]

>  <energy_score>  (1254) 
912.544960607707

>  <distance_score>  (1254) 
9.32966909823394

>  <path>  (1254) 
/opt/xchem-fragalysis-2/maxwin/BulkDock/SCRATCH/511013/C35952-P85/C35952-P85.minimised.mol

>  <scratch_subdir>  (1254) 
/opt/xchem-fragalysis-2/maxwin/BulkDock/SCRATCH/511013/C35952-P85

>  <fragmenstein_runtime>  (1254) 
14.927716970443726

>  <fragmenstein_outcome>  (1254) 
too moved

>  <fragmenstein_mode>  (1254) 
expansion

>  <fragmenstein_error>  (1254) 


$$$$
C35952-P70
     RDKit          3D

 41 42  0  0  0  0  0  0  0  0999 V2000
   -4.7061  -14.7096   13.3863 C   0  0  0  0  0  0  0  0  0  0  0  0
   -5.1065  -15.0865   14.8458 C   0  0  0  0  0  0  0  0  0  0  0  0
   -6.5269  -14.6283   15.1905 C   0  0  0  0  0  0  0  0  0  0  0  0
   -4.0690  -14.7892   15.8668 N   0  0  0  0  0  0  0  0  0  0  0  0
   -4.1398  -13.8011   16.9043 C   0  0  0  0  0  0  0  0  0  0  0  0
   -3.0363  -13.2872   17.5217 C   0  0  0  0  0  0  0  0  0  0  0  0
   -2.6487  -12.1162   18.5755 C   0  0  0  0  0  0  0  0  0  0  0  0
   -3.0276  -10.7239   19.1940 N   0  0  0  0  0  0  0  0  0  0  0  0
   -2.7586   -9.3393   18.7152 C   0  0  0  0  0  0  0  0  0  0  0  0
   -2.2580   -8.9542   17.6932 O   0  0  0  0  0  0  0  0  0  0  0  0
   -3.0765   -7.9193   19.8267 C   0  0  0  0  0  0  0  0  0  0  0  0
   -3.0765   -6.2637   18.7683 C   0  0  0  0  0  0  0  0  0  0  0  0
   -3.9008   -4.8258   19.2439 C   0  0  0  0  0  0  0  0  0  0  0  0
   -4.6573   -4.8489   20.9481 C   0  0  0  0  0  0  0  0  0  0  0  0
   -4.4187   -6.0412   21.9493 N   0  0  0  0  0  0  0  0  0  0  0  0
   -3.8009   -7.5462   21.4522 C   0  0  0  0  0  0  0  0  0  0  0  0
   -1.8299  -14.1253   17.0242 C   0  0  0  0  0  0  0  0  0  0  0  0
   -0.6738  -13.7458   16.9363 O   0  0  0  0  0  0  0  0  0  0  0  0
   -2.0329  -15.4210   16.7229 N   0  0  0  0  0  0  0  0  0  0  0  0
   -2.9461  -15.6140   15.7596 C   0  0  0  0  0  0  0  0  0  0  0  0
   -2.7656  -16.4663   14.8945 O   0  0  0  0  0  0  0  0  0  0  0  0
   -4.9642  -13.6815   13.1270 H   0  0  0  0  0  0  0  0  0  0  0  0
   -5.2614  -15.3455   12.6868 H   0  0  0  0  0  0  0  0  0  0  0  0
   -3.6405  -14.8525   13.1901 H   0  0  0  0  0  0  0  0  0  0  0  0
   -5.1751  -16.1851   14.8396 H   0  0  0  0  0  0  0  0  0  0  0  0
   -6.8290  -15.0138   16.1705 H   0  0  0  0  0  0  0  0  0  0  0  0
   -6.6327  -13.5413   15.2151 H   0  0  0  0  0  0  0  0  0  0  0  0
   -7.2394  -15.0094   14.4507 H   0  0  0  0  0  0  0  0  0  0  0  0
   -5.1202  -13.3729   17.0901 H   0  0  0  0  0  0  0  0  0  0  0  0
   -1.7018  -11.7858   18.1480 H   0  0  0  0  0  0  0  0  0  0  0  0
   -2.4827  -12.6771   19.5023 H   0  0  0  0  0  0  0  0  0  0  0  0
   -3.3853  -10.6840   20.1381 H   0  0  0  0  0  0  0  0  0  0  0  0
   -2.1167   -8.2255   20.3059 H   0  0  0  0  0  0  0  0  0  0  0  0
   -3.2424   -6.5390   17.7132 H   0  0  0  0  0  0  0  0  0  0  0  0
   -4.4134   -4.1439   18.5540 H   0  0  0  0  0  0  0  0  0  0  0  0
   -4.4025   -3.9870   21.5536 H   0  0  0  0  0  0  0  0  0  0  0  0
   -5.7370   -4.7627   20.7580 H   0  0  0  0  0  0  0  0  0  0  0  0
   -5.2607   -6.2130   22.4975 H   0  0  0  0  0  0  0  0  0  0  0  0
   -2.9338   -7.8312   22.0691 H   0  0  0  0  0  0  0  0  0  0  0  0
   -4.4728   -8.2349   21.9834 H   0  0  0  0  0  0  0  0  0  0  0  0
   -1.1685  -15.8751   16.4593 H   0  0  0  0  0  0  0  0  0  0  0  0
  1  2  1  0
  2  3  1  0
  2  4  1  0
  4  5  1  0
  5  6  2  0
  6  7  1  0
  7  8  1  0
  8  9  1  0
  9 10  2  0
  9 11  1  0
 11 12  1  0
 12 13  2  0
 13 14  1  0
 14 15  1  0
 15 16  1  0
  6 17  1  0
 17 18  2  0
 17 19  1  0
 19 20  1  0
 20 21  2  0
 20  4  1  0
 16 11  1  0
  1 22  1  0
  1 23  1  0
  1 24  1  0
  2 25  1  0
  3 26  1  0
  3 27  1  0
  3 28  1  0
  5 29  1  0
  7 30  1  0
  7 31  1  0
  8 32  1  0
 11 33  1  0
 12 34  1  0
 13 35  1  0
 14 36  1  0
 14 37  1  0
 15 38  1  0
 16 39  1  0
 16 40  1  0
 19 41  1  0
M  END
>  <Energy>  (1255) 
263.80332154008551

>  <compound_id>  (1255) 
35952

>  <target_id>  (1255) 
1

>  <reference_id>  (1255) 
70

>  <inspiration_ids>  (1255) 
[85, 70]

>  <energy_score>  (1255) 
289.751117961726

>  <distance_score>  (1255) 
11.328705572309328

>  <path>  (1255) 
/opt/xchem-fragalysis-2/maxwin/BulkDock/SCRATCH/511013/C35952-P70/C35952-P70.minimised.mol

>  <scratch_subdir>  (1255) 
/opt/xchem-fragalysis-2/maxwin/BulkDock/SCRATCH/511013/C35952-P70

>  <fragmenstein_runtime>  (1255) 
18.10281991958618

>  <fragmenstein_outcome>  (1255) 
too moved

>  <fragmenstein_mode>  (1255) 
expansion

>  <fragmenstein_error>  (1255) 


$$$$
C35989-P85
     RDKit          3D

 36 37  0  0  0  0  0  0  0  0999 V2000
    1.4480  -12.5308    5.6523 C   0  0  0  0  0  0  0  0  0  0  0  0
    2.8563  -12.6396    6.1960 C   0  0  0  0  0  0  0  0  0  0  0  0
    3.1012  -11.4572    7.1269 C   0  0  0  0  0  0  0  0  0  0  0  0
    3.2316  -13.8936    6.8629 N   0  0  0  0  0  0  0  0  0  0  0  0
    2.3315  -14.9147    7.1607 C   0  0  0  0  0  0  0  0  0  0  0  0
    2.7240  -16.0467    7.7820 C   0  0  0  0  0  0  0  0  0  0  0  0
    1.7252  -17.1835    7.9410 C   0  0  0  0  0  0  0  0  0  0  0  0
    0.6397  -17.1083    7.4968 O   0  0  0  0  0  0  0  0  0  0  0  0
    2.4235  -18.3356    8.6287 N   0  0  0  0  0  0  0  0  0  0  0  0
    2.1980  -18.2951   10.1479 C   0  0  0  0  0  0  0  0  0  0  0  0
    3.2451  -19.0117   10.9670 C   0  0  0  0  0  0  0  0  0  0  0  0
    3.7011  -20.1985   10.5585 C   0  0  0  0  0  0  0  0  0  0  0  0
    3.0977  -20.7213    9.3038 C   0  0  0  0  0  0  0  0  0  0  0  0
    1.9763  -19.7611    8.8595 C   0  0  0  0  0  0  0  0  0  0  0  0
    4.0972  -16.1421    8.2343 C   0  0  0  0  0  0  0  0  0  0  0  0
    5.0004  -15.2220    7.8907 C   0  0  0  0  0  0  0  0  0  0  0  0
    4.5989  -14.1208    6.9980 C   0  0  0  0  0  0  0  0  0  0  0  0
    5.4714  -13.5113    6.3912 O   0  0  0  0  0  0  0  0  0  0  0  0
    1.3471  -11.6360    5.0380 H   0  0  0  0  0  0  0  0  0  0  0  0
    1.1806  -13.4076    5.0639 H   0  0  0  0  0  0  0  0  0  0  0  0
    0.7135  -12.4702    6.4396 H   0  0  0  0  0  0  0  0  0  0  0  0
    3.5248  -12.5533    5.3346 H   0  0  0  0  0  0  0  0  0  0  0  0
    3.1371  -10.5261    6.5572 H   0  0  0  0  0  0  0  0  0  0  0  0
    2.3014  -11.3592    7.8551 H   0  0  0  0  0  0  0  0  0  0  0  0
    4.0213  -11.5575    7.7066 H   0  0  0  0  0  0  0  0  0  0  0  0
    1.3081  -14.7959    6.8217 H   0  0  0  0  0  0  0  0  0  0  0  0
    2.3693  -17.2336   10.3855 H   0  0  0  0  0  0  0  0  0  0  0  0
    1.1631  -18.4105   10.4978 H   0  0  0  0  0  0  0  0  0  0  0  0
    3.5676  -18.5678   11.9036 H   0  0  0  0  0  0  0  0  0  0  0  0
    4.4294  -20.7726   11.1169 H   0  0  0  0  0  0  0  0  0  0  0  0
    2.6873  -21.7240    9.4622 H   0  0  0  0  0  0  0  0  0  0  0  0
    3.8715  -20.7877    8.5306 H   0  0  0  0  0  0  0  0  0  0  0  0
    1.7376  -20.0801    7.8316 H   0  0  0  0  0  0  0  0  0  0  0  0
    0.9966  -19.9278    9.3327 H   0  0  0  0  0  0  0  0  0  0  0  0
    4.4027  -16.9818    8.8459 H   0  0  0  0  0  0  0  0  0  0  0  0
    6.0397  -15.2697    8.1786 H   0  0  0  0  0  0  0  0  0  0  0  0
  1  2  1  0
  2  3  1  0
  2  4  1  0
  4  5  1  0
  5  6  2  0
  6  7  1  0
  7  8  2  0
  7  9  1  0
  9 10  1  0
 10 11  1  0
 11 12  2  0
 12 13  1  0
 13 14  1  0
  6 15  1  0
 15 16  2  0
 16 17  1  0
 17 18  2  0
 17  4  1  0
 14  9  1  0
  1 19  1  0
  1 20  1  0
  1 21  1  0
  2 22  1  0
  3 23  1  0
  3 24  1  0
  3 25  1  0
  5 26  1  0
 10 27  1  0
 10 28  1  0
 11 29  1  0
 12 30  1  0
 13 31  1  0
 13 32  1  0
 14 33  1  0
 14 34  1  0
 15 35  1  0
 16 36  1  0
M  END
>  <Energy>  (1256) 
107.43066518583815

>  <compound_id>  (1256) 
35989

>  <target_id>  (1256) 
1

>  <reference_id>  (1256) 
85

>  <inspiration_ids>  (1256) 
[85, 70]

>  <energy_score>  (1256) 
43.45425921393462

>  <distance_score>  (1256) 
1.2594874446971962

>  <path>  (1256) 
/opt/xchem-fragalysis-2/maxwin/BulkDock/SCRATCH/511013/C35989-P85/C35989-P85.minimised.mol

>  <scratch_subdir>  (1256) 
/opt/xchem-fragalysis-2/maxwin/BulkDock/SCRATCH/511013/C35989-P85

>  <fragmenstein_runtime>  (1256) 
4.9857847690582275

>  <fragmenstein_outcome>  (1256) 
too moved

>  <fragmenstein_mode>  (1256) 
expansion

>  <fragmenstein_error>  (1256) 


$$$$
C35989-P70
     RDKit          3D

 36 37  0  0  0  0  0  0  0  0999 V2000
    1.2468  -15.7087    5.9908 C   0  0  0  0  0  0  0  0  0  0  0  0
    1.4023  -16.7285    7.1135 C   0  0  0  0  0  0  0  0  0  0  0  0
    1.4446  -16.1396    8.5204 C   0  0  0  0  0  0  0  0  0  0  0  0
    2.5769  -17.5890    6.8895 N   0  0  0  0  0  0  0  0  0  0  0  0
    2.3515  -18.9383    6.6474 C   0  0  0  0  0  0  0  0  0  0  0  0
    3.3612  -19.8186    6.5816 C   0  0  0  0  0  0  0  0  0  0  0  0
    3.0039  -21.2718    6.4037 C   0  0  0  0  0  0  0  0  0  0  0  0
    2.1029  -21.5864    5.6723 O   0  0  0  0  0  0  0  0  0  0  0  0
    3.8715  -22.0727    7.2060 N   0  0  0  0  0  0  0  0  0  0  0  0
    3.2732  -22.2522    8.6154 C   0  0  0  0  0  0  0  0  0  0  0  0
    1.9421  -22.9492    8.7301 C   0  0  0  0  0  0  0  0  0  0  0  0
    1.6720  -24.0082    7.9644 C   0  0  0  0  0  0  0  0  0  0  0  0
    2.7501  -24.4224    7.0313 C   0  0  0  0  0  0  0  0  0  0  0  0
    4.0137  -23.5763    7.3093 C   0  0  0  0  0  0  0  0  0  0  0  0
    4.7217  -19.3459    6.7192 C   0  0  0  0  0  0  0  0  0  0  0  0
    4.9775  -18.0499    6.9363 C   0  0  0  0  0  0  0  0  0  0  0  0
    3.8634  -17.0727    7.0496 C   0  0  0  0  0  0  0  0  0  0  0  0
    4.1430  -15.9017    7.2889 O   0  0  0  0  0  0  0  0  0  0  0  0
    0.4624  -14.9836    6.1973 H   0  0  0  0  0  0  0  0  0  0  0  0
    2.1720  -15.1783    5.7839 H   0  0  0  0  0  0  0  0  0  0  0  0
    0.9846  -16.2309    5.0647 H   0  0  0  0  0  0  0  0  0  0  0  0
    0.5048  -17.3613    7.0833 H   0  0  0  0  0  0  0  0  0  0  0  0
    2.1054  -15.2720    8.5727 H   0  0  0  0  0  0  0  0  0  0  0  0
    0.4498  -15.8391    8.8496 H   0  0  0  0  0  0  0  0  0  0  0  0
    1.7995  -16.8787    9.2480 H   0  0  0  0  0  0  0  0  0  0  0  0
    1.3164  -19.2626    6.5535 H   0  0  0  0  0  0  0  0  0  0  0  0
    3.0617  -21.2188    8.9325 H   0  0  0  0  0  0  0  0  0  0  0  0
    4.0098  -22.5725    9.3698 H   0  0  0  0  0  0  0  0  0  0  0  0
    1.2186  -22.5633    9.4412 H   0  0  0  0  0  0  0  0  0  0  0  0
    0.7217  -24.5269    7.9962 H   0  0  0  0  0  0  0  0  0  0  0  0
    2.4130  -24.2834    5.9982 H   0  0  0  0  0  0  0  0  0  0  0  0
    2.9831  -25.4840    7.1658 H   0  0  0  0  0  0  0  0  0  0  0  0
    4.6364  -23.9423    8.1437 H   0  0  0  0  0  0  0  0  0  0  0  0
    4.6639  -23.7904    6.4463 H   0  0  0  0  0  0  0  0  0  0  0  0
    5.5285  -20.0672    6.6431 H   0  0  0  0  0  0  0  0  0  0  0  0
    5.9798  -17.6622    7.0575 H   0  0  0  0  0  0  0  0  0  0  0  0
  1  2  1  0
  2  3  1  0
  2  4  1  0
  4  5  1  0
  5  6  2  0
  6  7  1  0
  7  8  2  0
  7  9  1  0
  9 10  1  0
 10 11  1  0
 11 12  2  0
 12 13  1  0
 13 14  1  0
  6 15  1  0
 15 16  2  0
 16 17  1  0
 17 18  2  0
 17  4  1  0
 14  9  1  0
  1 19  1  0
  1 20  1  0
  1 21  1  0
  2 22  1  0
  3 23  1  0
  3 24  1  0
  3 25  1  0
  5 26  1  0
 10 27  1  0
 10 28  1  0
 11 29  1  0
 12 30  1  0
 13 31  1  0
 13 32  1  0
 14 33  1  0
 14 34  1  0
 15 35  1  0
 16 36  1  0
M  END
>  <Energy>  (1257) 
93.158568159620984

>  <compound_id>  (1257) 
35989

>  <target_id>  (1257) 
1

>  <reference_id>  (1257) 
70

>  <inspiration_ids>  (1257) 
[85, 70]

>  <energy_score>  (1257) 
32.18785015782818

>  <distance_score>  (1257) 
4.614651639765239

>  <path>  (1257) 
/opt/xchem-fragalysis-2/maxwin/BulkDock/SCRATCH/511013/C35989-P70/C35989-P70.minimised.mol

>  <scratch_subdir>  (1257) 
/opt/xchem-fragalysis-2/maxwin/BulkDock/SCRATCH/511013/C35989-P70

>  <fragmenstein_runtime>  (1257) 
9.909791707992554

>  <fragmenstein_outcome>  (1257) 
too moved

>  <fragmenstein_mode>  (1257) 
expansion

>  <fragmenstein_error>  (1257) 


$$$$
C23022-P85
     RDKit          3D

 51 53  0  0  0  0  0  0  0  0999 V2000
   -0.0818   -8.5499   17.4902 O   0  0  0  0  0  0  0  0  0  0  0  0
   -1.2329   -8.7291   17.1437 C   0  0  0  0  0  0  0  0  0  0  0  0
   -2.5926   -7.8649   18.4221 N   0  0  0  0  0  0  0  0  0  0  0  0
   -2.3679   -6.5612   20.1366 C   0  0  0  0  0  0  0  0  0  0  0  0
   -2.7643   -4.7669   21.4647 C   0  0  0  0  0  0  0  0  0  0  0  0
   -2.7033   -2.8037   22.6121 C   0  0  0  0  0  0  0  0  0  0  0  0
   -2.9260   -0.6899   22.1971 C   0  0  0  0  0  0  0  0  0  0  0  0
   -2.5532    1.1162   23.4205 C   0  0  0  0  0  0  0  0  0  0  0  0
   -2.5766   -0.1498   25.2854 C   0  0  0  0  0  0  0  0  0  0  0  0
   -2.8477   -2.1412   24.5612 N   0  0  0  0  0  0  0  0  0  0  0  0
   -1.2589   -9.7323   15.0506 C   0  0  0  0  0  0  0  0  0  0  0  0
   -0.8512  -11.4593   13.7922 C   0  0  0  0  0  0  0  0  0  0  0  0
    0.1365  -12.6140   13.4381 C   0  0  0  0  0  0  0  0  0  0  0  0
    0.8295  -13.6108   12.4015 C   0  0  0  0  0  0  0  0  0  0  0  0
    0.0834  -14.7274   12.0125 N   0  0  0  0  0  0  0  0  0  0  0  0
   -0.9127  -13.9259   11.4818 C   0  0  0  0  0  0  0  0  0  0  0  0
   -0.6840  -12.1201   11.9854 C   0  0  0  0  0  0  0  0  0  0  0  0
   -0.8320  -10.2176   13.1839 C   0  0  0  0  0  0  0  0  0  0  0  0
    0.6496   -9.6035   11.8736 C   0  0  0  0  0  0  0  0  0  0  0  0
    0.8550   -7.8430   11.8334 O   0  0  0  0  0  0  0  0  0  0  0  0
   -0.3779   -7.1940   12.5125 C   0  0  0  0  0  0  0  0  0  0  0  0
   -0.8367   -7.9351   14.0496 C   0  0  0  0  0  0  0  0  0  0  0  0
   -3.5221   -8.1262   18.1181 H   0  0  0  0  0  0  0  0  0  0  0  0
   -1.2849   -6.6711   20.2842 H   0  0  0  0  0  0  0  0  0  0  0  0
   -2.8781   -7.2742   20.8007 H   0  0  0  0  0  0  0  0  0  0  0  0
   -3.8583   -4.7938   21.3344 H   0  0  0  0  0  0  0  0  0  0  0  0
   -2.4986   -5.3384   22.3708 H   0  0  0  0  0  0  0  0  0  0  0  0
   -3.6752   -3.2174   22.8327 H   0  0  0  0  0  0  0  0  0  0  0  0
   -3.9077   -0.5422   21.7500 H   0  0  0  0  0  0  0  0  0  0  0  0
   -2.2035   -0.2023   21.7260 H   0  0  0  0  0  0  0  0  0  0  0  0
   -1.4887    1.4115   23.2530 H   0  0  0  0  0  0  0  0  0  0  0  0
   -3.0240    2.1213   23.3119 H   0  0  0  0  0  0  0  0  0  0  0  0
   -3.4872    0.0715   25.8577 H   0  0  0  0  0  0  0  0  0  0  0  0
   -1.6866   -0.1589   25.9177 H   0  0  0  0  0  0  0  0  0  0  0  0
   -3.6744   -2.5279   24.9943 H   0  0  0  0  0  0  0  0  0  0  0  0
   -0.5523  -13.4604   13.6758 H   0  0  0  0  0  0  0  0  0  0  0  0
    1.2175  -13.1380   11.5095 H   0  0  0  0  0  0  0  0  0  0  0  0
    1.6801  -13.9791   12.8043 H   0  0  0  0  0  0  0  0  0  0  0  0
    0.5448  -15.3707   11.3795 H   0  0  0  0  0  0  0  0  0  0  0  0
   -1.2295  -13.8925   10.4947 H   0  0  0  0  0  0  0  0  0  0  0  0
   -1.7892  -14.5636   11.5890 H   0  0  0  0  0  0  0  0  0  0  0  0
   -1.2671  -11.3720   11.5358 H   0  0  0  0  0  0  0  0  0  0  0  0
    0.2026  -11.8161   11.4041 H   0  0  0  0  0  0  0  0  0  0  0  0
   -1.7595  -10.1816   12.6192 H   0  0  0  0  0  0  0  0  0  0  0  0
    0.0134  -10.6602   12.5048 H   0  0  0  0  0  0  0  0  0  0  0  0
    1.5835  -10.2638   11.8101 H   0  0  0  0  0  0  0  0  0  0  0  0
    0.6338   -9.8156   10.7619 H   0  0  0  0  0  0  0  0  0  0  0  0
   -1.0160   -6.8286   11.7229 H   0  0  0  0  0  0  0  0  0  0  0  0
   -0.2358   -6.1315   12.7878 H   0  0  0  0  0  0  0  0  0  0  0  0
   -0.1445   -7.5221   14.8092 H   0  0  0  0  0  0  0  0  0  0  0  0
   -1.3841   -7.0241   14.1585 H   0  0  0  0  0  0  0  0  0  0  0  0
  1  2  2  0
  2  3  1  0
  3  4  1  0
  4  5  1  0
  5  6  1  0
  6  7  1  0
  7  8  1  0
  8  9  1  0
  9 10  1  0
  2 11  1  0
 11 12  1  0
 12 13  2  0
 13 14  1  0
 14 15  1  0
 15 16  1  0
 16 17  1  0
 11 18  1  0
 18 19  1  0
 19 20  1  0
 20 21  1  0
 21 22  1  0
 10  6  1  0
 22 11  1  0
 17 12  1  0
  3 23  1  0
  4 24  1  0
  4 25  1  0
  5 26  1  0
  5 27  1  0
  6 28  1  0
  7 29  1  0
  7 30  1  0
  8 31  1  0
  8 32  1  0
  9 33  1  0
  9 34  1  0
 10 35  1  0
 13 36  1  0
 14 37  1  0
 14 38  1  0
 15 39  1  0
 16 40  1  0
 16 41  1  0
 17 42  1  0
 17 43  1  0
 18 44  1  0
 18 45  1  0
 19 46  1  0
 19 47  1  0
 21 48  1  0
 21 49  1  0
 22 50  1  0
 22 51  1  0
M  END
>  <Energy>  (1258) 
2901.9008800615202

>  <compound_id>  (1258) 
23022

>  <target_id>  (1258) 
1

>  <reference_id>  (1258) 
85

>  <inspiration_ids>  (1258) 
[85, 70]

>  <energy_score>  (1258) 
2818.239374433374

>  <distance_score>  (1258) 
7.532774215136501

>  <path>  (1258) 
/opt/xchem-fragalysis-2/maxwin/BulkDock/SCRATCH/511013/C23022-P85/C23022-P85.minimised.mol

>  <scratch_subdir>  (1258) 
/opt/xchem-fragalysis-2/maxwin/BulkDock/SCRATCH/511013/C23022-P85

>  <fragmenstein_runtime>  (1258) 
17.586252212524414

>  <fragmenstein_outcome>  (1258) 
too moved

>  <fragmenstein_mode>  (1258) 
expansion

>  <fragmenstein_error>  (1258) 


$$$$
C23022-P70
     RDKit          3D

 51 53  0  0  0  0  0  0  0  0999 V2000
    2.9025   -5.5440   14.8057 O   0  0  0  0  0  0  0  0  0  0  0  0
    3.9368   -6.1694   14.8686 C   0  0  0  0  0  0  0  0  0  0  0  0
    5.1528   -6.0464   16.1398 N   0  0  0  0  0  0  0  0  0  0  0  0
    5.2531   -5.1099   17.3363 C   0  0  0  0  0  0  0  0  0  0  0  0
    4.8411   -3.5882   17.4390 C   0  0  0  0  0  0  0  0  0  0  0  0
    5.3175   -2.9135   18.7635 C   0  0  0  0  0  0  0  0  0  0  0  0
    4.9933   -1.4222   18.8754 C   0  0  0  0  0  0  0  0  0  0  0  0
    5.2981   -1.1014   20.3393 C   0  0  0  0  0  0  0  0  0  0  0  0
    5.2374   -2.4525   21.0474 C   0  0  0  0  0  0  0  0  0  0  0  0
    4.7187   -3.3826   20.0256 N   0  0  0  0  0  0  0  0  0  0  0  0
    4.5290   -7.4355   13.3161 C   0  0  0  0  0  0  0  0  0  0  0  0
    4.2859   -9.3740   13.1905 C   0  0  0  0  0  0  0  0  0  0  0  0
    4.7826  -10.4542   12.4035 C   0  0  0  0  0  0  0  0  0  0  0  0
    3.7305  -10.5721   10.6506 C   0  0  0  0  0  0  0  0  0  0  0  0
    2.5415   -9.8138   10.4518 N   0  0  0  0  0  0  0  0  0  0  0  0
    1.8639  -10.4978   11.4236 C   0  0  0  0  0  0  0  0  0  0  0  0
    3.1215  -10.2301   12.9508 C   0  0  0  0  0  0  0  0  0  0  0  0
    6.4285   -7.4727   13.3120 C   0  0  0  0  0  0  0  0  0  0  0  0
    7.3776   -7.1354   11.9489 C   0  0  0  0  0  0  0  0  0  0  0  0
    6.7235   -6.4092   10.8936 O   0  0  0  0  0  0  0  0  0  0  0  0
    5.5118   -5.6726   11.0748 C   0  0  0  0  0  0  0  0  0  0  0  0
    4.1750   -6.2884   11.8057 C   0  0  0  0  0  0  0  0  0  0  0  0
    5.9414   -6.6103   15.9014 H   0  0  0  0  0  0  0  0  0  0  0  0
    5.0156   -5.6898   18.2308 H   0  0  0  0  0  0  0  0  0  0  0  0
    6.3503   -5.0567   17.4233 H   0  0  0  0  0  0  0  0  0  0  0  0
    3.7768   -3.3981   17.3404 H   0  0  0  0  0  0  0  0  0  0  0  0
    5.3113   -3.0628   16.5979 H   0  0  0  0  0  0  0  0  0  0  0  0
    6.4078   -3.0468   18.8189 H   0  0  0  0  0  0  0  0  0  0  0  0
    3.9353   -1.2294   18.6570 H   0  0  0  0  0  0  0  0  0  0  0  0
    5.5977   -0.8143   18.1949 H   0  0  0  0  0  0  0  0  0  0  0  0
    6.3045   -0.6772   20.4329 H   0  0  0  0  0  0  0  0  0  0  0  0
    4.5943   -0.3651   20.7318 H   0  0  0  0  0  0  0  0  0  0  0  0
    4.6212   -2.4469   21.9491 H   0  0  0  0  0  0  0  0  0  0  0  0
    6.2467   -2.7604   21.3473 H   0  0  0  0  0  0  0  0  0  0  0  0
    5.0100   -4.3333   20.2451 H   0  0  0  0  0  0  0  0  0  0  0  0
    5.1923  -11.3611   12.8748 H   0  0  0  0  0  0  0  0  0  0  0  0
    3.5511  -11.6155   10.2708 H   0  0  0  0  0  0  0  0  0  0  0  0
    4.1151   -9.9149    9.8451 H   0  0  0  0  0  0  0  0  0  0  0  0
    2.6818   -8.9122   10.9084 H   0  0  0  0  0  0  0  0  0  0  0  0
    0.8193  -10.1758   11.5205 H   0  0  0  0  0  0  0  0  0  0  0  0
    1.6431  -11.3753   10.7930 H   0  0  0  0  0  0  0  0  0  0  0  0
    2.2054  -10.5046   13.3501 H   0  0  0  0  0  0  0  0  0  0  0  0
    3.4419  -10.6652   13.9580 H   0  0  0  0  0  0  0  0  0  0  0  0
    6.9641   -8.4089   13.4279 H   0  0  0  0  0  0  0  0  0  0  0  0
    6.8038   -7.0316   14.2418 H   0  0  0  0  0  0  0  0  0  0  0  0
    8.2946   -6.5711   12.2252 H   0  0  0  0  0  0  0  0  0  0  0  0
    7.9248   -8.0148   11.6442 H   0  0  0  0  0  0  0  0  0  0  0  0
    5.2729   -5.3611   10.0751 H   0  0  0  0  0  0  0  0  0  0  0  0
    5.7365   -4.6800   11.4587 H   0  0  0  0  0  0  0  0  0  0  0  0
    3.5620   -5.3881   12.0058 H   0  0  0  0  0  0  0  0  0  0  0  0
    3.5082   -6.8923   11.1831 H   0  0  0  0  0  0  0  0  0  0  0  0
  1  2  2  0
  2  3  1  0
  3  4  1  0
  4  5  1  0
  5  6  1  0
  6  7  1  0
  7  8  1  0
  8  9  1  0
  9 10  1  0
  2 11  1  0
 11 12  1  0
 12 13  2  0
 13 14  1  0
 14 15  1  0
 15 16  1  0
 16 17  1  0
 11 18  1  0
 18 19  1  0
 19 20  1  0
 20 21  1  0
 21 22  1  0
 10  6  1  0
 22 11  1  0
 17 12  1  0
  3 23  1  0
  4 24  1  0
  4 25  1  0
  5 26  1  0
  5 27  1  0
  6 28  1  0
  7 29  1  0
  7 30  1  0
  8 31  1  0
  8 32  1  0
  9 33  1  0
  9 34  1  0
 10 35  1  0
 13 36  1  0
 14 37  1  0
 14 38  1  0
 15 39  1  0
 16 40  1  0
 16 41  1  0
 17 42  1  0
 17 43  1  0
 18 44  1  0
 18 45  1  0
 19 46  1  0
 19 47  1  0
 21 48  1  0
 21 49  1  0
 22 50  1  0
 22 51  1  0
M  END
>  <Energy>  (1259) 
673.494150448749

>  <compound_id>  (1259) 
23022

>  <target_id>  (1259) 
1

>  <reference_id>  (1259) 
70

>  <inspiration_ids>  (1259) 
[85, 70]

>  <energy_score>  (1259) 
589.8326448205769

>  <distance_score>  (1259) 
10.227669395316148

>  <path>  (1259) 
/opt/xchem-fragalysis-2/maxwin/BulkDock/SCRATCH/511013/C23022-P70/C23022-P70.minimised.mol

>  <scratch_subdir>  (1259) 
/opt/xchem-fragalysis-2/maxwin/BulkDock/SCRATCH/511013/C23022-P70

>  <fragmenstein_runtime>  (1259) 
19.684809923171997

>  <fragmenstein_outcome>  (1259) 
too moved

>  <fragmenstein_mode>  (1259) 
expansion

>  <fragmenstein_error>  (1259) 


$$$$
C23022-P85
     RDKit          3D

 51 53  0  0  0  0  0  0  0  0999 V2000
   -0.0818   -8.5499   17.4902 O   0  0  0  0  0  0  0  0  0  0  0  0
   -1.2329   -8.7291   17.1437 C   0  0  0  0  0  0  0  0  0  0  0  0
   -2.5926   -7.8649   18.4221 N   0  0  0  0  0  0  0  0  0  0  0  0
   -2.3679   -6.5612   20.1366 C   0  0  0  0  0  0  0  0  0  0  0  0
   -2.7643   -4.7669   21.4647 C   0  0  0  0  0  0  0  0  0  0  0  0
   -2.7033   -2.8037   22.6121 C   0  0  0  0  0  0  0  0  0  0  0  0
   -2.9260   -0.6899   22.1971 C   0  0  0  0  0  0  0  0  0  0  0  0
   -2.5532    1.1162   23.4205 C   0  0  0  0  0  0  0  0  0  0  0  0
   -2.5766   -0.1498   25.2854 C   0  0  0  0  0  0  0  0  0  0  0  0
   -2.8477   -2.1412   24.5612 N   0  0  0  0  0  0  0  0  0  0  0  0
   -1.2589   -9.7323   15.0506 C   0  0  0  0  0  0  0  0  0  0  0  0
   -0.8512  -11.4593   13.7922 C   0  0  0  0  0  0  0  0  0  0  0  0
    0.1365  -12.6140   13.4381 C   0  0  0  0  0  0  0  0  0  0  0  0
    0.8295  -13.6108   12.4015 C   0  0  0  0  0  0  0  0  0  0  0  0
    0.0834  -14.7274   12.0125 N   0  0  0  0  0  0  0  0  0  0  0  0
   -0.9127  -13.9259   11.4818 C   0  0  0  0  0  0  0  0  0  0  0  0
   -0.6840  -12.1201   11.9854 C   0  0  0  0  0  0  0  0  0  0  0  0
   -0.8320  -10.2176   13.1839 C   0  0  0  0  0  0  0  0  0  0  0  0
    0.6496   -9.6035   11.8736 C   0  0  0  0  0  0  0  0  0  0  0  0
    0.8550   -7.8430   11.8334 O   0  0  0  0  0  0  0  0  0  0  0  0
   -0.3779   -7.1940   12.5125 C   0  0  0  0  0  0  0  0  0  0  0  0
   -0.8367   -7.9351   14.0496 C   0  0  0  0  0  0  0  0  0  0  0  0
   -3.5221   -8.1262   18.1181 H   0  0  0  0  0  0  0  0  0  0  0  0
   -1.2849   -6.6711   20.2842 H   0  0  0  0  0  0  0  0  0  0  0  0
   -2.8781   -7.2742   20.8007 H   0  0  0  0  0  0  0  0  0  0  0  0
   -3.8583   -4.7938   21.3344 H   0  0  0  0  0  0  0  0  0  0  0  0
   -2.4986   -5.3384   22.3708 H   0  0  0  0  0  0  0  0  0  0  0  0
   -3.6752   -3.2174   22.8327 H   0  0  0  0  0  0  0  0  0  0  0  0
   -3.9077   -0.5422   21.7500 H   0  0  0  0  0  0  0  0  0  0  0  0
   -2.2035   -0.2023   21.7260 H   0  0  0  0  0  0  0  0  0  0  0  0
   -1.4887    1.4115   23.2530 H   0  0  0  0  0  0  0  0  0  0  0  0
   -3.0240    2.1213   23.3119 H   0  0  0  0  0  0  0  0  0  0  0  0
   -3.4872    0.0715   25.8577 H   0  0  0  0  0  0  0  0  0  0  0  0
   -1.6866   -0.1589   25.9177 H   0  0  0  0  0  0  0  0  0  0  0  0
   -3.6744   -2.5279   24.9943 H   0  0  0  0  0  0  0  0  0  0  0  0
   -0.5523  -13.4604   13.6758 H   0  0  0  0  0  0  0  0  0  0  0  0
    1.2175  -13.1380   11.5095 H   0  0  0  0  0  0  0  0  0  0  0  0
    1.6801  -13.9791   12.8043 H   0  0  0  0  0  0  0  0  0  0  0  0
    0.5448  -15.3707   11.3795 H   0  0  0  0  0  0  0  0  0  0  0  0
   -1.2295  -13.8925   10.4947 H   0  0  0  0  0  0  0  0  0  0  0  0
   -1.7892  -14.5636   11.5890 H   0  0  0  0  0  0  0  0  0  0  0  0
   -1.2671  -11.3720   11.5358 H   0  0  0  0  0  0  0  0  0  0  0  0
    0.2026  -11.8161   11.4041 H   0  0  0  0  0  0  0  0  0  0  0  0
   -1.7595  -10.1816   12.6192 H   0  0  0  0  0  0  0  0  0  0  0  0
    0.0134  -10.6602   12.5048 H   0  0  0  0  0  0  0  0  0  0  0  0
    1.5835  -10.2638   11.8101 H   0  0  0  0  0  0  0  0  0  0  0  0
    0.6338   -9.8156   10.7619 H   0  0  0  0  0  0  0  0  0  0  0  0
   -1.0160   -6.8286   11.7229 H   0  0  0  0  0  0  0  0  0  0  0  0
   -0.2358   -6.1315   12.7878 H   0  0  0  0  0  0  0  0  0  0  0  0
   -0.1445   -7.5221   14.8092 H   0  0  0  0  0  0  0  0  0  0  0  0
   -1.3841   -7.0241   14.1585 H   0  0  0  0  0  0  0  0  0  0  0  0
  1  2  2  0
  2  3  1  0
  3  4  1  0
  4  5  1  0
  5  6  1  0
  6  7  1  0
  7  8  1  0
  8  9  1  0
  9 10  1  0
  2 11  1  0
 11 12  1  0
 12 13  2  0
 13 14  1  0
 14 15  1  0
 15 16  1  0
 16 17  1  0
 11 18  1  0
 18 19  1  0
 19 20  1  0
 20 21  1  0
 21 22  1  0
 10  6  1  0
 22 11  1  0
 17 12  1  0
  3 23  1  0
  4 24  1  0
  4 25  1  0
  5 26  1  0
  5 27  1  0
  6 28  1  0
  7 29  1  0
  7 30  1  0
  8 31  1  0
  8 32  1  0
  9 33  1  0
  9 34  1  0
 10 35  1  0
 13 36  1  0
 14 37  1  0
 14 38  1  0
 15 39  1  0
 16 40  1  0
 16 41  1  0
 17 42  1  0
 17 43  1  0
 18 44  1  0
 18 45  1  0
 19 46  1  0
 19 47  1  0
 21 48  1  0
 21 49  1  0
 22 50  1  0
 22 51  1  0
M  END
>  <Energy>  (1260) 
2901.9008800615202

>  <compound_id>  (1260) 
23022

>  <target_id>  (1260) 
1

>  <reference_id>  (1260) 
85

>  <inspiration_ids>  (1260) 
[85, 70]

>  <energy_score>  (1260) 
2818.239374433374

>  <distance_score>  (1260) 
7.532774215136501

>  <path>  (1260) 
/opt/xchem-fragalysis-2/maxwin/BulkDock/SCRATCH/511013/C23022-P85/C23022-P85.minimised.mol

>  <scratch_subdir>  (1260) 
/opt/xchem-fragalysis-2/maxwin/BulkDock/SCRATCH/511013/C23022-P85

>  <fragmenstein_runtime>  (1260) 
19.50284719467163

>  <fragmenstein_outcome>  (1260) 
too moved

>  <fragmenstein_mode>  (1260) 
expansion

>  <fragmenstein_error>  (1260) 


$$$$
C23022-P70
     RDKit          3D

 51 53  0  0  0  0  0  0  0  0999 V2000
    2.9025   -5.5440   14.8057 O   0  0  0  0  0  0  0  0  0  0  0  0
    3.9368   -6.1694   14.8686 C   0  0  0  0  0  0  0  0  0  0  0  0
    5.1528   -6.0464   16.1398 N   0  0  0  0  0  0  0  0  0  0  0  0
    5.2531   -5.1099   17.3363 C   0  0  0  0  0  0  0  0  0  0  0  0
    4.8411   -3.5882   17.4390 C   0  0  0  0  0  0  0  0  0  0  0  0
    5.3175   -2.9135   18.7635 C   0  0  0  0  0  0  0  0  0  0  0  0
    4.9933   -1.4222   18.8754 C   0  0  0  0  0  0  0  0  0  0  0  0
    5.2981   -1.1014   20.3393 C   0  0  0  0  0  0  0  0  0  0  0  0
    5.2374   -2.4525   21.0474 C   0  0  0  0  0  0  0  0  0  0  0  0
    4.7187   -3.3826   20.0256 N   0  0  0  0  0  0  0  0  0  0  0  0
    4.5290   -7.4355   13.3161 C   0  0  0  0  0  0  0  0  0  0  0  0
    4.2859   -9.3740   13.1905 C   0  0  0  0  0  0  0  0  0  0  0  0
    4.7826  -10.4542   12.4035 C   0  0  0  0  0  0  0  0  0  0  0  0
    3.7305  -10.5721   10.6506 C   0  0  0  0  0  0  0  0  0  0  0  0
    2.5415   -9.8138   10.4518 N   0  0  0  0  0  0  0  0  0  0  0  0
    1.8639  -10.4978   11.4236 C   0  0  0  0  0  0  0  0  0  0  0  0
    3.1215  -10.2301   12.9508 C   0  0  0  0  0  0  0  0  0  0  0  0
    6.4285   -7.4727   13.3120 C   0  0  0  0  0  0  0  0  0  0  0  0
    7.3776   -7.1354   11.9489 C   0  0  0  0  0  0  0  0  0  0  0  0
    6.7235   -6.4092   10.8936 O   0  0  0  0  0  0  0  0  0  0  0  0
    5.5118   -5.6726   11.0748 C   0  0  0  0  0  0  0  0  0  0  0  0
    4.1750   -6.2884   11.8057 C   0  0  0  0  0  0  0  0  0  0  0  0
    5.9414   -6.6103   15.9014 H   0  0  0  0  0  0  0  0  0  0  0  0
    5.0156   -5.6898   18.2308 H   0  0  0  0  0  0  0  0  0  0  0  0
    6.3503   -5.0567   17.4233 H   0  0  0  0  0  0  0  0  0  0  0  0
    3.7768   -3.3981   17.3404 H   0  0  0  0  0  0  0  0  0  0  0  0
    5.3113   -3.0628   16.5979 H   0  0  0  0  0  0  0  0  0  0  0  0
    6.4078   -3.0468   18.8189 H   0  0  0  0  0  0  0  0  0  0  0  0
    3.9353   -1.2294   18.6570 H   0  0  0  0  0  0  0  0  0  0  0  0
    5.5977   -0.8143   18.1949 H   0  0  0  0  0  0  0  0  0  0  0  0
    6.3045   -0.6772   20.4329 H   0  0  0  0  0  0  0  0  0  0  0  0
    4.5943   -0.3651   20.7318 H   0  0  0  0  0  0  0  0  0  0  0  0
    4.6212   -2.4469   21.9491 H   0  0  0  0  0  0  0  0  0  0  0  0
    6.2467   -2.7604   21.3473 H   0  0  0  0  0  0  0  0  0  0  0  0
    5.0100   -4.3333   20.2451 H   0  0  0  0  0  0  0  0  0  0  0  0
    5.1923  -11.3611   12.8748 H   0  0  0  0  0  0  0  0  0  0  0  0
    3.5511  -11.6155   10.2708 H   0  0  0  0  0  0  0  0  0  0  0  0
    4.1151   -9.9149    9.8451 H   0  0  0  0  0  0  0  0  0  0  0  0
    2.6818   -8.9122   10.9084 H   0  0  0  0  0  0  0  0  0  0  0  0
    0.8193  -10.1758   11.5205 H   0  0  0  0  0  0  0  0  0  0  0  0
    1.6431  -11.3753   10.7930 H   0  0  0  0  0  0  0  0  0  0  0  0
    2.2054  -10.5046   13.3501 H   0  0  0  0  0  0  0  0  0  0  0  0
    3.4419  -10.6652   13.9580 H   0  0  0  0  0  0  0  0  0  0  0  0
    6.9641   -8.4089   13.4279 H   0  0  0  0  0  0  0  0  0  0  0  0
    6.8038   -7.0316   14.2418 H   0  0  0  0  0  0  0  0  0  0  0  0
    8.2946   -6.5711   12.2252 H   0  0  0  0  0  0  0  0  0  0  0  0
    7.9248   -8.0148   11.6442 H   0  0  0  0  0  0  0  0  0  0  0  0
    5.2729   -5.3611   10.0751 H   0  0  0  0  0  0  0  0  0  0  0  0
    5.7365   -4.6800   11.4587 H   0  0  0  0  0  0  0  0  0  0  0  0
    3.5620   -5.3881   12.0058 H   0  0  0  0  0  0  0  0  0  0  0  0
    3.5082   -6.8923   11.1831 H   0  0  0  0  0  0  0  0  0  0  0  0
  1  2  2  0
  2  3  1  0
  3  4  1  0
  4  5  1  0
  5  6  1  0
  6  7  1  0
  7  8  1  0
  8  9  1  0
  9 10  1  0
  2 11  1  0
 11 12  1  0
 12 13  2  0
 13 14  1  0
 14 15  1  0
 15 16  1  0
 16 17  1  0
 11 18  1  0
 18 19  1  0
 19 20  1  0
 20 21  1  0
 21 22  1  0
 10  6  1  0
 22 11  1  0
 17 12  1  0
  3 23  1  0
  4 24  1  0
  4 25  1  0
  5 26  1  0
  5 27  1  0
  6 28  1  0
  7 29  1  0
  7 30  1  0
  8 31  1  0
  8 32  1  0
  9 33  1  0
  9 34  1  0
 10 35  1  0
 13 36  1  0
 14 37  1  0
 14 38  1  0
 15 39  1  0
 16 40  1  0
 16 41  1  0
 17 42  1  0
 17 43  1  0
 18 44  1  0
 18 45  1  0
 19 46  1  0
 19 47  1  0
 21 48  1  0
 21 49  1  0
 22 50  1  0
 22 51  1  0
M  END
>  <Energy>  (1261) 
673.494150448749

>  <compound_id>  (1261) 
23022

>  <target_id>  (1261) 
1

>  <reference_id>  (1261) 
70

>  <inspiration_ids>  (1261) 
[85, 70]

>  <energy_score>  (1261) 
589.8326448205769

>  <distance_score>  (1261) 
10.227669395316148

>  <path>  (1261) 
/opt/xchem-fragalysis-2/maxwin/BulkDock/SCRATCH/511013/C23022-P70/C23022-P70.minimised.mol

>  <scratch_subdir>  (1261) 
/opt/xchem-fragalysis-2/maxwin/BulkDock/SCRATCH/511013/C23022-P70

>  <fragmenstein_runtime>  (1261) 
20.405041694641113

>  <fragmenstein_outcome>  (1261) 
too moved

>  <fragmenstein_mode>  (1261) 
expansion

>  <fragmenstein_error>  (1261) 


$$$$
C23025-P85
     RDKit          3D

 47 49  0  0  0  0  0  0  0  0999 V2000
   -1.8741  -11.0535   17.9213 O   0  0  0  0  0  0  0  0  0  0  0  0
   -1.9743   -9.9674   17.3997 C   0  0  0  0  0  0  0  0  0  0  0  0
   -2.6236   -8.7702   17.8673 N   0  0  0  0  0  0  0  0  0  0  0  0
   -3.2888   -8.4528   19.1692 C   0  0  0  0  0  0  0  0  0  0  0  0
   -2.4403   -7.7487   20.3058 C   0  0  0  0  0  0  0  0  0  0  0  0
   -3.1847   -6.7649   21.2587 C   0  0  0  0  0  0  0  0  0  0  0  0
   -3.7430   -5.4981   20.6246 C   0  0  0  0  0  0  0  0  0  0  0  0
   -3.9673   -4.5829   21.8148 C   0  0  0  0  0  0  0  0  0  0  0  0
   -2.8406   -4.9352   22.7661 C   0  0  0  0  0  0  0  0  0  0  0  0
   -2.2796   -6.2165   22.3013 N   0  0  0  0  0  0  0  0  0  0  0  0
   -1.0149   -9.8650   15.4332 C   0  0  0  0  0  0  0  0  0  0  0  0
   -0.9419  -10.9521   13.6678 C   0  0  0  0  0  0  0  0  0  0  0  0
   -0.5962  -12.3290   13.5105 C   0  0  0  0  0  0  0  0  0  0  0  0
    0.1674  -13.4003   12.8758 C   0  0  0  0  0  0  0  0  0  0  0  0
    0.0665  -13.2305   11.5627 N   0  0  0  0  0  0  0  0  0  0  0  0
    0.3589  -11.8760   11.3694 C   0  0  0  0  0  0  0  0  0  0  0  0
    0.2621  -10.7824   12.2417 C   0  0  0  0  0  0  0  0  0  0  0  0
   -1.7836   -9.3516   14.4078 C   0  0  0  0  0  0  0  0  0  0  0  0
   -0.7581   -7.7228   14.2741 C   0  0  0  0  0  0  0  0  0  0  0  0
   -0.0081   -8.2881   15.9549 C   0  0  0  0  0  0  0  0  0  0  0  0
   -2.5850   -8.0945   17.1613 H   0  0  0  0  0  0  0  0  0  0  0  0
   -4.1346   -7.8112   18.9031 H   0  0  0  0  0  0  0  0  0  0  0  0
   -3.6872   -9.3946   19.5615 H   0  0  0  0  0  0  0  0  0  0  0  0
   -1.5548   -7.2478   19.9196 H   0  0  0  0  0  0  0  0  0  0  0  0
   -2.0294   -8.5623   20.9210 H   0  0  0  0  0  0  0  0  0  0  0  0
   -3.9917   -7.3130   21.7617 H   0  0  0  0  0  0  0  0  0  0  0  0
   -3.0190   -5.0385   19.9472 H   0  0  0  0  0  0  0  0  0  0  0  0
   -4.6684   -5.6777   20.0695 H   0  0  0  0  0  0  0  0  0  0  0  0
   -4.9360   -4.8051   22.2780 H   0  0  0  0  0  0  0  0  0  0  0  0
   -3.9614   -3.5324   21.5174 H   0  0  0  0  0  0  0  0  0  0  0  0
   -2.0631   -4.1643   22.7453 H   0  0  0  0  0  0  0  0  0  0  0  0
   -3.2050   -5.0235   23.7941 H   0  0  0  0  0  0  0  0  0  0  0  0
   -1.3638   -6.0351   21.8893 H   0  0  0  0  0  0  0  0  0  0  0  0
   -1.1258  -13.1159   14.0002 H   0  0  0  0  0  0  0  0  0  0  0  0
   -0.2215  -14.3925   12.9290 H   0  0  0  0  0  0  0  0  0  0  0  0
    1.1598  -13.3969   13.2016 H   0  0  0  0  0  0  0  0  0  0  0  0
   -0.8560  -13.4912   11.2500 H   0  0  0  0  0  0  0  0  0  0  0  0
   -0.3340  -11.4629   10.6916 H   0  0  0  0  0  0  0  0  0  0  0  0
    1.4359  -11.8495   11.1606 H   0  0  0  0  0  0  0  0  0  0  0  0
    0.5804   -9.8525   11.7913 H   0  0  0  0  0  0  0  0  0  0  0  0
    1.2937  -10.9769   12.5795 H   0  0  0  0  0  0  0  0  0  0  0  0
   -2.5945  -10.0352   14.7341 H   0  0  0  0  0  0  0  0  0  0  0  0
   -2.8104   -9.1843   14.9502 H   0  0  0  0  0  0  0  0  0  0  0  0
   -1.0394   -6.6589   14.2054 H   0  0  0  0  0  0  0  0  0  0  0  0
   -0.3392   -7.8083   13.2947 H   0  0  0  0  0  0  0  0  0  0  0  0
   -0.3277   -8.1285   16.9914 H   0  0  0  0  0  0  0  0  0  0  0  0
    1.0391   -8.1795   16.1537 H   0  0  0  0  0  0  0  0  0  0  0  0
  1  2  2  0
  2  3  1  0
  3  4  1  0
  4  5  1  0
  5  6  1  0
  6  7  1  0
  7  8  1  0
  8  9  1  0
  9 10  1  0
  2 11  1  0
 11 12  1  0
 12 13  2  0
 13 14  1  0
 14 15  1  0
 15 16  1  0
 16 17  1  0
 11 18  1  0
 18 19  1  0
 19 20  1  0
 10  6  1  0
 20 11  1  0
 17 12  1  0
  3 21  1  0
  4 22  1  0
  4 23  1  0
  5 24  1  0
  5 25  1  0
  6 26  1  0
  7 27  1  0
  7 28  1  0
  8 29  1  0
  8 30  1  0
  9 31  1  0
  9 32  1  0
 10 33  1  0
 13 34  1  0
 14 35  1  0
 14 36  1  0
 15 37  1  0
 16 38  1  0
 16 39  1  0
 17 40  1  0
 17 41  1  0
 18 42  1  0
 18 43  1  0
 19 44  1  0
 19 45  1  0
 20 46  1  0
 20 47  1  0
M  END
>  <Energy>  (1262) 
674.94387366946773

>  <compound_id>  (1262) 
23025

>  <target_id>  (1262) 
1

>  <reference_id>  (1262) 
85

>  <inspiration_ids>  (1262) 
[85, 70]

>  <energy_score>  (1262) 
598.6637367096644

>  <distance_score>  (1262) 
9.813820765576788

>  <path>  (1262) 
/opt/xchem-fragalysis-2/maxwin/BulkDock/SCRATCH/511013/C23025-P85/C23025-P85.minimised.mol

>  <scratch_subdir>  (1262) 
/opt/xchem-fragalysis-2/maxwin/BulkDock/SCRATCH/511013/C23025-P85

>  <fragmenstein_runtime>  (1262) 
23.705568552017212

>  <fragmenstein_outcome>  (1262) 
too moved

>  <fragmenstein_mode>  (1262) 
expansion

>  <fragmenstein_error>  (1262) 


$$$$
C23025-P70
     RDKit          3D

 47 49  0  0  0  0  0  0  0  0999 V2000
    3.6881   -4.2446   10.9396 O   0  0  0  0  0  0  0  0  0  0  0  0
    2.8942   -4.7899   11.6707 C   0  0  0  0  0  0  0  0  0  0  0  0
    2.3639   -4.2605   13.1031 N   0  0  0  0  0  0  0  0  0  0  0  0
    2.6260   -2.9081   13.8671 C   0  0  0  0  0  0  0  0  0  0  0  0
    3.3856   -2.6129   15.2270 C   0  0  0  0  0  0  0  0  0  0  0  0
    2.6692   -1.8642   16.4143 C   0  0  0  0  0  0  0  0  0  0  0  0
    3.6379   -1.2538   17.4460 C   0  0  0  0  0  0  0  0  0  0  0  0
    2.8992   -0.0635   18.0581 C   0  0  0  0  0  0  0  0  0  0  0  0
    1.5337   -0.0851   17.4047 C   0  0  0  0  0  0  0  0  0  0  0  0
    1.7895   -0.7345   16.1068 N   0  0  0  0  0  0  0  0  0  0  0  0
    2.1859   -6.5260   10.8645 C   0  0  0  0  0  0  0  0  0  0  0  0
    3.6207   -7.7690   10.5371 C   0  0  0  0  0  0  0  0  0  0  0  0
    4.5737   -7.4760    9.4701 C   0  0  0  0  0  0  0  0  0  0  0  0
    5.0130   -8.2075    7.9485 C   0  0  0  0  0  0  0  0  0  0  0  0
    4.5895   -9.7559    8.1434 N   0  0  0  0  0  0  0  0  0  0  0  0
    3.3777  -10.2784    8.8244 C   0  0  0  0  0  0  0  0  0  0  0  0
    2.9860   -9.5468   10.1837 C   0  0  0  0  0  0  0  0  0  0  0  0
    0.9456   -7.3136   10.9550 C   0  0  0  0  0  0  0  0  0  0  0  0
    0.4913   -7.5924    9.1825 C   0  0  0  0  0  0  0  0  0  0  0  0
    0.7241   -6.2381    9.4591 C   0  0  0  0  0  0  0  0  0  0  0  0
    1.6552   -4.8759   13.4343 H   0  0  0  0  0  0  0  0  0  0  0  0
    3.1547   -2.3014   13.1226 H   0  0  0  0  0  0  0  0  0  0  0  0
    1.6419   -2.4777   14.0322 H   0  0  0  0  0  0  0  0  0  0  0  0
    4.2478   -1.9908   14.9465 H   0  0  0  0  0  0  0  0  0  0  0  0
    3.8162   -3.5241   15.6251 H   0  0  0  0  0  0  0  0  0  0  0  0
    2.0911   -2.5997   16.9693 H   0  0  0  0  0  0  0  0  0  0  0  0
    3.9053   -1.9891   18.2129 H   0  0  0  0  0  0  0  0  0  0  0  0
    4.5660   -0.9064   16.9776 H   0  0  0  0  0  0  0  0  0  0  0  0
    2.8449   -0.1258   19.1454 H   0  0  0  0  0  0  0  0  0  0  0  0
    3.4297    0.8628   17.8063 H   0  0  0  0  0  0  0  0  0  0  0  0
    1.1172    0.9178   17.2770 H   0  0  0  0  0  0  0  0  0  0  0  0
    0.8302   -0.6880   17.9901 H   0  0  0  0  0  0  0  0  0  0  0  0
    0.9092   -1.0448   15.7016 H   0  0  0  0  0  0  0  0  0  0  0  0
    5.3887   -6.7938    9.6054 H   0  0  0  0  0  0  0  0  0  0  0  0
    6.1011   -8.1340    7.7649 H   0  0  0  0  0  0  0  0  0  0  0  0
    4.5702   -7.6542    7.1118 H   0  0  0  0  0  0  0  0  0  0  0  0
    5.2685  -10.4426    7.8409 H   0  0  0  0  0  0  0  0  0  0  0  0
    2.5764  -10.2124    8.0859 H   0  0  0  0  0  0  0  0  0  0  0  0
    3.3616  -11.3673    8.9812 H   0  0  0  0  0  0  0  0  0  0  0  0
    3.1627  -10.2232   10.9945 H   0  0  0  0  0  0  0  0  0  0  0  0
    1.9043   -9.5946   10.2069 H   0  0  0  0  0  0  0  0  0  0  0  0
    0.2167   -6.8195   11.6168 H   0  0  0  0  0  0  0  0  0  0  0  0
    0.8894   -8.3839   11.0577 H   0  0  0  0  0  0  0  0  0  0  0  0
   -0.3146   -7.5782    8.4312 H   0  0  0  0  0  0  0  0  0  0  0  0
    0.3415   -8.6831    9.3460 H   0  0  0  0  0  0  0  0  0  0  0  0
    0.6356   -5.2434    8.8701 H   0  0  0  0  0  0  0  0  0  0  0  0
   -0.3780   -6.1410    9.4304 H   0  0  0  0  0  0  0  0  0  0  0  0
  1  2  2  0
  2  3  1  0
  3  4  1  0
  4  5  1  0
  5  6  1  0
  6  7  1  0
  7  8  1  0
  8  9  1  0
  9 10  1  0
  2 11  1  0
 11 12  1  0
 12 13  2  0
 13 14  1  0
 14 15  1  0
 15 16  1  0
 16 17  1  0
 11 18  1  0
 18 19  1  0
 19 20  1  0
 10  6  1  0
 20 11  1  0
 17 12  1  0
  3 21  1  0
  4 22  1  0
  4 23  1  0
  5 24  1  0
  5 25  1  0
  6 26  1  0
  7 27  1  0
  7 28  1  0
  8 29  1  0
  8 30  1  0
  9 31  1  0
  9 32  1  0
 10 33  1  0
 13 34  1  0
 14 35  1  0
 14 36  1  0
 15 37  1  0
 16 38  1  0
 16 39  1  0
 17 40  1  0
 17 41  1  0
 18 42  1  0
 18 43  1  0
 19 44  1  0
 19 45  1  0
 20 46  1  0
 20 47  1  0
M  END
>  <Energy>  (1263) 
484.03309988450826

>  <compound_id>  (1263) 
23025

>  <target_id>  (1263) 
1

>  <reference_id>  (1263) 
70

>  <inspiration_ids>  (1263) 
[85, 70]

>  <energy_score>  (1263) 
407.75296292470216

>  <distance_score>  (1263) 
10.232475533338137

>  <path>  (1263) 
/opt/xchem-fragalysis-2/maxwin/BulkDock/SCRATCH/511013/C23025-P70/C23025-P70.minimised.mol

>  <scratch_subdir>  (1263) 
/opt/xchem-fragalysis-2/maxwin/BulkDock/SCRATCH/511013/C23025-P70

>  <fragmenstein_runtime>  (1263) 
15.163375854492188

>  <fragmenstein_outcome>  (1263) 
too moved

>  <fragmenstein_mode>  (1263) 
expansion

>  <fragmenstein_error>  (1263) 


$$$$
C23026-P85
     RDKit          3D

 45 46  0  0  0  0  0  0  0  0999 V2000
    6.3644   -1.0257   13.4733 C   0  0  0  0  0  0  0  0  0  0  0  0
    5.0259   -0.6437   13.7906 O   0  0  0  0  0  0  0  0  0  0  0  0
    4.5034   -1.2985   14.8569 C   0  0  0  0  0  0  0  0  0  0  0  0
    5.0664   -2.1544   15.5213 O   0  0  0  0  0  0  0  0  0  0  0  0
    3.1319   -0.8162   15.1113 C   0  0  0  0  0  0  0  0  0  0  0  0
    2.3861   -1.3315   16.0903 C   0  0  0  0  0  0  0  0  0  0  0  0
    1.0356   -0.7337   16.3427 C   0  0  0  0  0  0  0  0  0  0  0  0
    0.9155    0.7761   16.3813 N   0  0  0  0  0  0  0  0  0  0  0  0
   -0.2140    1.6159   16.6524 C   0  0  0  0  0  0  0  0  0  0  0  0
   -1.3702    1.3358   16.8284 O   0  0  0  0  0  0  0  0  0  0  0  0
    0.0987    3.1444   16.8632 C   0  0  0  0  0  0  0  0  0  0  0  0
   -0.7523    3.9851   16.5860 O   0  0  0  0  0  0  0  0  0  0  0  0
    1.2989    3.5068   17.4584 N   0  0  0  0  0  0  0  0  0  0  0  0
    2.4095    3.8359   16.5972 C   0  0  0  0  0  0  0  0  0  0  0  0
    1.4744    3.5653   18.9167 C   0  0  0  0  0  0  0  0  0  0  0  0
    0.4423    4.2809   19.8380 C   0  0  0  0  0  0  0  0  0  0  0  0
    0.8303    5.7090   20.2347 C   0  0  0  0  0  0  0  0  0  0  0  0
    0.5186    5.8014   21.7231 C   0  0  0  0  0  0  0  0  0  0  0  0
    0.8287    4.4064   22.2083 C   0  0  0  0  0  0  0  0  0  0  0  0
    0.2847    3.5803   21.1452 N   0  0  0  0  0  0  0  0  0  0  0  0
    1.0966    0.6115   14.8696 C   0  0  0  0  0  0  0  0  0  0  0  0
    2.5194    0.2902   14.3406 C   0  0  0  0  0  0  0  0  0  0  0  0
    6.3904   -2.0636   13.1294 H   0  0  0  0  0  0  0  0  0  0  0  0
    7.0246   -0.8845   14.3350 H   0  0  0  0  0  0  0  0  0  0  0  0
    6.7160   -0.3834   12.6612 H   0  0  0  0  0  0  0  0  0  0  0  0
    2.7353   -2.1421   16.7235 H   0  0  0  0  0  0  0  0  0  0  0  0
    0.1980   -1.2559   15.8518 H   0  0  0  0  0  0  0  0  0  0  0  0
    0.8324   -0.9738   17.3991 H   0  0  0  0  0  0  0  0  0  0  0  0
    3.2209    3.1218   16.7499 H   0  0  0  0  0  0  0  0  0  0  0  0
    2.1052    3.8045   15.5465 H   0  0  0  0  0  0  0  0  0  0  0  0
    2.7568    4.8449   16.8367 H   0  0  0  0  0  0  0  0  0  0  0  0
    1.4773    2.5140   19.1876 H   0  0  0  0  0  0  0  0  0  0  0  0
    2.4811    3.9442   19.1277 H   0  0  0  0  0  0  0  0  0  0  0  0
   -0.5351    4.3085   19.3497 H   0  0  0  0  0  0  0  0  0  0  0  0
    0.2735    6.4587   19.6634 H   0  0  0  0  0  0  0  0  0  0  0  0
    1.8996    5.8925   20.0766 H   0  0  0  0  0  0  0  0  0  0  0  0
    1.1202    6.5655   22.2236 H   0  0  0  0  0  0  0  0  0  0  0  0
   -0.5411    6.0414   21.8737 H   0  0  0  0  0  0  0  0  0  0  0  0
    0.3627    4.1873   23.1726 H   0  0  0  0  0  0  0  0  0  0  0  0
    1.9104    4.2546   22.2964 H   0  0  0  0  0  0  0  0  0  0  0  0
    0.7299    2.6554   21.1089 H   0  0  0  0  0  0  0  0  0  0  0  0
    0.8866    1.6165   14.4670 H   0  0  0  0  0  0  0  0  0  0  0  0
    0.2989    0.0253   14.3778 H   0  0  0  0  0  0  0  0  0  0  0  0
    3.1410    1.1881   14.4482 H   0  0  0  0  0  0  0  0  0  0  0  0
    2.4608    0.0488   13.2734 H   0  0  0  0  0  0  0  0  0  0  0  0
  1  2  1  0
  2  3  1  0
  3  4  2  0
  3  5  1  0
  5  6  2  0
  6  7  1  0
  7  8  1  0
  8  9  1  0
  9 10  2  0
  9 11  1  0
 11 12  2  0
 11 13  1  0
 13 14  1  0
 13 15  1  0
 15 16  1  0
 16 17  1  0
 17 18  1  0
 18 19  1  0
 19 20  1  0
  8 21  1  0
 21 22  1  0
 22  5  1  0
 20 16  1  0
  1 23  1  0
  1 24  1  0
  1 25  1  0
  6 26  1  0
  7 27  1  0
  7 28  1  0
 14 29  1  0
 14 30  1  0
 14 31  1  0
 15 32  1  0
 15 33  1  0
 16 34  1  0
 17 35  1  0
 17 36  1  0
 18 37  1  0
 18 38  1  0
 19 39  1  0
 19 40  1  0
 20 41  1  0
 21 42  1  0
 21 43  1  0
 22 44  1  0
 22 45  1  0
M  END
>  <Energy>  (1264) 
153.59725907227153

>  <compound_id>  (1264) 
23026

>  <target_id>  (1264) 
1

>  <reference_id>  (1264) 
85

>  <inspiration_ids>  (1264) 
[85, 70]

>  <energy_score>  (1264) 
62.191498402655725

>  <distance_score>  (1264) 
13.795697852978792

>  <path>  (1264) 
/opt/xchem-fragalysis-2/maxwin/BulkDock/SCRATCH/511013/C23026-P85/C23026-P85.minimised.mol

>  <scratch_subdir>  (1264) 
/opt/xchem-fragalysis-2/maxwin/BulkDock/SCRATCH/511013/C23026-P85

>  <fragmenstein_runtime>  (1264) 
27.925659656524658

>  <fragmenstein_outcome>  (1264) 
too moved

>  <fragmenstein_mode>  (1264) 
expansion

>  <fragmenstein_error>  (1264) 


$$$$
C23026-P70
     RDKit          3D

 45 46  0  0  0  0  0  0  0  0999 V2000
   -0.0954  -15.8523    9.7980 C   0  0  0  0  0  0  0  0  0  0  0  0
   -0.7988  -14.6270   10.1586 O   0  0  0  0  0  0  0  0  0  0  0  0
   -0.1440  -14.0013   11.1339 C   0  0  0  0  0  0  0  0  0  0  0  0
    0.4002  -14.7238   11.9369 O   0  0  0  0  0  0  0  0  0  0  0  0
   -0.0250  -12.5278   11.3266 C   0  0  0  0  0  0  0  0  0  0  0  0
   -0.4933  -11.3500   10.8875 C   0  0  0  0  0  0  0  0  0  0  0  0
   -0.6684  -10.0276   11.9531 C   0  0  0  0  0  0  0  0  0  0  0  0
   -1.4169  -10.0678   13.6486 N   0  0  0  0  0  0  0  0  0  0  0  0
   -1.0038   -9.0993   15.2803 C   0  0  0  0  0  0  0  0  0  0  0  0
   -0.0380   -8.2643   15.5553 O   0  0  0  0  0  0  0  0  0  0  0  0
   -2.1252   -9.4144   16.9354 C   0  0  0  0  0  0  0  0  0  0  0  0
   -2.5821  -10.5556   17.1187 O   0  0  0  0  0  0  0  0  0  0  0  0
   -2.5355   -8.5565   17.9962 N   0  0  0  0  0  0  0  0  0  0  0  0
   -3.7753   -7.8364   17.8512 C   0  0  0  0  0  0  0  0  0  0  0  0
   -1.7147   -8.4138   19.2172 C   0  0  0  0  0  0  0  0  0  0  0  0
   -2.1508   -7.5043   20.4127 C   0  0  0  0  0  0  0  0  0  0  0  0
   -3.4611   -7.8700   21.1080 C   0  0  0  0  0  0  0  0  0  0  0  0
   -3.2962   -7.4040   22.5452 C   0  0  0  0  0  0  0  0  0  0  0  0
   -1.8161   -7.5884   22.8112 C   0  0  0  0  0  0  0  0  0  0  0  0
   -1.1545   -7.5928   21.5072 N   0  0  0  0  0  0  0  0  0  0  0  0
   -0.7312  -11.7247   13.3511 C   0  0  0  0  0  0  0  0  0  0  0  0
    0.4078  -12.1956   12.6867 C   0  0  0  0  0  0  0  0  0  0  0  0
   -0.1228  -16.5969   10.5942 H   0  0  0  0  0  0  0  0  0  0  0  0
   -0.5490  -16.2626    8.8982 H   0  0  0  0  0  0  0  0  0  0  0  0
    0.9479  -15.6381    9.5422 H   0  0  0  0  0  0  0  0  0  0  0  0
   -1.2193  -11.3161   10.0899 H   0  0  0  0  0  0  0  0  0  0  0  0
   -1.7012  -10.0013   11.6217 H   0  0  0  0  0  0  0  0  0  0  0  0
    0.2135   -9.4908   11.6281 H   0  0  0  0  0  0  0  0  0  0  0  0
   -3.6719   -6.7678   18.0301 H   0  0  0  0  0  0  0  0  0  0  0  0
   -4.4787   -8.2401   18.5852 H   0  0  0  0  0  0  0  0  0  0  0  0
   -4.2178   -8.0583   16.8819 H   0  0  0  0  0  0  0  0  0  0  0  0
   -0.7036   -8.1363   18.9083 H   0  0  0  0  0  0  0  0  0  0  0  0
   -1.6824   -9.4297   19.6265 H   0  0  0  0  0  0  0  0  0  0  0  0
   -2.2205   -6.4769   20.0572 H   0  0  0  0  0  0  0  0  0  0  0  0
   -3.6225   -8.9551   21.0884 H   0  0  0  0  0  0  0  0  0  0  0  0
   -4.3285   -7.3879   20.6481 H   0  0  0  0  0  0  0  0  0  0  0  0
   -3.5981   -6.3563   22.6413 H   0  0  0  0  0  0  0  0  0  0  0  0
   -3.9152   -7.9884   23.2330 H   0  0  0  0  0  0  0  0  0  0  0  0
   -1.6383   -8.5572   23.2908 H   0  0  0  0  0  0  0  0  0  0  0  0
   -1.4186   -6.8184   23.4797 H   0  0  0  0  0  0  0  0  0  0  0  0
   -0.4316   -6.8814   21.4187 H   0  0  0  0  0  0  0  0  0  0  0  0
   -1.2089  -11.6673   12.5280 H   0  0  0  0  0  0  0  0  0  0  0  0
   -1.2374  -12.6849   13.5073 H   0  0  0  0  0  0  0  0  0  0  0  0
    1.1063  -11.4287   12.9252 H   0  0  0  0  0  0  0  0  0  0  0  0
    0.7449  -13.0783   13.0984 H   0  0  0  0  0  0  0  0  0  0  0  0
  1  2  1  0
  2  3  1  0
  3  4  2  0
  3  5  1  0
  5  6  2  0
  6  7  1  0
  7  8  1  0
  8  9  1  0
  9 10  2  0
  9 11  1  0
 11 12  2  0
 11 13  1  0
 13 14  1  0
 13 15  1  0
 15 16  1  0
 16 17  1  0
 17 18  1  0
 18 19  1  0
 19 20  1  0
  8 21  1  0
 21 22  1  0
 22  5  1  0
 20 16  1  0
  1 23  1  0
  1 24  1  0
  1 25  1  0
  6 26  1  0
  7 27  1  0
  7 28  1  0
 14 29  1  0
 14 30  1  0
 14 31  1  0
 15 32  1  0
 15 33  1  0
 16 34  1  0
 17 35  1  0
 17 36  1  0
 18 37  1  0
 18 38  1  0
 19 39  1  0
 19 40  1  0
 20 41  1  0
 21 42  1  0
 21 43  1  0
 22 44  1  0
 22 45  1  0
M  END
>  <Energy>  (1265) 
612.24158491280514

>  <compound_id>  (1265) 
23026

>  <target_id>  (1265) 
1

>  <reference_id>  (1265) 
70

>  <inspiration_ids>  (1265) 
[85, 70]

>  <energy_score>  (1265) 
520.8358242431837

>  <distance_score>  (1265) 
9.602326277147846

>  <path>  (1265) 
/opt/xchem-fragalysis-2/maxwin/BulkDock/SCRATCH/511013/C23026-P70/C23026-P70.minimised.mol

>  <scratch_subdir>  (1265) 
/opt/xchem-fragalysis-2/maxwin/BulkDock/SCRATCH/511013/C23026-P70

>  <fragmenstein_runtime>  (1265) 
21.72917103767395

>  <fragmenstein_outcome>  (1265) 
too moved

>  <fragmenstein_mode>  (1265) 
expansion

>  <fragmenstein_error>  (1265) 


$$$$
C23030-P85
     RDKit          3D

 41 42  0  0  0  0  0  0  0  0999 V2000
   -0.2919   -8.5786   16.3080 C   0  0  0  0  0  0  0  0  0  0  0  0
   -1.8622   -9.5318   17.0942 C   0  0  0  0  0  0  0  0  0  0  0  0
   -2.6234  -10.6499   18.1503 C   0  0  0  0  0  0  0  0  0  0  0  0
   -3.4576   -9.4732   16.3002 C   0  0  0  0  0  0  0  0  0  0  0  0
   -4.3650   -9.0151   16.9837 O   0  0  0  0  0  0  0  0  0  0  0  0
   -3.7490   -9.7917   14.9270 N   0  0  0  0  0  0  0  0  0  0  0  0
   -4.3060  -11.6123   14.8741 C   0  0  0  0  0  0  0  0  0  0  0  0
   -3.5472  -12.9521   14.0210 C   0  0  0  0  0  0  0  0  0  0  0  0
   -2.9008  -12.5850   12.9060 C   0  0  0  0  0  0  0  0  0  0  0  0
   -2.1341  -13.2172   11.7873 C   0  0  0  0  0  0  0  0  0  0  0  0
   -1.9740  -12.3069   10.7927 F   0  0  0  0  0  0  0  0  0  0  0  0
   -0.8824  -13.6193   12.1339 F   0  0  0  0  0  0  0  0  0  0  0  0
   -2.7947  -14.2573   11.2164 F   0  0  0  0  0  0  0  0  0  0  0  0
   -3.1208  -11.1467   12.8500 C   0  0  0  0  0  0  0  0  0  0  0  0
   -4.2157  -10.9014   14.2015 C   0  0  0  0  0  0  0  0  0  0  0  0
   -1.0032   -9.0252   18.2739 C   0  0  0  0  0  0  0  0  0  0  0  0
   -1.2397   -8.7904   19.6152 C   0  0  0  0  0  0  0  0  0  0  0  0
    0.2594   -8.3447   20.2618 C   0  0  0  0  0  0  0  0  0  0  0  0
    1.2939   -8.5095   19.2361 C   0  0  0  0  0  0  0  0  0  0  0  0
    0.4437   -8.6638   18.2177 N   0  0  0  0  0  0  0  0  0  0  0  0
    0.7659   -8.5318   16.4085 H   0  0  0  0  0  0  0  0  0  0  0  0
   -0.2572   -7.8809   15.3981 H   0  0  0  0  0  0  0  0  0  0  0  0
   -0.4879   -7.7353   16.8854 H   0  0  0  0  0  0  0  0  0  0  0  0
   -3.4880  -11.1810   17.7300 H   0  0  0  0  0  0  0  0  0  0  0  0
   -1.9760  -11.4859   18.4605 H   0  0  0  0  0  0  0  0  0  0  0  0
   -3.0922  -10.1470   18.9934 H   0  0  0  0  0  0  0  0  0  0  0  0
   -5.4226  -11.8428   15.2347 H   0  0  0  0  0  0  0  0  0  0  0  0
   -3.9689  -11.9263   15.9160 H   0  0  0  0  0  0  0  0  0  0  0  0
   -3.6541  -13.9438   14.4371 H   0  0  0  0  0  0  0  0  0  0  0  0
   -2.1940  -10.5801   12.9793 H   0  0  0  0  0  0  0  0  0  0  0  0
   -3.6275  -10.8440   11.9242 H   0  0  0  0  0  0  0  0  0  0  0  0
   -4.5042   -9.9976   13.5369 H   0  0  0  0  0  0  0  0  0  0  0  0
   -5.3932  -10.9455   13.6852 H   0  0  0  0  0  0  0  0  0  0  0  0
   -0.8791  -10.0492   18.3986 H   0  0  0  0  0  0  0  0  0  0  0  0
   -1.4838   -9.7904   19.9056 H   0  0  0  0  0  0  0  0  0  0  0  0
   -2.2304   -8.3033   19.6156 H   0  0  0  0  0  0  0  0  0  0  0  0
    0.3118   -7.7090   21.1314 H   0  0  0  0  0  0  0  0  0  0  0  0
    0.7655   -9.0985   20.8674 H   0  0  0  0  0  0  0  0  0  0  0  0
    1.9605   -9.3776   19.2098 H   0  0  0  0  0  0  0  0  0  0  0  0
    2.0758   -7.7975   19.0234 H   0  0  0  0  0  0  0  0  0  0  0  0
    0.9210   -9.4736   17.8555 H   0  0  0  0  0  0  0  0  0  0  0  0
  1  2  1  0
  2  3  1  0
  2  4  1  0
  4  5  2  0
  4  6  1  0
  6  7  1  0
  7  8  1  0
  8  9  2  0
  9 10  1  0
 10 11  1  0
 10 12  1  0
 10 13  1  0
  9 14  1  0
 14 15  1  0
  2 16  1  0
 16 17  1  0
 17 18  1  0
 18 19  1  0
 19 20  1  0
 15  6  1  0
 20 16  1  0
  1 21  1  0
  1 22  1  0
  1 23  1  0
  3 24  1  0
  3 25  1  0
  3 26  1  0
  7 27  1  0
  7 28  1  0
  8 29  1  0
 14 30  1  0
 14 31  1  0
 15 32  1  0
 15 33  1  0
 16 34  1  0
 17 35  1  0
 17 36  1  0
 18 37  1  0
 18 38  1  0
 19 39  1  0
 19 40  1  0
 20 41  1  0
M  END
>  <Energy>  (1266) 
1062.1609256898043

>  <compound_id>  (1266) 
23030

>  <target_id>  (1266) 
1

>  <reference_id>  (1266) 
85

>  <inspiration_ids>  (1266) 
[85, 70]

>  <energy_score>  (1266) 
997.811176785601

>  <distance_score>  (1266) 
12.19758338275978

>  <path>  (1266) 
/opt/xchem-fragalysis-2/maxwin/BulkDock/SCRATCH/511013/C23030-P85/C23030-P85.minimised.mol

>  <scratch_subdir>  (1266) 
/opt/xchem-fragalysis-2/maxwin/BulkDock/SCRATCH/511013/C23030-P85

>  <fragmenstein_runtime>  (1266) 
17.131824016571045

>  <fragmenstein_outcome>  (1266) 
too moved

>  <fragmenstein_mode>  (1266) 
expansion

>  <fragmenstein_error>  (1266) 


$$$$
C23030-P70
     RDKit          3D

 41 42  0  0  0  0  0  0  0  0999 V2000
    5.0773   -3.9726   16.4371 C   0  0  0  0  0  0  0  0  0  0  0  0
    5.1036   -2.6201   15.7535 C   0  0  0  0  0  0  0  0  0  0  0  0
    3.6488   -2.0903   15.5974 C   0  0  0  0  0  0  0  0  0  0  0  0
    5.7417   -2.7282   14.2911 C   0  0  0  0  0  0  0  0  0  0  0  0
    6.7249   -2.0362   14.0444 O   0  0  0  0  0  0  0  0  0  0  0  0
    5.0991   -3.5228   13.3122 N   0  0  0  0  0  0  0  0  0  0  0  0
    5.9219   -5.2754   13.3591 C   0  0  0  0  0  0  0  0  0  0  0  0
    5.6632   -6.8498   12.5926 C   0  0  0  0  0  0  0  0  0  0  0  0
    4.7774   -6.8789   11.5860 C   0  0  0  0  0  0  0  0  0  0  0  0
    4.2720   -7.9991   10.7215 C   0  0  0  0  0  0  0  0  0  0  0  0
    2.9225   -8.0072   10.5731 F   0  0  0  0  0  0  0  0  0  0  0  0
    4.5965   -9.2158   11.2232 F   0  0  0  0  0  0  0  0  0  0  0  0
    4.7940   -7.9147    9.4738 F   0  0  0  0  0  0  0  0  0  0  0  0
    4.3261   -5.4775   11.4556 C   0  0  0  0  0  0  0  0  0  0  0  0
    5.2158   -4.7781   12.8527 C   0  0  0  0  0  0  0  0  0  0  0  0
    5.8981   -1.5759   16.6752 C   0  0  0  0  0  0  0  0  0  0  0  0
    7.3037   -2.0222   17.0939 C   0  0  0  0  0  0  0  0  0  0  0  0
    7.1896   -2.4407   18.5478 C   0  0  0  0  0  0  0  0  0  0  0  0
    6.1869   -1.4658   19.0828 C   0  0  0  0  0  0  0  0  0  0  0  0
    5.2603   -1.2287   17.9724 N   0  0  0  0  0  0  0  0  0  0  0  0
    4.6693   -3.9183   17.4441 H   0  0  0  0  0  0  0  0  0  0  0  0
    4.5000   -4.6881   15.8509 H   0  0  0  0  0  0  0  0  0  0  0  0
    6.0802   -4.4051   16.5143 H   0  0  0  0  0  0  0  0  0  0  0  0
    3.0921   -2.0964   16.5390 H   0  0  0  0  0  0  0  0  0  0  0  0
    3.0826   -2.7058   14.8898 H   0  0  0  0  0  0  0  0  0  0  0  0
    3.6500   -1.0684   15.2017 H   0  0  0  0  0  0  0  0  0  0  0  0
    5.9526   -5.5375   14.4800 H   0  0  0  0  0  0  0  0  0  0  0  0
    7.0658   -5.0726   13.2454 H   0  0  0  0  0  0  0  0  0  0  0  0
    6.2239   -7.6975   12.9717 H   0  0  0  0  0  0  0  0  0  0  0  0
    3.2503   -5.3187   11.5617 H   0  0  0  0  0  0  0  0  0  0  0  0
    4.6615   -5.0270   10.5121 H   0  0  0  0  0  0  0  0  0  0  0  0
    5.6337   -4.1719   11.9203 H   0  0  0  0  0  0  0  0  0  0  0  0
    4.1198   -4.8628   13.2905 H   0  0  0  0  0  0  0  0  0  0  0  0
    5.9902   -0.6445   16.1013 H   0  0  0  0  0  0  0  0  0  0  0  0
    7.7245   -2.8188   16.4740 H   0  0  0  0  0  0  0  0  0  0  0  0
    7.9887   -1.1664   17.0250 H   0  0  0  0  0  0  0  0  0  0  0  0
    8.1501   -2.3852   19.0685 H   0  0  0  0  0  0  0  0  0  0  0  0
    6.8200   -3.4684   18.6291 H   0  0  0  0  0  0  0  0  0  0  0  0
    6.6763   -0.5218   19.3487 H   0  0  0  0  0  0  0  0  0  0  0  0
    5.6834   -1.8494   19.9752 H   0  0  0  0  0  0  0  0  0  0  0  0
    4.4045   -1.7596   18.0982 H   0  0  0  0  0  0  0  0  0  0  0  0
  1  2  1  0
  2  3  1  0
  2  4  1  0
  4  5  2  0
  4  6  1  0
  6  7  1  0
  7  8  1  0
  8  9  2  0
  9 10  1  0
 10 11  1  0
 10 12  1  0
 10 13  1  0
  9 14  1  0
 14 15  1  0
  2 16  1  0
 16 17  1  0
 17 18  1  0
 18 19  1  0
 19 20  1  0
 15  6  1  0
 20 16  1  0
  1 21  1  0
  1 22  1  0
  1 23  1  0
  3 24  1  0
  3 25  1  0
  3 26  1  0
  7 27  1  0
  7 28  1  0
  8 29  1  0
 14 30  1  0
 14 31  1  0
 15 32  1  0
 15 33  1  0
 16 34  1  0
 17 35  1  0
 17 36  1  0
 18 37  1  0
 18 38  1  0
 19 39  1  0
 19 40  1  0
 20 41  1  0
M  END
>  <Energy>  (1267) 
640.31230443041352

>  <compound_id>  (1267) 
23030

>  <target_id>  (1267) 
1

>  <reference_id>  (1267) 
70

>  <inspiration_ids>  (1267) 
[85, 70]

>  <energy_score>  (1267) 
575.9625555262027

>  <distance_score>  (1267) 
12.37832762865777

>  <path>  (1267) 
/opt/xchem-fragalysis-2/maxwin/BulkDock/SCRATCH/511013/C23030-P70/C23030-P70.minimised.mol

>  <scratch_subdir>  (1267) 
/opt/xchem-fragalysis-2/maxwin/BulkDock/SCRATCH/511013/C23030-P70

>  <fragmenstein_runtime>  (1267) 
17.88377094268799

>  <fragmenstein_outcome>  (1267) 
too moved

>  <fragmenstein_mode>  (1267) 
expansion

>  <fragmenstein_error>  (1267) 


$$$$
C23032-P85
     RDKit          3D

 47 49  0  0  0  0  0  0  0  0999 V2000
   -2.8139  -10.4490   19.3332 C   0  0  0  0  0  0  0  0  0  0  0  0
   -3.1425  -11.9770   19.7695 C   0  0  0  0  0  0  0  0  0  0  0  0
   -1.9237  -12.5667   20.5116 C   0  0  0  0  0  0  0  0  0  0  0  0
   -3.1266  -12.5625   18.2646 C   0  0  0  0  0  0  0  0  0  0  0  0
   -2.0616  -12.9967   17.8842 O   0  0  0  0  0  0  0  0  0  0  0  0
   -4.3664  -12.3846   17.5604 N   0  0  0  0  0  0  0  0  0  0  0  0
   -5.2271  -13.6306   17.6974 C   0  0  0  0  0  0  0  0  0  0  0  0
   -4.5595  -14.9762   17.2201 C   0  0  0  0  0  0  0  0  0  0  0  0
   -4.2043  -14.9310   15.7706 C   0  0  0  0  0  0  0  0  0  0  0  0
   -4.3209  -13.7414   15.1685 C   0  0  0  0  0  0  0  0  0  0  0  0
   -4.1998  -13.5664   13.6745 C   0  0  0  0  0  0  0  0  0  0  0  0
   -4.9861  -14.3381   12.8079 C   0  0  0  0  0  0  0  0  0  0  0  0
   -4.7927  -14.2465   11.4284 C   0  0  0  0  0  0  0  0  0  0  0  0
   -3.8825  -13.4500   10.8361 N   0  0  0  0  0  0  0  0  0  0  0  0
   -3.1325  -12.7047   11.6693 C   0  0  0  0  0  0  0  0  0  0  0  0
   -3.2768  -12.7099   13.0572 C   0  0  0  0  0  0  0  0  0  0  0  0
   -4.7252  -12.5775   16.0427 C   0  0  0  0  0  0  0  0  0  0  0  0
   -4.3701  -12.0247   20.7797 C   0  0  0  0  0  0  0  0  0  0  0  0
   -4.3662  -11.0281   21.9812 C   0  0  0  0  0  0  0  0  0  0  0  0
   -5.5607  -11.4302   22.8080 C   0  0  0  0  0  0  0  0  0  0  0  0
   -5.5843  -12.9338   22.6074 C   0  0  0  0  0  0  0  0  0  0  0  0
   -4.5887  -13.2703   21.5591 N   0  0  0  0  0  0  0  0  0  0  0  0
   -3.3243   -9.6885   19.9225 H   0  0  0  0  0  0  0  0  0  0  0  0
   -1.7499  -10.2519   19.3647 H   0  0  0  0  0  0  0  0  0  0  0  0
   -3.0670  -10.2310   18.2867 H   0  0  0  0  0  0  0  0  0  0  0  0
   -1.8314  -12.2625   21.5547 H   0  0  0  0  0  0  0  0  0  0  0  0
   -0.9843  -12.3492   20.0147 H   0  0  0  0  0  0  0  0  0  0  0  0
   -1.9975  -13.6623   20.5201 H   0  0  0  0  0  0  0  0  0  0  0  0
   -6.2689  -13.5066   17.3577 H   0  0  0  0  0  0  0  0  0  0  0  0
   -5.3492  -13.7643   18.7803 H   0  0  0  0  0  0  0  0  0  0  0  0
   -5.2724  -15.7906   17.3926 H   0  0  0  0  0  0  0  0  0  0  0  0
   -3.6646  -15.1978   17.8113 H   0  0  0  0  0  0  0  0  0  0  0  0
   -3.9276  -15.8357   15.2456 H   0  0  0  0  0  0  0  0  0  0  0  0
   -5.7272  -15.0275   13.1965 H   0  0  0  0  0  0  0  0  0  0  0  0
   -5.3907  -14.8441   10.7468 H   0  0  0  0  0  0  0  0  0  0  0  0
   -2.3845  -12.0821   11.1870 H   0  0  0  0  0  0  0  0  0  0  0  0
   -2.6209  -12.0814   13.6299 H   0  0  0  0  0  0  0  0  0  0  0  0
   -5.7817  -12.3035   15.8750 H   0  0  0  0  0  0  0  0  0  0  0  0
   -4.2172  -11.7013   15.6212 H   0  0  0  0  0  0  0  0  0  0  0  0
   -5.2890  -11.9566   20.2025 H   0  0  0  0  0  0  0  0  0  0  0  0
   -3.4958  -11.1952   22.6268 H   0  0  0  0  0  0  0  0  0  0  0  0
   -4.4112   -9.9690   21.7292 H   0  0  0  0  0  0  0  0  0  0  0  0
   -6.4775  -10.9770   22.4156 H   0  0  0  0  0  0  0  0  0  0  0  0
   -5.4522  -11.1463   23.8589 H   0  0  0  0  0  0  0  0  0  0  0  0
   -5.3382  -13.4650   23.5330 H   0  0  0  0  0  0  0  0  0  0  0  0
   -6.5793  -13.2659   22.2922 H   0  0  0  0  0  0  0  0  0  0  0  0
   -3.7200  -13.5279   22.0288 H   0  0  0  0  0  0  0  0  0  0  0  0
  1  2  1  0
  2  3  1  0
  2  4  1  0
  4  5  2  0
  4  6  1  0
  6  7  1  0
  7  8  1  0
  8  9  1  0
  9 10  2  0
 10 11  1  0
 11 12  2  0
 12 13  1  0
 13 14  2  0
 14 15  1  0
 15 16  2  0
 10 17  1  0
  2 18  1  0
 18 19  1  0
 19 20  1  0
 20 21  1  0
 21 22  1  0
 17  6  1  0
 22 18  1  0
 16 11  1  0
  1 23  1  0
  1 24  1  0
  1 25  1  0
  3 26  1  0
  3 27  1  0
  3 28  1  0
  7 29  1  0
  7 30  1  0
  8 31  1  0
  8 32  1  0
  9 33  1  0
 12 34  1  0
 13 35  1  0
 15 36  1  0
 16 37  1  0
 17 38  1  0
 17 39  1  0
 18 40  1  0
 19 41  1  0
 19 42  1  0
 20 43  1  0
 20 44  1  0
 21 45  1  0
 21 46  1  0
 22 47  1  0
M  END
>  <Energy>  (1268) 
144.81212655200576

>  <compound_id>  (1268) 
23032

>  <target_id>  (1268) 
1

>  <reference_id>  (1268) 
85

>  <inspiration_ids>  (1268) 
[85, 70]

>  <energy_score>  (1268) 
64.53641329715157

>  <distance_score>  (1268) 
12.968613466754157

>  <path>  (1268) 
/opt/xchem-fragalysis-2/maxwin/BulkDock/SCRATCH/511013/C23032-P85/C23032-P85.minimised.mol

>  <scratch_subdir>  (1268) 
/opt/xchem-fragalysis-2/maxwin/BulkDock/SCRATCH/511013/C23032-P85

>  <fragmenstein_runtime>  (1268) 
19.441923141479492

>  <fragmenstein_outcome>  (1268) 
too moved

>  <fragmenstein_mode>  (1268) 
expansion

>  <fragmenstein_error>  (1268) 


$$$$
C23032-P70
     RDKit          3D

 47 49  0  0  0  0  0  0  0  0999 V2000
    3.1411   -5.8905   21.0708 C   0  0  0  0  0  0  0  0  0  0  0  0
    1.9026   -6.8026   19.7531 C   0  0  0  0  0  0  0  0  0  0  0  0
    1.3353   -5.2317   20.5952 C   0  0  0  0  0  0  0  0  0  0  0  0
    3.1827   -7.6080   18.1546 C   0  0  0  0  0  0  0  0  0  0  0  0
    4.1393   -6.8751   17.9811 O   0  0  0  0  0  0  0  0  0  0  0  0
    3.1477   -9.0068   16.9592 N   0  0  0  0  0  0  0  0  0  0  0  0
    3.8878  -10.1984   17.5137 C   0  0  0  0  0  0  0  0  0  0  0  0
    4.2939  -11.6007   16.8476 C   0  0  0  0  0  0  0  0  0  0  0  0
    4.7198  -11.8958   15.4076 C   0  0  0  0  0  0  0  0  0  0  0  0
    4.6080  -11.0499   14.3571 C   0  0  0  0  0  0  0  0  0  0  0  0
    5.0586  -11.9172   12.6566 C   0  0  0  0  0  0  0  0  0  0  0  0
    4.2394  -12.4373   10.8964 C   0  0  0  0  0  0  0  0  0  0  0  0
    4.4498  -13.2192    9.6086 C   0  0  0  0  0  0  0  0  0  0  0  0
    5.5876  -13.9889    9.7504 N   0  0  0  0  0  0  0  0  0  0  0  0
    6.3297  -13.6017   11.1460 C   0  0  0  0  0  0  0  0  0  0  0  0
    6.1087  -12.8018   12.6360 C   0  0  0  0  0  0  0  0  0  0  0  0
    4.2385   -9.4481   15.4181 C   0  0  0  0  0  0  0  0  0  0  0  0
    1.2550   -8.0416   21.1050 C   0  0  0  0  0  0  0  0  0  0  0  0
    0.0901   -7.9864   22.0747 C   0  0  0  0  0  0  0  0  0  0  0  0
    0.1271   -9.2326   22.9347 C   0  0  0  0  0  0  0  0  0  0  0  0
    0.5365  -10.2388   21.9159 C   0  0  0  0  0  0  0  0  0  0  0  0
    1.5269   -9.5335   21.1037 N   0  0  0  0  0  0  0  0  0  0  0  0
    4.1479   -6.3067   21.3118 H   0  0  0  0  0  0  0  0  0  0  0  0
    3.5569   -5.0061   20.5961 H   0  0  0  0  0  0  0  0  0  0  0  0
    2.7405   -5.8229   22.1005 H   0  0  0  0  0  0  0  0  0  0  0  0
    0.6329   -4.5618   20.1115 H   0  0  0  0  0  0  0  0  0  0  0  0
    1.8866   -4.4560   21.1217 H   0  0  0  0  0  0  0  0  0  0  0  0
    0.8521   -5.5925   21.5179 H   0  0  0  0  0  0  0  0  0  0  0  0
    3.4056  -10.4237   18.4705 H   0  0  0  0  0  0  0  0  0  0  0  0
    4.8475   -9.7655   17.8408 H   0  0  0  0  0  0  0  0  0  0  0  0
    5.1441  -11.9421   17.4589 H   0  0  0  0  0  0  0  0  0  0  0  0
    3.5190  -12.3304   17.0877 H   0  0  0  0  0  0  0  0  0  0  0  0
    5.1154  -12.8969   15.2745 H   0  0  0  0  0  0  0  0  0  0  0  0
    4.5245  -13.4411   10.9559 H   0  0  0  0  0  0  0  0  0  0  0  0
    3.7545  -13.2349    8.8054 H   0  0  0  0  0  0  0  0  0  0  0  0
    7.3283  -13.6029   10.7509 H   0  0  0  0  0  0  0  0  0  0  0  0
    6.5148  -13.1772   13.5648 H   0  0  0  0  0  0  0  0  0  0  0  0
    5.2267   -9.0470   15.6897 H   0  0  0  0  0  0  0  0  0  0  0  0
    3.8171   -8.7606   14.6771 H   0  0  0  0  0  0  0  0  0  0  0  0
    1.9381   -7.7282   21.9028 H   0  0  0  0  0  0  0  0  0  0  0  0
   -0.8615   -8.0276   21.5474 H   0  0  0  0  0  0  0  0  0  0  0  0
    0.2680   -7.2084   22.8210 H   0  0  0  0  0  0  0  0  0  0  0  0
   -0.8395   -9.4528   23.3969 H   0  0  0  0  0  0  0  0  0  0  0  0
    0.8800   -9.1440   23.7279 H   0  0  0  0  0  0  0  0  0  0  0  0
    0.9559  -11.1442   22.3649 H   0  0  0  0  0  0  0  0  0  0  0  0
   -0.3168  -10.5381   21.2982 H   0  0  0  0  0  0  0  0  0  0  0  0
    2.4459   -9.6995   21.5139 H   0  0  0  0  0  0  0  0  0  0  0  0
  1  2  1  0
  2  3  1  0
  2  4  1  0
  4  5  2  0
  4  6  1  0
  6  7  1  0
  7  8  1  0
  8  9  1  0
  9 10  2  0
 10 11  1  0
 11 12  2  0
 12 13  1  0
 13 14  2  0
 14 15  1  0
 15 16  2  0
 10 17  1  0
  2 18  1  0
 18 19  1  0
 19 20  1  0
 20 21  1  0
 21 22  1  0
 17  6  1  0
 22 18  1  0
 16 11  1  0
  1 23  1  0
  1 24  1  0
  1 25  1  0
  3 26  1  0
  3 27  1  0
  3 28  1  0
  7 29  1  0
  7 30  1  0
  8 31  1  0
  8 32  1  0
  9 33  1  0
 12 34  1  0
 13 35  1  0
 15 36  1  0
 16 37  1  0
 17 38  1  0
 17 39  1  0
 18 40  1  0
 19 41  1  0
 19 42  1  0
 20 43  1  0
 20 44  1  0
 21 45  1  0
 21 46  1  0
 22 47  1  0
M  END
>  <Energy>  (1269) 
1135.3395087845486

>  <compound_id>  (1269) 
23032

>  <target_id>  (1269) 
1

>  <reference_id>  (1269) 
70

>  <inspiration_ids>  (1269) 
[85, 70]

>  <energy_score>  (1269) 
1055.0637955296957

>  <distance_score>  (1269) 
10.287268594247815

>  <path>  (1269) 
/opt/xchem-fragalysis-2/maxwin/BulkDock/SCRATCH/511013/C23032-P70/C23032-P70.minimised.mol

>  <scratch_subdir>  (1269) 
/opt/xchem-fragalysis-2/maxwin/BulkDock/SCRATCH/511013/C23032-P70

>  <fragmenstein_runtime>  (1269) 
21.693651914596558

>  <fragmenstein_outcome>  (1269) 
too moved

>  <fragmenstein_mode>  (1269) 
expansion

>  <fragmenstein_error>  (1269) 


$$$$
C23033-P85
     RDKit          3D

 47 49  0  0  0  0  0  0  0  0999 V2000
    7.4391   -5.6330   14.7619 C   0  0  0  0  0  0  0  0  0  0  0  0
    6.0838   -4.9566   14.8198 C   0  0  0  0  0  0  0  0  0  0  0  0
    6.3045   -3.5244   14.2611 C   0  0  0  0  0  0  0  0  0  0  0  0
    4.9970   -5.6503   13.8182 C   0  0  0  0  0  0  0  0  0  0  0  0
    3.9918   -4.9849   13.6959 O   0  0  0  0  0  0  0  0  0  0  0  0
    5.3273   -6.9978   13.2922 N   0  0  0  0  0  0  0  0  0  0  0  0
    4.9418   -8.0245   14.2691 C   0  0  0  0  0  0  0  0  0  0  0  0
    5.6620   -9.3478   14.2901 C   0  0  0  0  0  0  0  0  0  0  0  0
    5.1433  -10.2292   13.2318 C   0  0  0  0  0  0  0  0  0  0  0  0
    4.3948   -9.7984   12.1591 C   0  0  0  0  0  0  0  0  0  0  0  0
    3.7053  -10.9066   10.8798 C   0  0  0  0  0  0  0  0  0  0  0  0
    2.6410  -10.9095   10.1224 C   0  0  0  0  0  0  0  0  0  0  0  0
    2.7048  -11.3694    8.6011 C   0  0  0  0  0  0  0  0  0  0  0  0
    3.4827  -12.3775    8.1882 C   0  0  0  0  0  0  0  0  0  0  0  0
    4.0476  -12.9590    9.1892 N   0  0  0  0  0  0  0  0  0  0  0  0
    4.0210  -12.2296   10.4162 C   0  0  0  0  0  0  0  0  0  0  0  0
    4.4379   -8.0436   12.2035 C   0  0  0  0  0  0  0  0  0  0  0  0
    5.5335   -4.8634   16.3473 C   0  0  0  0  0  0  0  0  0  0  0  0
    5.3201   -3.4756   17.0173 C   0  0  0  0  0  0  0  0  0  0  0  0
    6.1365   -3.4754   18.2968 C   0  0  0  0  0  0  0  0  0  0  0  0
    6.1278   -4.9312   18.6795 C   0  0  0  0  0  0  0  0  0  0  0  0
    6.3019   -5.6195   17.3894 N   0  0  0  0  0  0  0  0  0  0  0  0
    7.7884   -5.7246   13.7260 H   0  0  0  0  0  0  0  0  0  0  0  0
    7.4210   -6.6496   15.1667 H   0  0  0  0  0  0  0  0  0  0  0  0
    8.2062   -5.0670   15.3031 H   0  0  0  0  0  0  0  0  0  0  0  0
    5.3893   -2.9391   14.1947 H   0  0  0  0  0  0  0  0  0  0  0  0
    6.6896   -3.5804   13.2343 H   0  0  0  0  0  0  0  0  0  0  0  0
    7.0466   -2.9688   14.8448 H   0  0  0  0  0  0  0  0  0  0  0  0
    3.9138   -8.0368   14.5875 H   0  0  0  0  0  0  0  0  0  0  0  0
    5.3352   -7.5877   15.2025 H   0  0  0  0  0  0  0  0  0  0  0  0
    6.7470   -9.2227   14.2010 H   0  0  0  0  0  0  0  0  0  0  0  0
    5.4800   -9.8297   15.2595 H   0  0  0  0  0  0  0  0  0  0  0  0
    5.4533  -11.2434   13.4496 H   0  0  0  0  0  0  0  0  0  0  0  0
    1.7587  -10.3802   10.5168 H   0  0  0  0  0  0  0  0  0  0  0  0
    1.9931  -10.9797    7.8709 H   0  0  0  0  0  0  0  0  0  0  0  0
    3.5284  -12.7925    7.1968 H   0  0  0  0  0  0  0  0  0  0  0  0
    4.6441  -12.8467   11.0327 H   0  0  0  0  0  0  0  0  0  0  0  0
    3.4842   -7.5556   12.0241 H   0  0  0  0  0  0  0  0  0  0  0  0
    4.9061   -7.7206   11.2649 H   0  0  0  0  0  0  0  0  0  0  0  0
    4.5637   -5.3552   16.3011 H   0  0  0  0  0  0  0  0  0  0  0  0
    4.2686   -3.3861   17.2979 H   0  0  0  0  0  0  0  0  0  0  0  0
    5.5821   -2.6039   16.4200 H   0  0  0  0  0  0  0  0  0  0  0  0
    5.7303   -2.8151   19.0664 H   0  0  0  0  0  0  0  0  0  0  0  0
    7.1604   -3.1450   18.0812 H   0  0  0  0  0  0  0  0  0  0  0  0
    5.1938   -5.2467   19.1448 H   0  0  0  0  0  0  0  0  0  0  0  0
    6.9413   -5.1786   19.3684 H   0  0  0  0  0  0  0  0  0  0  0  0
    7.2949   -5.5605   17.1666 H   0  0  0  0  0  0  0  0  0  0  0  0
  1  2  1  0
  2  3  1  0
  2  4  1  0
  4  5  2  0
  4  6  1  0
  6  7  1  0
  7  8  1  0
  8  9  1  0
  9 10  2  0
 10 11  1  0
 11 12  2  0
 12 13  1  0
 13 14  2  0
 14 15  1  0
 15 16  2  0
 10 17  1  0
  2 18  1  0
 18 19  1  0
 19 20  1  0
 20 21  1  0
 21 22  1  0
 17  6  1  0
 22 18  1  0
 16 11  1  0
  1 23  1  0
  1 24  1  0
  1 25  1  0
  3 26  1  0
  3 27  1  0
  3 28  1  0
  7 29  1  0
  7 30  1  0
  8 31  1  0
  8 32  1  0
  9 33  1  0
 12 34  1  0
 13 35  1  0
 14 36  1  0
 16 37  1  0
 17 38  1  0
 17 39  1  0
 18 40  1  0
 19 41  1  0
 19 42  1  0
 20 43  1  0
 20 44  1  0
 21 45  1  0
 21 46  1  0
 22 47  1  0
M  END
>  <Energy>  (1270) 
313.50785286190097

>  <compound_id>  (1270) 
23033

>  <target_id>  (1270) 
1

>  <reference_id>  (1270) 
85

>  <inspiration_ids>  (1270) 
[85, 70]

>  <energy_score>  (1270) 
206.92026352401558

>  <distance_score>  (1270) 
10.998309657223935

>  <path>  (1270) 
/opt/xchem-fragalysis-2/maxwin/BulkDock/SCRATCH/511013/C23033-P85/C23033-P85.minimised.mol

>  <scratch_subdir>  (1270) 
/opt/xchem-fragalysis-2/maxwin/BulkDock/SCRATCH/511013/C23033-P85

>  <fragmenstein_runtime>  (1270) 
22.22742795944214

>  <fragmenstein_outcome>  (1270) 
too moved

>  <fragmenstein_mode>  (1270) 
expansion

>  <fragmenstein_error>  (1270) 


$$$$
C23033-P70
     RDKit          3D

 47 49  0  0  0  0  0  0  0  0999 V2000
    2.7472    2.0814   14.9934 C   0  0  0  0  0  0  0  0  0  0  0  0
    2.0744    0.8595   15.6281 C   0  0  0  0  0  0  0  0  0  0  0  0
    3.1580   -0.0194   16.2786 C   0  0  0  0  0  0  0  0  0  0  0  0
    1.2597    0.0968   14.4579 C   0  0  0  0  0  0  0  0  0  0  0  0
    0.0985    0.4156   14.3960 O   0  0  0  0  0  0  0  0  0  0  0  0
    2.0363   -0.8058   13.6154 N   0  0  0  0  0  0  0  0  0  0  0  0
    1.9877   -2.1948   14.1684 C   0  0  0  0  0  0  0  0  0  0  0  0
    3.2232   -3.1058   13.8600 C   0  0  0  0  0  0  0  0  0  0  0  0
    3.0775   -3.6187   12.4783 C   0  0  0  0  0  0  0  0  0  0  0  0
    2.2059   -2.9122   11.7562 C   0  0  0  0  0  0  0  0  0  0  0  0
    1.5607   -3.5164   10.5714 C   0  0  0  0  0  0  0  0  0  0  0  0
    0.4480   -4.3577   10.7268 C   0  0  0  0  0  0  0  0  0  0  0  0
   -0.3082   -4.7314    9.6173 C   0  0  0  0  0  0  0  0  0  0  0  0
    0.0815   -4.2598    8.3769 C   0  0  0  0  0  0  0  0  0  0  0  0
    1.2018   -3.5287    8.1727 N   0  0  0  0  0  0  0  0  0  0  0  0
    1.9134   -3.1745    9.2732 C   0  0  0  0  0  0  0  0  0  0  0  0
    1.6404   -1.5677   12.2784 C   0  0  0  0  0  0  0  0  0  0  0  0
    1.1084    1.3585   16.8195 C   0  0  0  0  0  0  0  0  0  0  0  0
    0.0659    2.4406   16.5034 C   0  0  0  0  0  0  0  0  0  0  0  0
    0.5574    3.7144   17.1637 C   0  0  0  0  0  0  0  0  0  0  0  0
    1.3384    3.2313   18.3534 C   0  0  0  0  0  0  0  0  0  0  0  0
    1.8831    1.9408   17.9487 N   0  0  0  0  0  0  0  0  0  0  0  0
    3.4714    1.7682   14.2318 H   0  0  0  0  0  0  0  0  0  0  0  0
    3.2897    2.6885   15.7254 H   0  0  0  0  0  0  0  0  0  0  0  0
    2.0232    2.7252   14.4833 H   0  0  0  0  0  0  0  0  0  0  0  0
    2.7179   -0.8166   16.8865 H   0  0  0  0  0  0  0  0  0  0  0  0
    3.8063   -0.4830   15.5283 H   0  0  0  0  0  0  0  0  0  0  0  0
    3.8256    0.5635   16.9219 H   0  0  0  0  0  0  0  0  0  0  0  0
    2.0218   -2.0674   15.2558 H   0  0  0  0  0  0  0  0  0  0  0  0
    1.0008   -2.6688   14.0289 H   0  0  0  0  0  0  0  0  0  0  0  0
    3.2303   -3.9530   14.5512 H   0  0  0  0  0  0  0  0  0  0  0  0
    4.1635   -2.5579   13.9792 H   0  0  0  0  0  0  0  0  0  0  0  0
    3.4911   -4.5741   12.1793 H   0  0  0  0  0  0  0  0  0  0  0  0
    0.1116   -4.6549   11.7178 H   0  0  0  0  0  0  0  0  0  0  0  0
   -1.2060   -5.3277    9.7272 H   0  0  0  0  0  0  0  0  0  0  0  0
   -0.4902   -4.4918    7.4830 H   0  0  0  0  0  0  0  0  0  0  0  0
    2.7710   -2.5381    9.0722 H   0  0  0  0  0  0  0  0  0  0  0  0
    0.5374   -1.5950   12.2628 H   0  0  0  0  0  0  0  0  0  0  0  0
    1.8964   -0.8142   11.5191 H   0  0  0  0  0  0  0  0  0  0  0  0
    0.5715    0.4715   17.1828 H   0  0  0  0  0  0  0  0  0  0  0  0
   -0.8950    2.1566   16.9488 H   0  0  0  0  0  0  0  0  0  0  0  0
   -0.1088    2.6037   15.4373 H   0  0  0  0  0  0  0  0  0  0  0  0
    1.2140    4.2593   16.4749 H   0  0  0  0  0  0  0  0  0  0  0  0
   -0.2653    4.3802   17.4408 H   0  0  0  0  0  0  0  0  0  0  0  0
    2.1434    3.9250   18.6152 H   0  0  0  0  0  0  0  0  0  0  0  0
    0.6933    3.1482   19.2281 H   0  0  0  0  0  0  0  0  0  0  0  0
    1.8062    1.2954   18.7553 H   0  0  0  0  0  0  0  0  0  0  0  0
  1  2  1  0
  2  3  1  0
  2  4  1  0
  4  5  2  0
  4  6  1  0
  6  7  1  0
  7  8  1  0
  8  9  1  0
  9 10  2  0
 10 11  1  0
 11 12  2  0
 12 13  1  0
 13 14  2  0
 14 15  1  0
 15 16  2  0
 10 17  1  0
  2 18  1  0
 18 19  1  0
 19 20  1  0
 20 21  1  0
 21 22  1  0
 17  6  1  0
 22 18  1  0
 16 11  1  0
  1 23  1  0
  1 24  1  0
  1 25  1  0
  3 26  1  0
  3 27  1  0
  3 28  1  0
  7 29  1  0
  7 30  1  0
  8 31  1  0
  8 32  1  0
  9 33  1  0
 12 34  1  0
 13 35  1  0
 14 36  1  0
 16 37  1  0
 17 38  1  0
 17 39  1  0
 18 40  1  0
 19 41  1  0
 19 42  1  0
 20 43  1  0
 20 44  1  0
 21 45  1  0
 21 46  1  0
 22 47  1  0
M  END
>  <Energy>  (1271) 
150.40386470933097

>  <compound_id>  (1271) 
23033

>  <target_id>  (1271) 
1

>  <reference_id>  (1271) 
70

>  <inspiration_ids>  (1271) 
[85, 70]

>  <energy_score>  (1271) 
43.81627537144243

>  <distance_score>  (1271) 
12.319184513496191

>  <path>  (1271) 
/opt/xchem-fragalysis-2/maxwin/BulkDock/SCRATCH/511013/C23033-P70/C23033-P70.minimised.mol

>  <scratch_subdir>  (1271) 
/opt/xchem-fragalysis-2/maxwin/BulkDock/SCRATCH/511013/C23033-P70

>  <fragmenstein_runtime>  (1271) 
14.9648277759552

>  <fragmenstein_outcome>  (1271) 
too moved

>  <fragmenstein_mode>  (1271) 
expansion

>  <fragmenstein_error>  (1271) 


$$$$
C23035-P85
     RDKit          3D

 47 49  0  0  0  0  0  0  0  0999 V2000
   -2.1296   -7.9184   22.9446 C   0  0  0  0  0  0  0  0  0  0  0  0
   -2.8625   -7.7882   21.0522 C   0  0  0  0  0  0  0  0  0  0  0  0
   -3.8954   -8.7420   22.3422 C   0  0  0  0  0  0  0  0  0  0  0  0
   -1.8773   -8.9741   19.4212 C   0  0  0  0  0  0  0  0  0  0  0  0
   -2.3592  -10.0700   19.4693 O   0  0  0  0  0  0  0  0  0  0  0  0
   -0.4376   -9.0934   18.0535 N   0  0  0  0  0  0  0  0  0  0  0  0
    1.5324   -9.5590   18.1285 C   0  0  0  0  0  0  0  0  0  0  0  0
    2.5059  -11.0876   16.9333 C   0  0  0  0  0  0  0  0  0  0  0  0
    1.1906  -11.9573   15.3352 C   0  0  0  0  0  0  0  0  0  0  0  0
   -0.2909  -10.5774   15.0980 C   0  0  0  0  0  0  0  0  0  0  0  0
   -1.2595  -10.6964   13.4437 C   0  0  0  0  0  0  0  0  0  0  0  0
   -1.8836  -11.9047   13.0275 C   0  0  0  0  0  0  0  0  0  0  0  0
   -2.4007  -12.0332   11.7488 C   0  0  0  0  0  0  0  0  0  0  0  0
   -2.1563  -11.0254   10.8500 C   0  0  0  0  0  0  0  0  0  0  0  0
   -1.3224   -9.9985   11.2385 C   0  0  0  0  0  0  0  0  0  0  0  0
   -0.9776   -9.7476   12.5230 N   0  0  0  0  0  0  0  0  0  0  0  0
   -0.4672   -8.8632   16.3561 C   0  0  0  0  0  0  0  0  0  0  0  0
   -4.3135   -6.3795   21.7863 C   0  0  0  0  0  0  0  0  0  0  0  0
   -4.6040   -6.1752   23.3998 C   0  0  0  0  0  0  0  0  0  0  0  0
   -5.3711   -4.8826   23.5934 C   0  0  0  0  0  0  0  0  0  0  0  0
   -6.2916   -4.8739   22.4241 C   0  0  0  0  0  0  0  0  0  0  0  0
   -5.4677   -5.2970   21.2981 N   0  0  0  0  0  0  0  0  0  0  0  0
   -2.3725   -8.7261   23.6782 H   0  0  0  0  0  0  0  0  0  0  0  0
   -1.0030   -7.9439   23.0153 H   0  0  0  0  0  0  0  0  0  0  0  0
   -2.4750   -7.1704   23.6682 H   0  0  0  0  0  0  0  0  0  0  0  0
   -3.7928   -9.8353   22.3557 H   0  0  0  0  0  0  0  0  0  0  0  0
   -4.9460   -8.4573   22.3546 H   0  0  0  0  0  0  0  0  0  0  0  0
   -3.9577   -8.4846   23.4140 H   0  0  0  0  0  0  0  0  0  0  0  0
    2.0648   -9.6795   19.0301 H   0  0  0  0  0  0  0  0  0  0  0  0
    1.9491   -8.6167   17.7589 H   0  0  0  0  0  0  0  0  0  0  0  0
    3.4305  -10.5649   16.5197 H   0  0  0  0  0  0  0  0  0  0  0  0
    3.0759  -11.8558   17.5272 H   0  0  0  0  0  0  0  0  0  0  0  0
    1.5210  -12.5249   14.4665 H   0  0  0  0  0  0  0  0  0  0  0  0
   -2.0096  -12.7593   13.6855 H   0  0  0  0  0  0  0  0  0  0  0  0
   -2.9501  -12.9243   11.4616 H   0  0  0  0  0  0  0  0  0  0  0  0
   -2.5659  -11.0706    9.8515 H   0  0  0  0  0  0  0  0  0  0  0  0
   -0.9702   -9.2635   10.5174 H   0  0  0  0  0  0  0  0  0  0  0  0
   -1.4519   -9.3114   16.7889 H   0  0  0  0  0  0  0  0  0  0  0  0
    0.4108   -8.2535   16.3516 H   0  0  0  0  0  0  0  0  0  0  0  0
   -3.7985   -5.4420   21.4925 H   0  0  0  0  0  0  0  0  0  0  0  0
   -3.7415   -6.0465   24.0460 H   0  0  0  0  0  0  0  0  0  0  0  0
   -5.2468   -6.9727   23.7853 H   0  0  0  0  0  0  0  0  0  0  0  0
   -4.6679   -4.0524   23.5727 H   0  0  0  0  0  0  0  0  0  0  0  0
   -5.9034   -4.8573   24.5488 H   0  0  0  0  0  0  0  0  0  0  0  0
   -7.1099   -5.5888   22.5678 H   0  0  0  0  0  0  0  0  0  0  0  0
   -6.7479   -3.9022   22.2400 H   0  0  0  0  0  0  0  0  0  0  0  0
   -5.0722   -4.4789   20.8219 H   0  0  0  0  0  0  0  0  0  0  0  0
  1  2  1  0
  2  3  1  0
  2  4  1  0
  4  5  2  0
  4  6  1  0
  6  7  1  0
  7  8  1  0
  8  9  1  0
  9 10  2  0
 10 11  1  0
 11 12  2  0
 12 13  1  0
 13 14  2  0
 14 15  1  0
 15 16  2  0
 10 17  1  0
  2 18  1  0
 18 19  1  0
 19 20  1  0
 20 21  1  0
 21 22  1  0
 17  6  1  0
 22 18  1  0
 16 11  1  0
  1 23  1  0
  1 24  1  0
  1 25  1  0
  3 26  1  0
  3 27  1  0
  3 28  1  0
  7 29  1  0
  7 30  1  0
  8 31  1  0
  8 32  1  0
  9 33  1  0
 12 34  1  0
 13 35  1  0
 14 36  1  0
 15 37  1  0
 17 38  1  0
 17 39  1  0
 18 40  1  0
 19 41  1  0
 19 42  1  0
 20 43  1  0
 20 44  1  0
 21 45  1  0
 21 46  1  0
 22 47  1  0
M  END
>  <Energy>  (1272) 
1644.1879977432966

>  <compound_id>  (1272) 
23035

>  <target_id>  (1272) 
1

>  <reference_id>  (1272) 
85

>  <inspiration_ids>  (1272) 
[85, 70]

>  <energy_score>  (1272) 
1558.1267500577246

>  <distance_score>  (1272) 
10.036122487377842

>  <path>  (1272) 
/opt/xchem-fragalysis-2/maxwin/BulkDock/SCRATCH/511013/C23035-P85/C23035-P85.minimised.mol

>  <scratch_subdir>  (1272) 
/opt/xchem-fragalysis-2/maxwin/BulkDock/SCRATCH/511013/C23035-P85

>  <fragmenstein_runtime>  (1272) 
26.326749324798584

>  <fragmenstein_outcome>  (1272) 
too moved

>  <fragmenstein_mode>  (1272) 
expansion

>  <fragmenstein_error>  (1272) 


$$$$
C23035-P70
     RDKit          3D

 47 49  0  0  0  0  0  0  0  0999 V2000
   -2.6151   -8.8905   22.2623 C   0  0  0  0  0  0  0  0  0  0  0  0
   -1.4100   -9.3574   23.0961 C   0  0  0  0  0  0  0  0  0  0  0  0
   -0.0920   -8.7568   22.5639 C   0  0  0  0  0  0  0  0  0  0  0  0
   -1.4121  -10.9472   22.9783 C   0  0  0  0  0  0  0  0  0  0  0  0
   -1.8684  -11.6433   23.8915 O   0  0  0  0  0  0  0  0  0  0  0  0
   -0.9150  -11.5799   21.8309 N   0  0  0  0  0  0  0  0  0  0  0  0
    0.4910  -11.9384   21.8286 C   0  0  0  0  0  0  0  0  0  0  0  0
    0.7564  -13.3612   21.3195 C   0  0  0  0  0  0  0  0  0  0  0  0
   -0.0294  -13.7225   20.0972 C   0  0  0  0  0  0  0  0  0  0  0  0
   -1.1634  -13.0747   19.7514 C   0  0  0  0  0  0  0  0  0  0  0  0
   -1.8969  -13.4606   18.4930 C   0  0  0  0  0  0  0  0  0  0  0  0
   -1.7205  -14.6904   17.8389 C   0  0  0  0  0  0  0  0  0  0  0  0
   -2.4525  -14.9885   16.6846 C   0  0  0  0  0  0  0  0  0  0  0  0
   -3.3312  -14.0537   16.1754 C   0  0  0  0  0  0  0  0  0  0  0  0
   -3.4816  -12.8823   16.8899 C   0  0  0  0  0  0  0  0  0  0  0  0
   -2.7840  -12.5625   18.0150 N   0  0  0  0  0  0  0  0  0  0  0  0
   -1.7321  -11.9084   20.6165 C   0  0  0  0  0  0  0  0  0  0  0  0
   -1.6472   -8.8797   24.6010 C   0  0  0  0  0  0  0  0  0  0  0  0
   -2.0136   -7.4010   24.8552 C   0  0  0  0  0  0  0  0  0  0  0  0
   -1.6983   -7.1596   26.3266 C   0  0  0  0  0  0  0  0  0  0  0  0
   -0.7869   -8.3044   26.7181 C   0  0  0  0  0  0  0  0  0  0  0  0
   -0.4533   -8.9827   25.4642 N   0  0  0  0  0  0  0  0  0  0  0  0
   -3.0261   -7.9390   22.5806 H   0  0  0  0  0  0  0  0  0  0  0  0
   -3.4380   -9.6091   22.3625 H   0  0  0  0  0  0  0  0  0  0  0  0
   -2.3689   -8.8325   21.1974 H   0  0  0  0  0  0  0  0  0  0  0  0
    0.7623   -9.3619   22.8877 H   0  0  0  0  0  0  0  0  0  0  0  0
   -0.0694   -8.7372   21.4693 H   0  0  0  0  0  0  0  0  0  0  0  0
    0.1118   -7.7534   22.9338 H   0  0  0  0  0  0  0  0  0  0  0  0
    0.9009  -11.8340   22.8408 H   0  0  0  0  0  0  0  0  0  0  0  0
    1.0116  -11.2035   21.2089 H   0  0  0  0  0  0  0  0  0  0  0  0
    0.5110  -14.0850   22.1062 H   0  0  0  0  0  0  0  0  0  0  0  0
    1.8275  -13.4654   21.1122 H   0  0  0  0  0  0  0  0  0  0  0  0
    0.3858  -14.5352   19.5129 H   0  0  0  0  0  0  0  0  0  0  0  0
   -1.0596  -15.4509   18.2378 H   0  0  0  0  0  0  0  0  0  0  0  0
   -2.3660  -15.9592   16.2119 H   0  0  0  0  0  0  0  0  0  0  0  0
   -3.9029  -14.2323   15.2722 H   0  0  0  0  0  0  0  0  0  0  0  0
   -4.1859  -12.1228   16.5578 H   0  0  0  0  0  0  0  0  0  0  0  0
   -1.7962  -10.9903   20.0257 H   0  0  0  0  0  0  0  0  0  0  0  0
   -2.7428  -12.1525   20.9629 H   0  0  0  0  0  0  0  0  0  0  0  0
   -2.4447   -9.4990   25.0358 H   0  0  0  0  0  0  0  0  0  0  0  0
   -1.3958   -6.7227   24.2680 H   0  0  0  0  0  0  0  0  0  0  0  0
   -3.0649   -7.1840   24.6440 H   0  0  0  0  0  0  0  0  0  0  0  0
   -2.6122   -7.1706   26.9298 H   0  0  0  0  0  0  0  0  0  0  0  0
   -1.1990   -6.2000   26.4723 H   0  0  0  0  0  0  0  0  0  0  0  0
    0.1168   -7.9548   27.2259 H   0  0  0  0  0  0  0  0  0  0  0  0
   -1.3100   -8.9925   27.3924 H   0  0  0  0  0  0  0  0  0  0  0  0
   -0.2524   -9.9691   25.6423 H   0  0  0  0  0  0  0  0  0  0  0  0
  1  2  1  0
  2  3  1  0
  2  4  1  0
  4  5  2  0
  4  6  1  0
  6  7  1  0
  7  8  1  0
  8  9  1  0
  9 10  2  0
 10 11  1  0
 11 12  2  0
 12 13  1  0
 13 14  2  0
 14 15  1  0
 15 16  2  0
 10 17  1  0
  2 18  1  0
 18 19  1  0
 19 20  1  0
 20 21  1  0
 21 22  1  0
 17  6  1  0
 22 18  1  0
 16 11  1  0
  1 23  1  0
  1 24  1  0
  1 25  1  0
  3 26  1  0
  3 27  1  0
  3 28  1  0
  7 29  1  0
  7 30  1  0
  8 31  1  0
  8 32  1  0
  9 33  1  0
 12 34  1  0
 13 35  1  0
 14 36  1  0
 15 37  1  0
 17 38  1  0
 17 39  1  0
 18 40  1  0
 19 41  1  0
 19 42  1  0
 20 43  1  0
 20 44  1  0
 21 45  1  0
 21 46  1  0
 22 47  1  0
M  END
>  <Energy>  (1273) 
67.15354463506182

>  <compound_id>  (1273) 
23035

>  <target_id>  (1273) 
1

>  <reference_id>  (1273) 
70

>  <inspiration_ids>  (1273) 
[85, 70]

>  <energy_score>  (1273) 
-18.907703050540533

>  <distance_score>  (1273) 
12.154861830086126

>  <path>  (1273) 
/opt/xchem-fragalysis-2/maxwin/BulkDock/SCRATCH/511013/C23035-P70/C23035-P70.minimised.mol

>  <scratch_subdir>  (1273) 
/opt/xchem-fragalysis-2/maxwin/BulkDock/SCRATCH/511013/C23035-P70

>  <fragmenstein_runtime>  (1273) 
21.669913291931152

>  <fragmenstein_outcome>  (1273) 
too moved

>  <fragmenstein_mode>  (1273) 
expansion

>  <fragmenstein_error>  (1273) 


$$$$
C23036-P85
     RDKit          3D

 45 47  0  0  0  0  0  0  0  0999 V2000
    0.6359   -8.2649   19.7819 C   0  0  0  0  0  0  0  0  0  0  0  0
    1.8689   -8.0426   19.0344 C   0  0  0  0  0  0  0  0  0  0  0  0
    2.6345   -8.7554   17.3869 C   0  0  0  0  0  0  0  0  0  0  0  0
    2.6489   -8.7906   15.3250 N   0  0  0  0  0  0  0  0  0  0  0  0
    0.7412   -8.1807   15.5932 C   0  0  0  0  0  0  0  0  0  0  0  0
   -0.4621   -7.9544   13.8826 C   0  0  0  0  0  0  0  0  0  0  0  0
   -0.1694   -9.3133   12.5063 C   0  0  0  0  0  0  0  0  0  0  0  0
    1.3243  -10.6836   12.4978 C   0  0  0  0  0  0  0  0  0  0  0  0
    2.9356  -10.4233   13.9283 C   0  0  0  0  0  0  0  0  0  0  0  0
    3.1609  -10.4506   11.8172 C   0  0  0  0  0  0  0  0  0  0  0  0
    2.6246  -11.5901   10.7722 C   0  0  0  0  0  0  0  0  0  0  0  0
    3.4786  -12.4245    9.7611 C   0  0  0  0  0  0  0  0  0  0  0  0
    3.9465  -11.2637    9.1298 C   0  0  0  0  0  0  0  0  0  0  0  0
    4.0681  -10.4895   10.5564 N   0  0  0  0  0  0  0  0  0  0  0  0
    2.1516   -6.4108   20.1295 C   0  0  0  0  0  0  0  0  0  0  0  0
    1.3270   -5.3056   21.3259 C   0  0  0  0  0  0  0  0  0  0  0  0
    0.5278   -6.1979   22.2261 N   0  0  0  0  0  0  0  0  0  0  0  0
    0.4429   -7.7901   21.4332 C   0  0  0  0  0  0  0  0  0  0  0  0
   -0.2360   -8.7177   19.3241 H   0  0  0  0  0  0  0  0  0  0  0  0
    3.3112   -9.5800   17.6635 H   0  0  0  0  0  0  0  0  0  0  0  0
    1.7414   -9.3626   17.6722 H   0  0  0  0  0  0  0  0  0  0  0  0
    0.1317   -8.7254   16.3229 H   0  0  0  0  0  0  0  0  0  0  0  0
    1.1331   -7.5973   16.3897 H   0  0  0  0  0  0  0  0  0  0  0  0
   -1.4538   -8.4109   13.9893 H   0  0  0  0  0  0  0  0  0  0  0  0
   -0.7732   -6.9435   13.5560 H   0  0  0  0  0  0  0  0  0  0  0  0
   -1.0918   -9.9127   12.4584 H   0  0  0  0  0  0  0  0  0  0  0  0
   -0.0793   -8.7439   11.5663 H   0  0  0  0  0  0  0  0  0  0  0  0
    1.2814  -10.2782   11.4743 H   0  0  0  0  0  0  0  0  0  0  0  0
    0.7547  -11.6575   12.5374 H   0  0  0  0  0  0  0  0  0  0  0  0
    4.0474  -10.3011   13.9092 H   0  0  0  0  0  0  0  0  0  0  0  0
    3.1479   -9.4031   11.6858 H   0  0  0  0  0  0  0  0  0  0  0  0
    2.1068  -10.8514   10.1422 H   0  0  0  0  0  0  0  0  0  0  0  0
    1.8265  -12.2551   11.0970 H   0  0  0  0  0  0  0  0  0  0  0  0
    2.9242  -13.0568    9.0625 H   0  0  0  0  0  0  0  0  0  0  0  0
    4.3339  -12.9818   10.1316 H   0  0  0  0  0  0  0  0  0  0  0  0
    3.1845  -10.9929    8.3791 H   0  0  0  0  0  0  0  0  0  0  0  0
    4.8923  -11.3443    8.5823 H   0  0  0  0  0  0  0  0  0  0  0  0
    4.4597   -9.5789   10.3711 H   0  0  0  0  0  0  0  0  0  0  0  0
    2.9184   -5.6812   19.9529 H   0  0  0  0  0  0  0  0  0  0  0  0
    1.1916   -6.1981   19.9731 H   0  0  0  0  0  0  0  0  0  0  0  0
    0.6771   -4.5900   20.8073 H   0  0  0  0  0  0  0  0  0  0  0  0
    1.8915   -4.5392   21.8265 H   0  0  0  0  0  0  0  0  0  0  0  0
    0.6740   -6.2152   23.2308 H   0  0  0  0  0  0  0  0  0  0  0  0
   -0.5738   -7.9007   21.6654 H   0  0  0  0  0  0  0  0  0  0  0  0
    0.9697   -8.5519   21.9793 H   0  0  0  0  0  0  0  0  0  0  0  0
  1  2  2  0
  2  3  1  0
  3  4  1  0
  4  5  1  0
  5  6  1  0
  6  7  1  0
  7  8  1  0
  8  9  1  0
  9 10  1  0
 10 11  1  0
 11 12  1  0
 12 13  1  0
 13 14  1  0
  2 15  1  0
 15 16  1  0
 16 17  1  0
 17 18  1  0
 18  1  1  0
  9  4  1  0
 14 10  1  0
  1 19  1  0
  3 20  1  0
  3 21  1  0
  5 22  1  0
  5 23  1  0
  6 24  1  0
  6 25  1  0
  7 26  1  0
  7 27  1  0
  8 28  1  0
  8 29  1  0
  9 30  1  0
 10 31  1  0
 11 32  1  0
 11 33  1  0
 12 34  1  0
 12 35  1  0
 13 36  1  0
 13 37  1  0
 14 38  1  0
 15 39  1  0
 15 40  1  0
 16 41  1  0
 16 42  1  0
 17 43  1  0
 18 44  1  0
 18 45  1  0
M  END
>  <Energy>  (1274) 
1451.0787029654748

>  <compound_id>  (1274) 
23036

>  <target_id>  (1274) 
1

>  <reference_id>  (1274) 
85

>  <inspiration_ids>  (1274) 
[85, 70]

>  <energy_score>  (1274) 
1361.4328123921907

>  <distance_score>  (1274) 
9.691432818684753

>  <path>  (1274) 
/opt/xchem-fragalysis-2/maxwin/BulkDock/SCRATCH/511013/C23036-P85/C23036-P85.minimised.mol

>  <scratch_subdir>  (1274) 
/opt/xchem-fragalysis-2/maxwin/BulkDock/SCRATCH/511013/C23036-P85

>  <fragmenstein_runtime>  (1274) 
10.101552724838257

>  <fragmenstein_outcome>  (1274) 
too moved

>  <fragmenstein_mode>  (1274) 
expansion

>  <fragmenstein_error>  (1274) 


$$$$
C23036-P70
     RDKit          3D

 45 47  0  0  0  0  0  0  0  0999 V2000
   -1.3469   -8.7006   17.9555 C   0  0  0  0  0  0  0  0  0  0  0  0
   -0.0203   -8.2933   17.8543 C   0  0  0  0  0  0  0  0  0  0  0  0
    1.0924   -7.9436   16.3745 C   0  0  0  0  0  0  0  0  0  0  0  0
    2.7341   -8.1352   15.3352 N   0  0  0  0  0  0  0  0  0  0  0  0
    3.1322   -9.6253   16.5040 C   0  0  0  0  0  0  0  0  0  0  0  0
    3.3546  -11.1399   15.8697 C   0  0  0  0  0  0  0  0  0  0  0  0
    4.4760  -11.2590   14.3059 C   0  0  0  0  0  0  0  0  0  0  0  0
    4.2776  -10.1234   13.4856 C   0  0  0  0  0  0  0  0  0  0  0  0
    3.0080   -9.2269   13.6309 C   0  0  0  0  0  0  0  0  0  0  0  0
    2.1001   -9.7166   11.9148 C   0  0  0  0  0  0  0  0  0  0  0  0
    0.8117  -10.7126   11.4999 C   0  0  0  0  0  0  0  0  0  0  0  0
   -0.4400   -9.9076   11.1404 C   0  0  0  0  0  0  0  0  0  0  0  0
    0.0476   -8.5149   11.0342 C   0  0  0  0  0  0  0  0  0  0  0  0
    1.5019   -8.6632   11.0707 N   0  0  0  0  0  0  0  0  0  0  0  0
    0.5689   -8.1929   19.3466 C   0  0  0  0  0  0  0  0  0  0  0  0
   -0.2037   -8.7266   20.6312 C   0  0  0  0  0  0  0  0  0  0  0  0
   -1.6614   -8.7835   20.5253 N   0  0  0  0  0  0  0  0  0  0  0  0
   -2.0977   -9.2060   19.1970 C   0  0  0  0  0  0  0  0  0  0  0  0
   -1.9395   -8.9055   17.0833 H   0  0  0  0  0  0  0  0  0  0  0  0
    1.8448   -7.6858   17.0731 H   0  0  0  0  0  0  0  0  0  0  0  0
    0.4330   -7.6791   15.5839 H   0  0  0  0  0  0  0  0  0  0  0  0
    2.3525   -9.5878   17.2567 H   0  0  0  0  0  0  0  0  0  0  0  0
    3.9118   -9.3627   17.1960 H   0  0  0  0  0  0  0  0  0  0  0  0
    3.8062  -11.7792   16.6657 H   0  0  0  0  0  0  0  0  0  0  0  0
    2.5191  -11.7714   15.6836 H   0  0  0  0  0  0  0  0  0  0  0  0
    4.5849  -12.1501   13.7146 H   0  0  0  0  0  0  0  0  0  0  0  0
    5.5642  -11.4210   14.4501 H   0  0  0  0  0  0  0  0  0  0  0  0
    5.1359   -9.5253   13.6385 H   0  0  0  0  0  0  0  0  0  0  0  0
    4.5950  -10.4521   12.5306 H   0  0  0  0  0  0  0  0  0  0  0  0
    3.7192   -8.5040   13.1961 H   0  0  0  0  0  0  0  0  0  0  0  0
    2.8971  -10.0770   11.2827 H   0  0  0  0  0  0  0  0  0  0  0  0
    1.1614  -11.2684   10.6463 H   0  0  0  0  0  0  0  0  0  0  0  0
    0.4524  -11.5145   12.1664 H   0  0  0  0  0  0  0  0  0  0  0  0
   -1.2295   -9.9847   11.8969 H   0  0  0  0  0  0  0  0  0  0  0  0
   -0.8980  -10.2237   10.2203 H   0  0  0  0  0  0  0  0  0  0  0  0
   -0.3902   -7.8711   11.7976 H   0  0  0  0  0  0  0  0  0  0  0  0
   -0.2525   -8.0632   10.0812 H   0  0  0  0  0  0  0  0  0  0  0  0
    1.6255   -9.1260   10.1665 H   0  0  0  0  0  0  0  0  0  0  0  0
    1.4666   -8.7825   19.1890 H   0  0  0  0  0  0  0  0  0  0  0  0
    0.9514   -7.2333   19.6394 H   0  0  0  0  0  0  0  0  0  0  0  0
    0.0694   -8.0991   21.4863 H   0  0  0  0  0  0  0  0  0  0  0  0
    0.1524   -9.7172   20.9217 H   0  0  0  0  0  0  0  0  0  0  0  0
   -2.0398   -9.4157   21.2148 H   0  0  0  0  0  0  0  0  0  0  0  0
   -2.1074  -10.3041   19.1575 H   0  0  0  0  0  0  0  0  0  0  0  0
   -3.1505   -8.9425   19.0938 H   0  0  0  0  0  0  0  0  0  0  0  0
  1  2  2  0
  2  3  1  0
  3  4  1  0
  4  5  1  0
  5  6  1  0
  6  7  1  0
  7  8  1  0
  8  9  1  0
  9 10  1  0
 10 11  1  0
 11 12  1  0
 12 13  1  0
 13 14  1  0
  2 15  1  0
 15 16  1  0
 16 17  1  0
 17 18  1  0
 18  1  1  0
  9  4  1  0
 14 10  1  0
  1 19  1  0
  3 20  1  0
  3 21  1  0
  5 22  1  0
  5 23  1  0
  6 24  1  0
  6 25  1  0
  7 26  1  0
  7 27  1  0
  8 28  1  0
  8 29  1  0
  9 30  1  0
 10 31  1  0
 11 32  1  0
 11 33  1  0
 12 34  1  0
 12 35  1  0
 13 36  1  0
 13 37  1  0
 14 38  1  0
 15 39  1  0
 15 40  1  0
 16 41  1  0
 16 42  1  0
 17 43  1  0
 18 44  1  0
 18 45  1  0
M  END
>  <Energy>  (1275) 
581.52195760420079

>  <compound_id>  (1275) 
23036

>  <target_id>  (1275) 
1

>  <reference_id>  (1275) 
70

>  <inspiration_ids>  (1275) 
[85, 70]

>  <energy_score>  (1275) 
491.87606703091194

>  <distance_score>  (1275) 
11.045232850746329

>  <path>  (1275) 
/opt/xchem-fragalysis-2/maxwin/BulkDock/SCRATCH/511013/C23036-P70/C23036-P70.minimised.mol

>  <scratch_subdir>  (1275) 
/opt/xchem-fragalysis-2/maxwin/BulkDock/SCRATCH/511013/C23036-P70

>  <fragmenstein_runtime>  (1275) 
12.308103322982788

>  <fragmenstein_outcome>  (1275) 
too moved

>  <fragmenstein_mode>  (1275) 
expansion

>  <fragmenstein_error>  (1275) 


$$$$
C36000-P45
     RDKit          3D

 36 38  0  0  0  0  0  0  0  0999 V2000
    5.6908  -13.7056   15.7422 O   0  0  0  0  0  0  0  0  0  0  0  0
    5.3923  -13.1049   16.7454 C   0  0  0  0  0  0  0  0  0  0  0  0
    4.6177  -13.5683   17.9848 N   0  0  0  0  0  0  0  0  0  0  0  0
    3.8676  -14.9606   18.2897 C   0  0  0  0  0  0  0  0  0  0  0  0
    2.1479  -15.1996   18.7400 C   0  0  0  0  0  0  0  0  0  0  0  0
    0.8562  -16.1680   19.9870 N   0  0  0  0  0  0  0  0  0  0  0  0
   -0.5252  -17.0609   20.2311 C   0  0  0  0  0  0  0  0  0  0  0  0
   -1.7491  -16.5636   19.5743 N   0  0  0  0  0  0  0  0  0  0  0  0
   -2.6198  -17.5476   19.3964 C   0  0  0  0  0  0  0  0  0  0  0  0
   -3.8684  -17.6810   18.6689 C   0  0  0  0  0  0  0  0  0  0  0  0
   -4.5067  -18.8468   18.4810 C   0  0  0  0  0  0  0  0  0  0  0  0
   -3.9452  -20.0623   18.9566 C   0  0  0  0  0  0  0  0  0  0  0  0
   -2.7913  -19.9760   19.6217 C   0  0  0  0  0  0  0  0  0  0  0  0
   -2.1101  -18.7083   19.9029 N   0  0  0  0  0  0  0  0  0  0  0  0
   -1.0768  -18.2442   20.9760 C   0  0  0  0  0  0  0  0  0  0  0  0
   -1.0658  -19.2079   22.5179 N   0  0  0  0  0  0  0  0  0  0  0  0
   -0.1390  -19.1792   23.2863 O   0  0  0  0  0  0  0  0  0  0  0  0
   -1.8715  -20.1388   22.8498 O   0  0  0  0  0  0  0  0  0  0  0  0
    5.7829  -11.6956   16.6210 C   0  0  0  0  0  0  0  0  0  0  0  0
    6.0819  -11.0898   15.3964 C   0  0  0  0  0  0  0  0  0  0  0  0
    5.9309   -9.7199   15.5958 C   0  0  0  0  0  0  0  0  0  0  0  0
    5.8006   -9.4315   16.8901 N   0  0  0  0  0  0  0  0  0  0  0  0
    5.7736  -10.6455   17.4758 N   0  0  0  0  0  0  0  0  0  0  0  0
    4.6200  -12.8257   18.6792 H   0  0  0  0  0  0  0  0  0  0  0  0
    4.6295  -15.6156   18.6770 H   0  0  0  0  0  0  0  0  0  0  0  0
    3.7967  -15.2275   17.2365 H   0  0  0  0  0  0  0  0  0  0  0  0
    2.4587  -14.5935   19.6003 H   0  0  0  0  0  0  0  0  0  0  0  0
    1.6195  -14.5632   17.9932 H   0  0  0  0  0  0  0  0  0  0  0  0
    1.2357  -16.0440   20.9114 H   0  0  0  0  0  0  0  0  0  0  0  0
   -4.3074  -16.8376   18.1600 H   0  0  0  0  0  0  0  0  0  0  0  0
   -5.4220  -18.8911   17.8981 H   0  0  0  0  0  0  0  0  0  0  0  0
   -4.4505  -21.0043   18.7767 H   0  0  0  0  0  0  0  0  0  0  0  0
   -2.4120  -20.9030   19.9985 H   0  0  0  0  0  0  0  0  0  0  0  0
    6.1948  -11.5997   14.4477 H   0  0  0  0  0  0  0  0  0  0  0  0
    5.9366   -8.9254   14.8610 H   0  0  0  0  0  0  0  0  0  0  0  0
    5.5148  -10.6685   18.4517 H   0  0  0  0  0  0  0  0  0  0  0  0
  1  2  2  0
  2  3  1  0
  3  4  1  0
  4  5  1  0
  5  6  1  0
  6  7  1  0
  7  8  1  0
  8  9  2  0
  9 10  1  0
 10 11  2  0
 11 12  1  0
 12 13  2  0
 13 14  1  0
 14 15  1  0
 15 16  1  0
 16 17  2  0
 16 18  1  0
  2 19  1  0
 19 20  2  0
 20 21  1  0
 21 22  2  0
 22 23  1  0
 15  7  2  0
 23 19  1  0
 14  9  1  0
  3 24  1  0
  4 25  1  0
  4 26  1  0
  5 27  1  0
  5 28  1  0
  6 29  1  0
 10 30  1  0
 11 31  1  0
 12 32  1  0
 13 33  1  0
 20 34  1  0
 21 35  1  0
 23 36  1  0
M  CHG  2  16   1  18  -1
M  END
>  <Energy>  (1276) 
372.99052598461452

>  <compound_id>  (1276) 
36000

>  <target_id>  (1276) 
1

>  <reference_id>  (1276) 
45

>  <inspiration_ids>  (1276) 
[45, 122]

>  <energy_score>  (1276) 
378.466911315479

>  <distance_score>  (1276) 
11.815804780417636

>  <path>  (1276) 
/opt/xchem-fragalysis-2/maxwin/BulkDock/SCRATCH/511013/C36000-P45/C36000-P45.minimised.mol

>  <scratch_subdir>  (1276) 
/opt/xchem-fragalysis-2/maxwin/BulkDock/SCRATCH/511013/C36000-P45

>  <fragmenstein_runtime>  (1276) 
20.325950384140015

>  <fragmenstein_outcome>  (1276) 
too moved

>  <fragmenstein_mode>  (1276) 
expansion

>  <fragmenstein_error>  (1276) 


$$$$
C36000-P122
     RDKit          3D

 36 38  0  0  0  0  0  0  0  0999 V2000
   -1.8475  -12.6581   17.9891 O   0  0  0  0  0  0  0  0  0  0  0  0
   -1.9202  -13.5857   17.2351 C   0  0  0  0  0  0  0  0  0  0  0  0
   -2.0748  -15.0179   17.4975 N   0  0  0  0  0  0  0  0  0  0  0  0
   -2.0966  -15.9398   19.0322 C   0  0  0  0  0  0  0  0  0  0  0  0
   -2.6380  -17.4435   18.9998 C   0  0  0  0  0  0  0  0  0  0  0  0
   -4.0529  -17.7015   18.5690 N   0  0  0  0  0  0  0  0  0  0  0  0
   -4.6816  -18.8639   18.9746 C   0  0  0  0  0  0  0  0  0  0  0  0
   -5.6279  -18.8415   19.9717 N   0  0  0  0  0  0  0  0  0  0  0  0
   -5.9805  -20.0948   20.1971 C   0  0  0  0  0  0  0  0  0  0  0  0
   -6.8078  -20.6681   21.2141 C   0  0  0  0  0  0  0  0  0  0  0  0
   -7.0194  -21.9977   21.2485 C   0  0  0  0  0  0  0  0  0  0  0  0
   -6.4414  -22.8677   20.2442 C   0  0  0  0  0  0  0  0  0  0  0  0
   -5.6656  -22.3401   19.2804 C   0  0  0  0  0  0  0  0  0  0  0  0
   -5.3980  -20.9587   19.2640 N   0  0  0  0  0  0  0  0  0  0  0  0
   -4.6047  -20.1428   18.4691 C   0  0  0  0  0  0  0  0  0  0  0  0
   -3.8743  -20.5871   17.3423 N   0  0  0  0  0  0  0  0  0  0  0  0
   -3.7087  -21.8024   17.1945 O   0  0  0  0  0  0  0  0  0  0  0  0
   -3.4217  -19.7152   16.5833 O   0  0  0  0  0  0  0  0  0  0  0  0
   -1.7346  -13.3093   15.7999 C   0  0  0  0  0  0  0  0  0  0  0  0
   -2.2989  -12.3138   15.0124 C   0  0  0  0  0  0  0  0  0  0  0  0
   -1.5053  -12.2415   13.8463 C   0  0  0  0  0  0  0  0  0  0  0  0
   -0.4990  -13.1165   13.8680 N   0  0  0  0  0  0  0  0  0  0  0  0
   -0.6671  -13.7564   15.0451 N   0  0  0  0  0  0  0  0  0  0  0  0
   -2.1856  -15.5086   16.6138 H   0  0  0  0  0  0  0  0  0  0  0  0
   -2.5974  -15.4760   19.8699 H   0  0  0  0  0  0  0  0  0  0  0  0
   -1.1457  -15.8611   19.5311 H   0  0  0  0  0  0  0  0  0  0  0  0
   -1.9811  -18.0756   18.4061 H   0  0  0  0  0  0  0  0  0  0  0  0
   -2.5312  -17.7872   20.0245 H   0  0  0  0  0  0  0  0  0  0  0  0
   -4.0925  -17.5173   17.5661 H   0  0  0  0  0  0  0  0  0  0  0  0
   -7.2359  -20.0019   21.9552 H   0  0  0  0  0  0  0  0  0  0  0  0
   -7.6358  -22.4461   22.0222 H   0  0  0  0  0  0  0  0  0  0  0  0
   -6.6353  -23.9310   20.2904 H   0  0  0  0  0  0  0  0  0  0  0  0
   -5.2171  -22.9689   18.5222 H   0  0  0  0  0  0  0  0  0  0  0  0
   -3.1250  -11.6745   15.2921 H   0  0  0  0  0  0  0  0  0  0  0  0
   -1.6103  -11.5746   13.0001 H   0  0  0  0  0  0  0  0  0  0  0  0
    0.0674  -14.3877   15.3378 H   0  0  0  0  0  0  0  0  0  0  0  0
  1  2  2  0
  2  3  1  0
  3  4  1  0
  4  5  1  0
  5  6  1  0
  6  7  1  0
  7  8  1  0
  8  9  2  0
  9 10  1  0
 10 11  2  0
 11 12  1  0
 12 13  2  0
 13 14  1  0
 14 15  1  0
 15 16  1  0
 16 17  2  0
 16 18  1  0
  2 19  1  0
 19 20  2  0
 20 21  1  0
 21 22  2  0
 22 23  1  0
 15  7  2  0
 23 19  1  0
 14  9  1  0
  3 24  1  0
  4 25  1  0
  4 26  1  0
  5 27  1  0
  5 28  1  0
  6 29  1  0
 10 30  1  0
 11 31  1  0
 12 32  1  0
 13 33  1  0
 20 34  1  0
 21 35  1  0
 23 36  1  0
M  CHG  2  16   1  18  -1
M  END
>  <Energy>  (1277) 
26.104098126587772

>  <compound_id>  (1277) 
36000

>  <target_id>  (1277) 
1

>  <reference_id>  (1277) 
122

>  <inspiration_ids>  (1277) 
[45, 122]

>  <energy_score>  (1277) 
31.580483457462947

>  <distance_score>  (1277) 
13.10553432053692

>  <path>  (1277) 
/opt/xchem-fragalysis-2/maxwin/BulkDock/SCRATCH/511013/C36000-P122/C36000-P122.minimised.mol

>  <scratch_subdir>  (1277) 
/opt/xchem-fragalysis-2/maxwin/BulkDock/SCRATCH/511013/C36000-P122

>  <fragmenstein_runtime>  (1277) 
29.72041344642639

>  <fragmenstein_outcome>  (1277) 
too moved

>  <fragmenstein_mode>  (1277) 
expansion

>  <fragmenstein_error>  (1277) 


$$$$
C36001-P45
     RDKit          3D

 44 47  0  0  0  0  0  0  0  0999 V2000
   -2.1892  -14.6109   21.8486 O   0  0  0  0  0  0  0  0  0  0  0  0
   -1.9877  -14.6338   20.7618 C   0  0  0  0  0  0  0  0  0  0  0  0
   -1.6637  -16.2384   20.0826 N   0  0  0  0  0  0  0  0  0  0  0  0
   -1.4503  -18.0152   20.9308 C   0  0  0  0  0  0  0  0  0  0  0  0
   -1.3877  -19.2383   22.5989 C   0  0  0  0  0  0  0  0  0  0  0  0
   -0.8982  -20.3603   23.0877 C   0  0  0  0  0  0  0  0  0  0  0  0
   -0.1720  -21.4665   23.3396 C   0  0  0  0  0  0  0  0  0  0  0  0
   -1.0987  -21.8582   24.1284 C   0  0  0  0  0  0  0  0  0  0  0  0
   -2.5176  -21.1137   24.2819 N   0  0  0  0  0  0  0  0  0  0  0  0
   -4.1896  -21.2313   24.8784 C   0  0  0  0  0  0  0  0  0  0  0  0
   -4.6198  -20.1777   25.3448 C   0  0  0  0  0  0  0  0  0  0  0  0
   -3.9391  -19.7616   24.3256 N   0  0  0  0  0  0  0  0  0  0  0  0
   -2.7566  -20.2554   23.4063 C   0  0  0  0  0  0  0  0  0  0  0  0
   -1.8679  -12.9260   19.9607 N   0  0  0  0  0  0  0  0  0  0  0  0
   -3.1158  -12.1388   19.3227 C   0  0  0  0  0  0  0  0  0  0  0  0
   -3.1687  -10.7788   18.5460 C   0  0  0  0  0  0  0  0  0  0  0  0
   -3.5098   -9.7024   19.5184 C   0  0  0  0  0  0  0  0  0  0  0  0
   -2.4565   -9.8622   20.5779 C   0  0  0  0  0  0  0  0  0  0  0  0
   -1.3994   -8.6902   20.4970 C   0  0  0  0  0  0  0  0  0  0  0  0
   -0.8524   -7.8508   21.4568 C   0  0  0  0  0  0  0  0  0  0  0  0
   -0.0624   -6.9077   20.7599 C   0  0  0  0  0  0  0  0  0  0  0  0
   -0.0587   -7.1288   19.4473 N   0  0  0  0  0  0  0  0  0  0  0  0
   -0.8298   -8.2261   19.3239 N   0  0  0  0  0  0  0  0  0  0  0  0
   -1.8873  -11.4172   20.6211 C   0  0  0  0  0  0  0  0  0  0  0  0
   -1.5833  -16.1460   19.0999 H   0  0  0  0  0  0  0  0  0  0  0  0
   -0.3620  -17.9320   20.8444 H   0  0  0  0  0  0  0  0  0  0  0  0
   -1.8854  -18.6137   20.1215 H   0  0  0  0  0  0  0  0  0  0  0  0
   -1.5156  -21.2083   22.5479 H   0  0  0  0  0  0  0  0  0  0  0  0
    0.4275  -22.2395   22.9510 H   0  0  0  0  0  0  0  0  0  0  0  0
   -0.6203  -22.6561   24.6959 H   0  0  0  0  0  0  0  0  0  0  0  0
   -4.9721  -21.9975   24.7103 H   0  0  0  0  0  0  0  0  0  0  0  0
   -5.4483  -19.7695   25.8914 H   0  0  0  0  0  0  0  0  0  0  0  0
   -2.9600  -12.6066   18.3409 H   0  0  0  0  0  0  0  0  0  0  0  0
   -4.0460  -12.2545   19.8744 H   0  0  0  0  0  0  0  0  0  0  0  0
   -3.9506  -10.8230   17.7770 H   0  0  0  0  0  0  0  0  0  0  0  0
   -2.2217  -10.5707   18.0425 H   0  0  0  0  0  0  0  0  0  0  0  0
   -3.5359   -8.7150   19.0470 H   0  0  0  0  0  0  0  0  0  0  0  0
   -4.5060   -9.8829   19.9411 H   0  0  0  0  0  0  0  0  0  0  0  0
   -2.9586   -9.6980   21.5409 H   0  0  0  0  0  0  0  0  0  0  0  0
   -1.0374   -7.8783   22.5200 H   0  0  0  0  0  0  0  0  0  0  0  0
    0.4922   -6.0679   21.1560 H   0  0  0  0  0  0  0  0  0  0  0  0
   -0.8798   -8.6664   18.4163 H   0  0  0  0  0  0  0  0  0  0  0  0
   -1.2392  -11.4155   21.4645 H   0  0  0  0  0  0  0  0  0  0  0  0
   -1.1579  -11.1865   19.8887 H   0  0  0  0  0  0  0  0  0  0  0  0
  1  2  2  0
  2  3  1  0
  3  4  1  0
  4  5  1  0
  5  6  2  0
  6  7  1  0
  7  8  2  0
  8  9  1  0
  9 10  1  0
 10 11  2  0
 11 12  1  0
 12 13  2  0
  2 14  1  0
 14 15  1  0
 15 16  1  0
 16 17  1  0
 17 18  1  0
 18 19  1  0
 19 20  2  0
 20 21  1  0
 21 22  2  0
 22 23  1  0
 18 24  1  0
 13  5  1  0
 24 14  1  0
 13  9  1  0
 23 19  1  0
  3 25  1  0
  4 26  1  0
  4 27  1  0
  6 28  1  0
  7 29  1  0
  8 30  1  0
 10 31  1  0
 11 32  1  0
 15 33  1  0
 15 34  1  0
 16 35  1  0
 16 36  1  0
 17 37  1  0
 17 38  1  0
 18 39  1  0
 20 40  1  0
 21 41  1  0
 23 42  1  0
 24 43  1  0
 24 44  1  0
M  END
>  <Energy>  (1278) 
1126.6294356947321

>  <compound_id>  (1278) 
36001

>  <target_id>  (1278) 
1

>  <reference_id>  (1278) 
45

>  <inspiration_ids>  (1278) 
[45, 122]

>  <energy_score>  (1278) 
1129.692034128388

>  <distance_score>  (1278) 
11.67378387470803

>  <path>  (1278) 
/opt/xchem-fragalysis-2/maxwin/BulkDock/SCRATCH/511013/C36001-P45/C36001-P45.minimised.mol

>  <scratch_subdir>  (1278) 
/opt/xchem-fragalysis-2/maxwin/BulkDock/SCRATCH/511013/C36001-P45

>  <fragmenstein_runtime>  (1278) 
32.37560796737671

>  <fragmenstein_outcome>  (1278) 
too moved

>  <fragmenstein_mode>  (1278) 
expansion

>  <fragmenstein_error>  (1278) 


$$$$
C36001-P122
     RDKit          3D

 44 47  0  0  0  0  0  0  0  0999 V2000
   -5.4342  -19.1815   26.9835 O   0  0  0  0  0  0  0  0  0  0  0  0
   -5.0074  -18.1241   27.5185 C   0  0  0  0  0  0  0  0  0  0  0  0
   -5.5669  -17.2178   29.0920 N   0  0  0  0  0  0  0  0  0  0  0  0
   -6.7027  -17.4786   29.9827 C   0  0  0  0  0  0  0  0  0  0  0  0
   -7.0373  -16.6478   31.2074 C   0  0  0  0  0  0  0  0  0  0  0  0
   -8.1239  -15.8439   31.0619 C   0  0  0  0  0  0  0  0  0  0  0  0
   -9.1275  -15.7226   32.1095 C   0  0  0  0  0  0  0  0  0  0  0  0
   -9.0072  -16.4632   33.2227 C   0  0  0  0  0  0  0  0  0  0  0  0
   -7.8375  -17.1768   33.4302 N   0  0  0  0  0  0  0  0  0  0  0  0
   -7.4698  -17.9639   34.4900 C   0  0  0  0  0  0  0  0  0  0  0  0
   -6.1564  -18.2885   34.2586 C   0  0  0  0  0  0  0  0  0  0  0  0
   -5.7174  -17.7193   33.0972 N   0  0  0  0  0  0  0  0  0  0  0  0
   -6.7722  -17.1498   32.5460 C   0  0  0  0  0  0  0  0  0  0  0  0
   -3.7686  -16.8622   26.9119 N   0  0  0  0  0  0  0  0  0  0  0  0
   -2.4042  -16.9680   27.1912 C   0  0  0  0  0  0  0  0  0  0  0  0
   -2.0363  -15.1303   27.1670 C   0  0  0  0  0  0  0  0  0  0  0  0
   -2.0408  -14.2564   25.3974 C   0  0  0  0  0  0  0  0  0  0  0  0
   -2.3685  -15.1618   23.5900 C   0  0  0  0  0  0  0  0  0  0  0  0
   -2.0227  -14.4683   21.4675 C   0  0  0  0  0  0  0  0  0  0  0  0
   -1.6333  -12.6450   20.8994 C   0  0  0  0  0  0  0  0  0  0  0  0
   -1.8110  -11.5723   19.7727 C   0  0  0  0  0  0  0  0  0  0  0  0
   -2.1703  -12.5766   19.0907 N   0  0  0  0  0  0  0  0  0  0  0  0
   -2.5964  -12.9555   20.5771 N   0  0  0  0  0  0  0  0  0  0  0  0
   -2.8046  -16.6506   25.0898 C   0  0  0  0  0  0  0  0  0  0  0  0
   -5.0064  -16.3790   29.2454 H   0  0  0  0  0  0  0  0  0  0  0  0
   -6.8593  -18.4651   30.2863 H   0  0  0  0  0  0  0  0  0  0  0  0
   -7.5269  -17.2942   29.2736 H   0  0  0  0  0  0  0  0  0  0  0  0
   -8.4523  -15.5223   30.0751 H   0  0  0  0  0  0  0  0  0  0  0  0
  -10.0071  -15.1152   31.9226 H   0  0  0  0  0  0  0  0  0  0  0  0
   -9.7505  -16.4854   34.0089 H   0  0  0  0  0  0  0  0  0  0  0  0
   -8.1444  -18.2000   35.2982 H   0  0  0  0  0  0  0  0  0  0  0  0
   -5.4992  -18.8877   34.8735 H   0  0  0  0  0  0  0  0  0  0  0  0
   -1.6813  -17.3574   27.8098 H   0  0  0  0  0  0  0  0  0  0  0  0
   -1.9905  -17.7164   26.4790 H   0  0  0  0  0  0  0  0  0  0  0  0
   -2.7007  -14.6173   27.8678 H   0  0  0  0  0  0  0  0  0  0  0  0
   -1.1509  -14.9700   27.7649 H   0  0  0  0  0  0  0  0  0  0  0  0
   -2.5524  -13.2815   25.5391 H   0  0  0  0  0  0  0  0  0  0  0  0
   -1.0907  -13.8315   25.2073 H   0  0  0  0  0  0  0  0  0  0  0  0
   -1.2823  -15.1666   23.6248 H   0  0  0  0  0  0  0  0  0  0  0  0
   -1.2757  -11.8755   21.6407 H   0  0  0  0  0  0  0  0  0  0  0  0
   -1.7074  -10.5116   19.6131 H   0  0  0  0  0  0  0  0  0  0  0  0
   -3.5992  -12.7010   20.6327 H   0  0  0  0  0  0  0  0  0  0  0  0
   -2.3737  -15.8977   25.4996 H   0  0  0  0  0  0  0  0  0  0  0  0
   -3.6774  -15.9863   24.8739 H   0  0  0  0  0  0  0  0  0  0  0  0
  1  2  2  0
  2  3  1  0
  3  4  1  0
  4  5  1  0
  5  6  2  0
  6  7  1  0
  7  8  2  0
  8  9  1  0
  9 10  1  0
 10 11  2  0
 11 12  1  0
 12 13  2  0
  2 14  1  0
 14 15  1  0
 15 16  1  0
 16 17  1  0
 17 18  1  0
 18 19  1  0
 19 20  2  0
 20 21  1  0
 21 22  2  0
 22 23  1  0
 18 24  1  0
 13  5  1  0
 24 14  1  0
 13  9  1  0
 23 19  1  0
  3 25  1  0
  4 26  1  0
  4 27  1  0
  6 28  1  0
  7 29  1  0
  8 30  1  0
 10 31  1  0
 11 32  1  0
 15 33  1  0
 15 34  1  0
 16 35  1  0
 16 36  1  0
 17 37  1  0
 17 38  1  0
 18 39  1  0
 20 40  1  0
 21 41  1  0
 23 42  1  0
 24 43  1  0
 24 44  1  0
M  END
>  <Energy>  (1279) 
1394.8549513496439

>  <compound_id>  (1279) 
36001

>  <target_id>  (1279) 
1

>  <reference_id>  (1279) 
122

>  <inspiration_ids>  (1279) 
[45, 122]

>  <energy_score>  (1279) 
1397.9175497832916

>  <distance_score>  (1279) 
14.965620327840846

>  <path>  (1279) 
/opt/xchem-fragalysis-2/maxwin/BulkDock/SCRATCH/511013/C36001-P122/C36001-P122.minimised.mol

>  <scratch_subdir>  (1279) 
/opt/xchem-fragalysis-2/maxwin/BulkDock/SCRATCH/511013/C36001-P122

>  <fragmenstein_runtime>  (1279) 
38.92480397224426

>  <fragmenstein_outcome>  (1279) 
too moved

>  <fragmenstein_mode>  (1279) 
expansion

>  <fragmenstein_error>  (1279) 


$$$$
C36002-P45
     RDKit          3D

 37 39  0  0  0  0  0  0  0  0999 V2000
    4.5169  -13.4301   18.9530 O   0  0  0  0  0  0  0  0  0  0  0  0
    4.4382  -13.1720   20.0912 C   0  0  0  0  0  0  0  0  0  0  0  0
    3.1581  -13.8631   21.0657 N   0  0  0  0  0  0  0  0  0  0  0  0
    1.7569  -15.2107   20.6401 C   0  0  0  0  0  0  0  0  0  0  0  0
    0.2747  -16.7106   21.1593 C   0  0  0  0  0  0  0  0  0  0  0  0
   -0.7508  -18.3796   21.7653 N   0  0  0  0  0  0  0  0  0  0  0  0
   -1.6303  -19.7221   23.0900 C   0  0  0  0  0  0  0  0  0  0  0  0
   -3.3688  -20.3508   24.1251 C   0  0  0  0  0  0  0  0  0  0  0  0
   -4.7187  -20.5947   23.7924 N   0  0  0  0  0  0  0  0  0  0  0  0
   -5.0716  -21.6878   24.7439 C   0  0  0  0  0  0  0  0  0  0  0  0
   -5.6500  -23.2906   24.6479 C   0  0  0  0  0  0  0  0  0  0  0  0
   -6.0501  -23.9385   25.7880 C   0  0  0  0  0  0  0  0  0  0  0  0
   -6.0266  -23.3481   27.0671 C   0  0  0  0  0  0  0  0  0  0  0  0
   -5.4906  -22.1359   27.1657 C   0  0  0  0  0  0  0  0  0  0  0  0
   -4.8837  -21.3135   26.0040 N   0  0  0  0  0  0  0  0  0  0  0  0
   -4.3346  -20.1925   25.4514 C   0  0  0  0  0  0  0  0  0  0  0  0
   -6.1781  -19.0635   26.3073 Br  0  0  0  0  0  0  0  0  0  0  0  0
    5.7505  -12.2443   20.5377 C   0  0  0  0  0  0  0  0  0  0  0  0
    6.8802  -11.6917   21.2796 C   0  0  0  0  0  0  0  0  0  0  0  0
    7.7389  -10.8956   20.4825 C   0  0  0  0  0  0  0  0  0  0  0  0
    7.0427  -10.5978   19.4011 N   0  0  0  0  0  0  0  0  0  0  0  0
    6.0541  -11.5513   19.4209 N   0  0  0  0  0  0  0  0  0  0  0  0
    3.2043  -13.4629   21.9809 H   0  0  0  0  0  0  0  0  0  0  0  0
    2.1623  -15.1152   19.5544 H   0  0  0  0  0  0  0  0  0  0  0  0
    2.5800  -15.6741   20.6777 H   0  0  0  0  0  0  0  0  0  0  0  0
   -0.2367  -16.0325   21.7936 H   0  0  0  0  0  0  0  0  0  0  0  0
   -0.2740  -16.7180   20.2271 H   0  0  0  0  0  0  0  0  0  0  0  0
   -1.0694  -18.6959   20.8415 H   0  0  0  0  0  0  0  0  0  0  0  0
   -2.1499  -20.4433   22.4655 H   0  0  0  0  0  0  0  0  0  0  0  0
   -0.8356  -20.4168   23.3477 H   0  0  0  0  0  0  0  0  0  0  0  0
   -5.7270  -23.6013   23.6109 H   0  0  0  0  0  0  0  0  0  0  0  0
   -6.4266  -24.9488   25.8816 H   0  0  0  0  0  0  0  0  0  0  0  0
   -6.4409  -23.8682   27.9232 H   0  0  0  0  0  0  0  0  0  0  0  0
   -5.5303  -21.7761   28.1468 H   0  0  0  0  0  0  0  0  0  0  0  0
    7.2167  -11.7569   22.3034 H   0  0  0  0  0  0  0  0  0  0  0  0
    8.6719  -10.3973   20.7104 H   0  0  0  0  0  0  0  0  0  0  0  0
    5.3343  -11.5980   18.7110 H   0  0  0  0  0  0  0  0  0  0  0  0
  1  2  2  0
  2  3  1  0
  3  4  1  0
  4  5  1  0
  5  6  1  0
  6  7  1  0
  7  8  1  0
  8  9  1  0
  9 10  2  0
 10 11  1  0
 11 12  2  0
 12 13  1  0
 13 14  2  0
 14 15  1  0
 15 16  1  0
 16 17  1  0
  2 18  1  0
 18 19  2  0
 19 20  1  0
 20 21  2  0
 21 22  1  0
 16  8  2  0
 22 18  1  0
 15 10  1  0
  3 23  1  0
  4 24  1  0
  4 25  1  0
  5 26  1  0
  5 27  1  0
  6 28  1  0
  7 29  1  0
  7 30  1  0
 11 31  1  0
 12 32  1  0
 13 33  1  0
 14 34  1  0
 19 35  1  0
 20 36  1  0
 22 37  1  0
M  END
>  <Energy>  (1280) 
1198.7963510804402

>  <compound_id>  (1280) 
36002

>  <target_id>  (1280) 
1

>  <reference_id>  (1280) 
45

>  <inspiration_ids>  (1280) 
[45, 122]

>  <energy_score>  (1280) 
1141.6128585592523

>  <distance_score>  (1280) 
8.66988634560394

>  <path>  (1280) 
/opt/xchem-fragalysis-2/maxwin/BulkDock/SCRATCH/511013/C36002-P45/C36002-P45.minimised.mol

>  <scratch_subdir>  (1280) 
/opt/xchem-fragalysis-2/maxwin/BulkDock/SCRATCH/511013/C36002-P45

>  <fragmenstein_runtime>  (1280) 
18.91549515724182

>  <fragmenstein_outcome>  (1280) 
too moved

>  <fragmenstein_mode>  (1280) 
expansion

>  <fragmenstein_error>  (1280) 


$$$$
C36002-P122
     RDKit          3D

 37 39  0  0  0  0  0  0  0  0999 V2000
    2.7146  -11.7801   16.2178 O   0  0  0  0  0  0  0  0  0  0  0  0
    3.4049  -11.5238   17.1261 C   0  0  0  0  0  0  0  0  0  0  0  0
    3.5859  -12.6971   18.5166 N   0  0  0  0  0  0  0  0  0  0  0  0
    2.6287  -14.4407   18.9479 C   0  0  0  0  0  0  0  0  0  0  0  0
    1.5426  -15.0802   20.7530 C   0  0  0  0  0  0  0  0  0  0  0  0
   -0.0160  -14.9031   22.2202 N   0  0  0  0  0  0  0  0  0  0  0  0
   -1.2448  -15.2709   23.9217 C   0  0  0  0  0  0  0  0  0  0  0  0
   -2.2257  -16.7165   25.1349 C   0  0  0  0  0  0  0  0  0  0  0  0
   -2.7032  -16.6673   26.7670 N   0  0  0  0  0  0  0  0  0  0  0  0
   -3.2028  -17.7408   27.4748 C   0  0  0  0  0  0  0  0  0  0  0  0
   -4.9023  -18.0534   27.6313 C   0  0  0  0  0  0  0  0  0  0  0  0
   -5.6038  -19.1922   26.6416 C   0  0  0  0  0  0  0  0  0  0  0  0
   -4.4767  -20.0483   25.3977 C   0  0  0  0  0  0  0  0  0  0  0  0
   -2.9046  -19.5183   25.5628 C   0  0  0  0  0  0  0  0  0  0  0  0
   -2.3652  -18.7265   26.5854 N   0  0  0  0  0  0  0  0  0  0  0  0
   -1.3791  -17.9228   26.1797 C   0  0  0  0  0  0  0  0  0  0  0  0
   -0.6931  -17.5822   28.4458 Br  0  0  0  0  0  0  0  0  0  0  0  0
    3.9736   -9.8767   16.9592 C   0  0  0  0  0  0  0  0  0  0  0  0
    3.8904   -8.6525   17.6596 C   0  0  0  0  0  0  0  0  0  0  0  0
    4.4880   -7.6505   16.8715 C   0  0  0  0  0  0  0  0  0  0  0  0
    4.7656   -8.0968   15.6498 N   0  0  0  0  0  0  0  0  0  0  0  0
    4.1277   -9.2943   15.6308 N   0  0  0  0  0  0  0  0  0  0  0  0
    4.2812  -12.3395   19.1568 H   0  0  0  0  0  0  0  0  0  0  0  0
    3.3104  -15.1896   18.5424 H   0  0  0  0  0  0  0  0  0  0  0  0
    1.8890  -14.3668   18.1374 H   0  0  0  0  0  0  0  0  0  0  0  0
    2.5096  -14.7402   21.1557 H   0  0  0  0  0  0  0  0  0  0  0  0
    1.0521  -16.0256   20.4574 H   0  0  0  0  0  0  0  0  0  0  0  0
   -0.5030  -15.7733   21.8294 H   0  0  0  0  0  0  0  0  0  0  0  0
   -1.6299  -14.6267   24.7511 H   0  0  0  0  0  0  0  0  0  0  0  0
   -0.4576  -14.6547   24.3959 H   0  0  0  0  0  0  0  0  0  0  0  0
   -5.4458  -17.3009   28.1984 H   0  0  0  0  0  0  0  0  0  0  0  0
   -6.6495  -19.1931   26.5033 H   0  0  0  0  0  0  0  0  0  0  0  0
   -4.7164  -20.5894   24.5063 H   0  0  0  0  0  0  0  0  0  0  0  0
   -2.2957  -19.9763   24.7693 H   0  0  0  0  0  0  0  0  0  0  0  0
    3.4264   -8.4825   18.6075 H   0  0  0  0  0  0  0  0  0  0  0  0
    4.6847   -6.6181   17.1270 H   0  0  0  0  0  0  0  0  0  0  0  0
    4.0766   -9.8403   14.7776 H   0  0  0  0  0  0  0  0  0  0  0  0
  1  2  2  0
  2  3  1  0
  3  4  1  0
  4  5  1  0
  5  6  1  0
  6  7  1  0
  7  8  1  0
  8  9  1  0
  9 10  2  0
 10 11  1  0
 11 12  2  0
 12 13  1  0
 13 14  2  0
 14 15  1  0
 15 16  1  0
 16 17  1  0
  2 18  1  0
 18 19  2  0
 19 20  1  0
 20 21  2  0
 21 22  1  0
 16  8  2  0
 22 18  1  0
 15 10  1  0
  3 23  1  0
  4 24  1  0
  4 25  1  0
  5 26  1  0
  5 27  1  0
  6 28  1  0
  7 29  1  0
  7 30  1  0
 11 31  1  0
 12 32  1  0
 13 33  1  0
 14 34  1  0
 19 35  1  0
 20 36  1  0
 22 37  1  0
M  END
>  <Energy>  (1281) 
1428.504336809857

>  <compound_id>  (1281) 
36002

>  <target_id>  (1281) 
1

>  <reference_id>  (1281) 
122

>  <inspiration_ids>  (1281) 
[45, 122]

>  <energy_score>  (1281) 
1371.3208442886987

>  <distance_score>  (1281) 
9.898160253656918

>  <path>  (1281) 
/opt/xchem-fragalysis-2/maxwin/BulkDock/SCRATCH/511013/C36002-P122/C36002-P122.minimised.mol

>  <scratch_subdir>  (1281) 
/opt/xchem-fragalysis-2/maxwin/BulkDock/SCRATCH/511013/C36002-P122

>  <fragmenstein_runtime>  (1281) 
26.986834287643433

>  <fragmenstein_outcome>  (1281) 
too moved

>  <fragmenstein_mode>  (1281) 
expansion

>  <fragmenstein_error>  (1281) 


$$$$
C36003-P45
     RDKit          3D

 35 37  0  0  0  0  0  0  0  0999 V2000
   -0.0939  -16.1382   21.9776 O   0  0  0  0  0  0  0  0  0  0  0  0
   -0.1337  -16.9115   21.0956 C   0  0  0  0  0  0  0  0  0  0  0  0
    0.7908  -16.1956   19.6198 C   0  0  0  0  0  0  0  0  0  0  0  0
    2.3846  -15.0420   18.7652 C   0  0  0  0  0  0  0  0  0  0  0  0
    3.8966  -13.7970   18.8753 C   0  0  0  0  0  0  0  0  0  0  0  0
    4.5306  -13.1060   20.0740 C   0  0  0  0  0  0  0  0  0  0  0  0
    5.7538  -12.5096   19.8605 C   0  0  0  0  0  0  0  0  0  0  0  0
    5.6446  -12.0009   18.6623 N   0  0  0  0  0  0  0  0  0  0  0  0
    4.2486  -12.5970   18.2219 N   0  0  0  0  0  0  0  0  0  0  0  0
   -0.8254  -18.5483   21.2647 N   0  0  0  0  0  0  0  0  0  0  0  0
   -1.5211  -19.5506   22.8707 C   0  0  0  0  0  0  0  0  0  0  0  0
   -3.1947  -20.3607   23.6602 C   0  0  0  0  0  0  0  0  0  0  0  0
   -3.5385  -21.1444   24.5808 N   0  0  0  0  0  0  0  0  0  0  0  0
   -4.8682  -21.5164   24.8009 C   0  0  0  0  0  0  0  0  0  0  0  0
   -5.5694  -23.1657   24.7076 C   0  0  0  0  0  0  0  0  0  0  0  0
   -6.0036  -23.7755   25.8393 C   0  0  0  0  0  0  0  0  0  0  0  0
   -5.8656  -23.0566   27.0355 C   0  0  0  0  0  0  0  0  0  0  0  0
   -5.4280  -21.7850   26.9801 C   0  0  0  0  0  0  0  0  0  0  0  0
   -4.9480  -20.6346   25.7795 N   0  0  0  0  0  0  0  0  0  0  0  0
   -4.5969  -19.8716   24.2649 C   0  0  0  0  0  0  0  0  0  0  0  0
   -6.2605  -18.8870   22.8789 Br  0  0  0  0  0  0  0  0  0  0  0  0
    1.2955  -15.8439   20.5234 H   0  0  0  0  0  0  0  0  0  0  0  0
    0.9244  -17.2129   19.1933 H   0  0  0  0  0  0  0  0  0  0  0  0
    2.4415  -14.6456   19.7893 H   0  0  0  0  0  0  0  0  0  0  0  0
    1.8711  -14.4552   17.9875 H   0  0  0  0  0  0  0  0  0  0  0  0
    4.0448  -13.1891   21.0254 H   0  0  0  0  0  0  0  0  0  0  0  0
    6.5510  -12.1880   20.5081 H   0  0  0  0  0  0  0  0  0  0  0  0
    3.8061  -12.1516   17.4262 H   0  0  0  0  0  0  0  0  0  0  0  0
   -0.8291  -18.9984   20.3626 H   0  0  0  0  0  0  0  0  0  0  0  0
   -1.2787  -20.6352   22.8870 H   0  0  0  0  0  0  0  0  0  0  0  0
   -0.6276  -19.4654   23.4349 H   0  0  0  0  0  0  0  0  0  0  0  0
   -5.6544  -23.5196   23.6848 H   0  0  0  0  0  0  0  0  0  0  0  0
   -6.4462  -24.7535   25.9471 H   0  0  0  0  0  0  0  0  0  0  0  0
   -6.2422  -23.4861   27.9583 H   0  0  0  0  0  0  0  0  0  0  0  0
   -5.7429  -21.3321   27.8509 H   0  0  0  0  0  0  0  0  0  0  0  0
  1  2  2  0
  2  3  1  0
  3  4  1  0
  4  5  1  0
  5  6  2  0
  6  7  1  0
  7  8  2  0
  8  9  1  0
  2 10  1  0
 10 11  1  0
 11 12  1  0
 12 13  1  0
 13 14  2  0
 14 15  1  0
 15 16  2  0
 16 17  1  0
 17 18  2  0
 18 19  1  0
 19 20  1  0
 20 21  1  0
  9  5  1  0
 20 12  2  0
 19 14  1  0
  3 22  1  0
  3 23  1  0
  4 24  1  0
  4 25  1  0
  6 26  1  0
  7 27  1  0
  9 28  1  0
 10 29  1  0
 11 30  1  0
 11 31  1  0
 15 32  1  0
 16 33  1  0
 17 34  1  0
 18 35  1  0
M  END
>  <Energy>  (1282) 
1087.8948719459127

>  <compound_id>  (1282) 
36003

>  <target_id>  (1282) 
1

>  <reference_id>  (1282) 
45

>  <inspiration_ids>  (1282) 
[45, 122]

>  <energy_score>  (1282) 
1047.803656784427

>  <distance_score>  (1282) 
9.762624934289992

>  <path>  (1282) 
/opt/xchem-fragalysis-2/maxwin/BulkDock/SCRATCH/511013/C36003-P45/C36003-P45.minimised.mol

>  <scratch_subdir>  (1282) 
/opt/xchem-fragalysis-2/maxwin/BulkDock/SCRATCH/511013/C36003-P45

>  <fragmenstein_runtime>  (1282) 
21.03958821296692

>  <fragmenstein_outcome>  (1282) 
too moved

>  <fragmenstein_mode>  (1282) 
expansion

>  <fragmenstein_error>  (1282) 


$$$$
C36003-P122
     RDKit          3D

 35 37  0  0  0  0  0  0  0  0999 V2000
   -2.8439  -13.6652   15.9691 O   0  0  0  0  0  0  0  0  0  0  0  0
   -3.0787  -14.4132   15.0605 C   0  0  0  0  0  0  0  0  0  0  0  0
   -2.8255  -13.8418   13.5702 C   0  0  0  0  0  0  0  0  0  0  0  0
   -2.4385  -12.3008   13.3089 C   0  0  0  0  0  0  0  0  0  0  0  0
   -1.0276  -11.7345   12.9925 C   0  0  0  0  0  0  0  0  0  0  0  0
   -0.6353  -10.4076   12.8095 C   0  0  0  0  0  0  0  0  0  0  0  0
    0.7636  -10.4204   12.6384 C   0  0  0  0  0  0  0  0  0  0  0  0
    1.2509  -11.6578   12.6892 N   0  0  0  0  0  0  0  0  0  0  0  0
    0.1605  -12.4310   12.9171 N   0  0  0  0  0  0  0  0  0  0  0  0
   -3.4768  -15.8422   15.0662 N   0  0  0  0  0  0  0  0  0  0  0  0
   -3.6057  -16.8166   16.1930 C   0  0  0  0  0  0  0  0  0  0  0  0
   -4.6550  -17.6164   16.9664 C   0  0  0  0  0  0  0  0  0  0  0  0
   -4.1176  -18.7274   17.6622 N   0  0  0  0  0  0  0  0  0  0  0  0
   -5.0699  -19.2681   18.3874 C   0  0  0  0  0  0  0  0  0  0  0  0
   -5.0642  -20.3987   19.2609 C   0  0  0  0  0  0  0  0  0  0  0  0
   -6.1791  -20.7449   19.9334 C   0  0  0  0  0  0  0  0  0  0  0  0
   -7.4034  -19.9786   19.7780 C   0  0  0  0  0  0  0  0  0  0  0  0
   -7.4173  -18.9230   18.9384 C   0  0  0  0  0  0  0  0  0  0  0  0
   -6.2558  -18.5657   18.2337 N   0  0  0  0  0  0  0  0  0  0  0  0
   -5.9927  -17.5452   17.3115 C   0  0  0  0  0  0  0  0  0  0  0  0
   -7.2262  -16.2597   16.6452 Br  0  0  0  0  0  0  0  0  0  0  0  0
   -3.7699  -14.0262   13.0411 H   0  0  0  0  0  0  0  0  0  0  0  0
   -2.0557  -14.4748   13.1142 H   0  0  0  0  0  0  0  0  0  0  0  0
   -3.0112  -12.0354   12.4062 H   0  0  0  0  0  0  0  0  0  0  0  0
   -2.8890  -11.6958   14.1035 H   0  0  0  0  0  0  0  0  0  0  0  0
   -1.2853   -9.5437   12.8165 H   0  0  0  0  0  0  0  0  0  0  0  0
    1.4376   -9.5893   12.4766 H   0  0  0  0  0  0  0  0  0  0  0  0
    0.3106  -13.4094   13.1437 H   0  0  0  0  0  0  0  0  0  0  0  0
   -3.5115  -16.1810   14.1137 H   0  0  0  0  0  0  0  0  0  0  0  0
   -3.0400  -17.6459   15.7445 H   0  0  0  0  0  0  0  0  0  0  0  0
   -2.9684  -16.4017   16.9724 H   0  0  0  0  0  0  0  0  0  0  0  0
   -4.1367  -20.9502   19.3501 H   0  0  0  0  0  0  0  0  0  0  0  0
   -6.1905  -21.6036   20.5973 H   0  0  0  0  0  0  0  0  0  0  0  0
   -8.2855  -20.2806   20.3329 H   0  0  0  0  0  0  0  0  0  0  0  0
   -8.3008  -18.3202   18.7718 H   0  0  0  0  0  0  0  0  0  0  0  0
  1  2  2  0
  2  3  1  0
  3  4  1  0
  4  5  1  0
  5  6  2  0
  6  7  1  0
  7  8  2  0
  8  9  1  0
  2 10  1  0
 10 11  1  0
 11 12  1  0
 12 13  1  0
 13 14  2  0
 14 15  1  0
 15 16  2  0
 16 17  1  0
 17 18  2  0
 18 19  1  0
 19 20  1  0
 20 21  1  0
  9  5  1  0
 20 12  2  0
 19 14  1  0
  3 22  1  0
  3 23  1  0
  4 24  1  0
  4 25  1  0
  6 26  1  0
  7 27  1  0
  9 28  1  0
 10 29  1  0
 11 30  1  0
 11 31  1  0
 15 32  1  0
 16 33  1  0
 17 34  1  0
 18 35  1  0
M  END
>  <Energy>  (1283) 
80.049636175657668

>  <compound_id>  (1283) 
36003

>  <target_id>  (1283) 
1

>  <reference_id>  (1283) 
122

>  <inspiration_ids>  (1283) 
[45, 122]

>  <energy_score>  (1283) 
39.95842101417986

>  <distance_score>  (1283) 
13.384433363479777

>  <path>  (1283) 
/opt/xchem-fragalysis-2/maxwin/BulkDock/SCRATCH/511013/C36003-P122/C36003-P122.minimised.mol

>  <scratch_subdir>  (1283) 
/opt/xchem-fragalysis-2/maxwin/BulkDock/SCRATCH/511013/C36003-P122

>  <fragmenstein_runtime>  (1283) 
21.32846713066101

>  <fragmenstein_outcome>  (1283) 
too moved

>  <fragmenstein_mode>  (1283) 
expansion

>  <fragmenstein_error>  (1283) 


$$$$
C36004-P45
     RDKit          3D

 38 40  0  0  0  0  0  0  0  0999 V2000
   -5.1796  -25.2577   26.5661 C   0  0  0  0  0  0  0  0  0  0  0  0
   -4.3881  -24.4906   25.5082 C   0  0  0  0  0  0  0  0  0  0  0  0
   -2.4943  -24.9929   25.5556 C   0  0  0  0  0  0  0  0  0  0  0  0
   -1.4437  -23.4577   25.7153 C   0  0  0  0  0  0  0  0  0  0  0  0
   -1.8922  -21.7273   24.6407 N   0  0  0  0  0  0  0  0  0  0  0  0
   -1.4174  -20.6080   23.2671 C   0  0  0  0  0  0  0  0  0  0  0  0
   -0.3452  -19.0875   22.9340 C   0  0  0  0  0  0  0  0  0  0  0  0
    0.3388  -18.8706   23.9491 O   0  0  0  0  0  0  0  0  0  0  0  0
    0.1140  -17.8612   21.4069 O   0  0  0  0  0  0  0  0  0  0  0  0
    0.8828  -16.2815   20.2171 C   0  0  0  0  0  0  0  0  0  0  0  0
    2.3117  -15.0923   18.8574 C   0  0  0  0  0  0  0  0  0  0  0  0
    3.4672  -13.3729   18.4543 N   0  0  0  0  0  0  0  0  0  0  0  0
    3.2747  -11.8984   17.1315 C   0  0  0  0  0  0  0  0  0  0  0  0
    2.3916  -12.0396   16.3245 O   0  0  0  0  0  0  0  0  0  0  0  0
    3.8950  -10.4523   16.9275 C   0  0  0  0  0  0  0  0  0  0  0  0
    4.0963   -9.8057   15.5456 C   0  0  0  0  0  0  0  0  0  0  0  0
    4.4032   -8.4425   15.7156 C   0  0  0  0  0  0  0  0  0  0  0  0
    4.2614   -8.0889   16.9859 N   0  0  0  0  0  0  0  0  0  0  0  0
    3.6758   -9.1909   17.5240 N   0  0  0  0  0  0  0  0  0  0  0  0
   -2.7110  -20.6247   23.0438 C   0  0  0  0  0  0  0  0  0  0  0  0
   -3.8490  -20.3690   24.0608 N   0  0  0  0  0  0  0  0  0  0  0  0
   -3.8681  -21.4571   24.7542 C   0  0  0  0  0  0  0  0  0  0  0  0
   -5.0296  -23.1465   24.5899 C   0  0  0  0  0  0  0  0  0  0  0  0
   -6.2380  -24.9853   26.5451 H   0  0  0  0  0  0  0  0  0  0  0  0
   -4.7899  -25.0024   27.5566 H   0  0  0  0  0  0  0  0  0  0  0  0
   -5.0821  -26.3388   26.4366 H   0  0  0  0  0  0  0  0  0  0  0  0
   -2.4463  -25.6905   26.3960 H   0  0  0  0  0  0  0  0  0  0  0  0
   -1.6272  -23.5811   26.8911 H   0  0  0  0  0  0  0  0  0  0  0  0
   -0.1410  -16.1651   19.8917 H   0  0  0  0  0  0  0  0  0  0  0  0
    0.9004  -15.6966   21.0952 H   0  0  0  0  0  0  0  0  0  0  0  0
    1.6892  -14.6777   18.0511 H   0  0  0  0  0  0  0  0  0  0  0  0
    2.4839  -14.6338   19.8317 H   0  0  0  0  0  0  0  0  0  0  0  0
    4.2875  -13.1878   19.0249 H   0  0  0  0  0  0  0  0  0  0  0  0
    4.0893  -10.3899   14.6336 H   0  0  0  0  0  0  0  0  0  0  0  0
    4.7119   -7.7254   14.9749 H   0  0  0  0  0  0  0  0  0  0  0  0
    3.0872   -9.0877   18.3242 H   0  0  0  0  0  0  0  0  0  0  0  0
   -2.9872  -20.7922   22.0023 H   0  0  0  0  0  0  0  0  0  0  0  0
   -5.9867  -23.1438   25.1129 H   0  0  0  0  0  0  0  0  0  0  0  0
  1  2  1  0
  2  3  1  0
  3  4  2  0
  4  5  1  0
  5  6  1  0
  6  7  1  0
  7  8  2  0
  7  9  1  0
  9 10  1  0
 10 11  1  0
 11 12  1  0
 12 13  1  0
 13 14  2  0
 13 15  1  0
 15 16  2  0
 16 17  1  0
 17 18  2  0
 18 19  1  0
  6 20  2  0
 20 21  1  0
 21 22  2  0
 22 23  1  0
 23  2  2  0
 22  5  1  0
 19 15  1  0
  1 24  1  0
  1 25  1  0
  1 26  1  0
  3 27  1  0
  4 28  1  0
 10 29  1  0
 10 30  1  0
 11 31  1  0
 11 32  1  0
 12 33  1  0
 16 34  1  0
 17 35  1  0
 19 36  1  0
 20 37  1  0
 23 38  1  0
M  END
>  <Energy>  (1284) 
1874.3684942618838

>  <compound_id>  (1284) 
36004

>  <target_id>  (1284) 
1

>  <reference_id>  (1284) 
45

>  <inspiration_ids>  (1284) 
[45, 122]

>  <energy_score>  (1284) 
1865.594450060286

>  <distance_score>  (1284) 
8.441282930427926

>  <path>  (1284) 
/opt/xchem-fragalysis-2/maxwin/BulkDock/SCRATCH/511013/C36004-P45/C36004-P45.minimised.mol

>  <scratch_subdir>  (1284) 
/opt/xchem-fragalysis-2/maxwin/BulkDock/SCRATCH/511013/C36004-P45

>  <fragmenstein_runtime>  (1284) 
17.72679901123047

>  <fragmenstein_outcome>  (1284) 
too moved

>  <fragmenstein_mode>  (1284) 
expansion

>  <fragmenstein_error>  (1284) 


$$$$
C36004-P122
     RDKit          3D

 38 40  0  0  0  0  0  0  0  0999 V2000
   -6.9921  -22.9989   21.5307 C   0  0  0  0  0  0  0  0  0  0  0  0
   -5.5660  -22.7764   21.9161 C   0  0  0  0  0  0  0  0  0  0  0  0
   -4.6698  -24.3068   22.2615 C   0  0  0  0  0  0  0  0  0  0  0  0
   -3.0709  -24.3064   22.6446 C   0  0  0  0  0  0  0  0  0  0  0  0
   -1.9599  -22.3513   22.8198 N   0  0  0  0  0  0  0  0  0  0  0  0
   -2.6695  -20.9116   21.9368 C   0  0  0  0  0  0  0  0  0  0  0  0
   -2.9218  -20.7215   20.2067 C   0  0  0  0  0  0  0  0  0  0  0  0
   -3.7433  -19.9373   19.7292 O   0  0  0  0  0  0  0  0  0  0  0  0
   -2.2143  -21.5838   19.3684 O   0  0  0  0  0  0  0  0  0  0  0  0
   -2.3106  -21.2892   17.9290 C   0  0  0  0  0  0  0  0  0  0  0  0
   -1.0906  -21.8341   17.1272 C   0  0  0  0  0  0  0  0  0  0  0  0
   -0.1568  -20.8594   16.5295 N   0  0  0  0  0  0  0  0  0  0  0  0
   -0.0583  -20.3449   15.1839 C   0  0  0  0  0  0  0  0  0  0  0  0
   -0.7588  -20.5186   14.2307 O   0  0  0  0  0  0  0  0  0  0  0  0
    1.1563  -19.5265   14.9403 C   0  0  0  0  0  0  0  0  0  0  0  0
    2.3508  -19.3171   15.6121 C   0  0  0  0  0  0  0  0  0  0  0  0
    3.1311  -18.4826   14.7819 C   0  0  0  0  0  0  0  0  0  0  0  0
    2.4988  -18.1499   13.6638 N   0  0  0  0  0  0  0  0  0  0  0  0
    1.2912  -18.7310   13.8117 N   0  0  0  0  0  0  0  0  0  0  0  0
   -1.9207  -20.4106   23.1434 C   0  0  0  0  0  0  0  0  0  0  0  0
   -2.8821  -20.5393   23.9695 N   0  0  0  0  0  0  0  0  0  0  0  0
   -3.3008  -20.9816   22.8699 C   0  0  0  0  0  0  0  0  0  0  0  0
   -5.0265  -21.3485   22.0392 C   0  0  0  0  0  0  0  0  0  0  0  0
   -7.0607  -23.6044   20.6269 H   0  0  0  0  0  0  0  0  0  0  0  0
   -7.4892  -22.0479   21.3099 H   0  0  0  0  0  0  0  0  0  0  0  0
   -7.5390  -23.4523   22.3538 H   0  0  0  0  0  0  0  0  0  0  0  0
   -5.2439  -25.2226   22.2042 H   0  0  0  0  0  0  0  0  0  0  0  0
   -2.6882  -25.3607   22.8316 H   0  0  0  0  0  0  0  0  0  0  0  0
   -2.4295  -20.2147   17.7495 H   0  0  0  0  0  0  0  0  0  0  0  0
   -3.2135  -21.8057   17.5848 H   0  0  0  0  0  0  0  0  0  0  0  0
   -0.4895  -22.5026   17.7519 H   0  0  0  0  0  0  0  0  0  0  0  0
   -1.4782  -22.4136   16.2817 H   0  0  0  0  0  0  0  0  0  0  0  0
    0.6598  -20.5689   17.0553 H   0  0  0  0  0  0  0  0  0  0  0  0
    2.6363  -19.7639   16.5532 H   0  0  0  0  0  0  0  0  0  0  0  0
    4.1374  -18.1220   14.9186 H   0  0  0  0  0  0  0  0  0  0  0  0
    0.5935  -18.6031   13.0855 H   0  0  0  0  0  0  0  0  0  0  0  0
   -1.1885  -19.6644   23.2688 H   0  0  0  0  0  0  0  0  0  0  0  0
   -5.6961  -20.4968   21.9040 H   0  0  0  0  0  0  0  0  0  0  0  0
  1  2  1  0
  2  3  1  0
  3  4  2  0
  4  5  1  0
  5  6  1  0
  6  7  1  0
  7  8  2  0
  7  9  1  0
  9 10  1  0
 10 11  1  0
 11 12  1  0
 12 13  1  0
 13 14  2  0
 13 15  1  0
 15 16  2  0
 16 17  1  0
 17 18  2  0
 18 19  1  0
  6 20  2  0
 20 21  1  0
 21 22  2  0
 22 23  1  0
 23  2  2  0
 22  5  1  0
 19 15  1  0
  1 24  1  0
  1 25  1  0
  1 26  1  0
  3 27  1  0
  4 28  1  0
 10 29  1  0
 10 30  1  0
 11 31  1  0
 11 32  1  0
 12 33  1  0
 16 34  1  0
 17 35  1  0
 19 36  1  0
 20 37  1  0
 23 38  1  0
M  END
>  <Energy>  (1285) 
946.99038152368325

>  <compound_id>  (1285) 
36004

>  <target_id>  (1285) 
1

>  <reference_id>  (1285) 
122

>  <inspiration_ids>  (1285) 
[45, 122]

>  <energy_score>  (1285) 
938.2163373220577

>  <distance_score>  (1285) 
13.301022728792992

>  <path>  (1285) 
/opt/xchem-fragalysis-2/maxwin/BulkDock/SCRATCH/511013/C36004-P122/C36004-P122.minimised.mol

>  <scratch_subdir>  (1285) 
/opt/xchem-fragalysis-2/maxwin/BulkDock/SCRATCH/511013/C36004-P122

>  <fragmenstein_runtime>  (1285) 
40.25697183609009

>  <fragmenstein_outcome>  (1285) 
too moved

>  <fragmenstein_mode>  (1285) 
expansion

>  <fragmenstein_error>  (1285) 


$$$$
C36005-P45
     RDKit          3D

 37 40  0  0  0  0  0  0  0  0999 V2000
    0.8619  -21.5294   17.6606 O   0  0  0  0  0  0  0  0  0  0  0  0
    0.1748  -20.6582   17.1966 C   0  0  0  0  0  0  0  0  0  0  0  0
   -1.2833  -20.8393   17.5667 C   0  0  0  0  0  0  0  0  0  0  0  0
   -2.1826  -19.9840   18.1883 C   0  0  0  0  0  0  0  0  0  0  0  0
   -3.2789  -20.7543   18.5603 N   0  0  0  0  0  0  0  0  0  0  0  0
   -4.4658  -20.3951   19.2081 C   0  0  0  0  0  0  0  0  0  0  0  0
   -5.4070  -21.3283   19.4528 C   0  0  0  0  0  0  0  0  0  0  0  0
   -5.1654  -22.7038   19.0396 C   0  0  0  0  0  0  0  0  0  0  0  0
   -4.0172  -23.0483   18.4221 C   0  0  0  0  0  0  0  0  0  0  0  0
   -3.0220  -22.0558   18.1516 C   0  0  0  0  0  0  0  0  0  0  0  0
   -1.8515  -22.1311   17.5572 N   0  0  0  0  0  0  0  0  0  0  0  0
    0.5249  -19.5469   16.3084 N   0  0  0  0  0  0  0  0  0  0  0  0
    0.3541  -19.9655   14.8569 C   0  0  0  0  0  0  0  0  0  0  0  0
    1.1332  -21.2012   14.3510 C   0  0  0  0  0  0  0  0  0  0  0  0
    2.5247  -20.9087   14.2738 O   0  0  0  0  0  0  0  0  0  0  0  0
    2.8973  -20.2735   15.4972 C   0  0  0  0  0  0  0  0  0  0  0  0
    1.9291  -19.0681   15.7725 C   0  0  0  0  0  0  0  0  0  0  0  0
    2.2842  -17.8238   14.8835 C   0  0  0  0  0  0  0  0  0  0  0  0
    3.4528  -17.5846   14.1526 C   0  0  0  0  0  0  0  0  0  0  0  0
    3.2938  -16.3444   13.5268 C   0  0  0  0  0  0  0  0  0  0  0  0
    2.1491  -15.7715   13.8790 N   0  0  0  0  0  0  0  0  0  0  0  0
    1.5606  -16.6669   14.7043 N   0  0  0  0  0  0  0  0  0  0  0  0
   -2.1119  -18.9410   18.4595 H   0  0  0  0  0  0  0  0  0  0  0  0
   -4.5827  -19.3534   19.4760 H   0  0  0  0  0  0  0  0  0  0  0  0
   -6.3410  -21.0844   19.9475 H   0  0  0  0  0  0  0  0  0  0  0  0
   -5.9266  -23.4479   19.2540 H   0  0  0  0  0  0  0  0  0  0  0  0
   -3.8186  -24.0699   18.1185 H   0  0  0  0  0  0  0  0  0  0  0  0
   -0.7015  -20.2757   14.8114 H   0  0  0  0  0  0  0  0  0  0  0  0
    0.3715  -19.1238   14.1510 H   0  0  0  0  0  0  0  0  0  0  0  0
    0.7932  -21.4687   13.3454 H   0  0  0  0  0  0  0  0  0  0  0  0
    0.9824  -22.0754   14.9934 H   0  0  0  0  0  0  0  0  0  0  0  0
    2.8705  -21.0120   16.3051 H   0  0  0  0  0  0  0  0  0  0  0  0
    3.9397  -19.9587   15.4045 H   0  0  0  0  0  0  0  0  0  0  0  0
    2.2978  -18.7084   16.7377 H   0  0  0  0  0  0  0  0  0  0  0  0
    4.2919  -18.2552   14.0343 H   0  0  0  0  0  0  0  0  0  0  0  0
    3.9546  -15.8382   12.8348 H   0  0  0  0  0  0  0  0  0  0  0  0
    0.6480  -16.4248   15.0770 H   0  0  0  0  0  0  0  0  0  0  0  0
  1  2  2  0
  2  3  1  0
  3  4  2  0
  4  5  1  0
  5  6  1  0
  6  7  2  0
  7  8  1  0
  8  9  2  0
  9 10  1  0
 10 11  2  0
  2 12  1  0
 12 13  1  0
 13 14  1  0
 14 15  1  0
 15 16  1  0
 16 17  1  0
 17 18  1  0
 18 19  2  0
 19 20  1  0
 20 21  2  0
 21 22  1  0
 11  3  1  0
 17 12  1  0
 22 18  1  0
 10  5  1  0
  4 23  1  0
  6 24  1  0
  7 25  1  0
  8 26  1  0
  9 27  1  0
 13 28  1  0
 13 29  1  0
 14 30  1  0
 14 31  1  0
 16 32  1  0
 16 33  1  0
 17 34  1  0
 19 35  1  0
 20 36  1  0
 22 37  1  0
M  END
>  <Energy>  (1286) 
187.78726252596618

>  <compound_id>  (1286) 
36005

>  <target_id>  (1286) 
1

>  <reference_id>  (1286) 
45

>  <inspiration_ids>  (1286) 
[45, 122]

>  <energy_score>  (1286) 
64.13433670855329

>  <distance_score>  (1286) 
13.967611817058037

>  <path>  (1286) 
/opt/xchem-fragalysis-2/maxwin/BulkDock/SCRATCH/511013/C36005-P45/C36005-P45.minimised.mol

>  <scratch_subdir>  (1286) 
/opt/xchem-fragalysis-2/maxwin/BulkDock/SCRATCH/511013/C36005-P45

>  <fragmenstein_runtime>  (1286) 
23.588252782821655

>  <fragmenstein_outcome>  (1286) 
too moved

>  <fragmenstein_mode>  (1286) 
expansion

>  <fragmenstein_error>  (1286) 


$$$$
C36005-P122
     RDKit          3D

 37 40  0  0  0  0  0  0  0  0999 V2000
    0.5451  -21.4979   24.1226 O   0  0  0  0  0  0  0  0  0  0  0  0
    0.2096  -21.3956   23.0493 C   0  0  0  0  0  0  0  0  0  0  0  0
   -1.6684  -22.5837   22.7987 C   0  0  0  0  0  0  0  0  0  0  0  0
   -2.8447  -24.4717   22.8341 C   0  0  0  0  0  0  0  0  0  0  0  0
   -4.4767  -24.8685   22.6803 N   0  0  0  0  0  0  0  0  0  0  0  0
   -5.7172  -24.2466   22.8160 C   0  0  0  0  0  0  0  0  0  0  0  0
   -6.3649  -23.8658   21.7014 C   0  0  0  0  0  0  0  0  0  0  0  0
   -5.8060  -24.2314   20.4010 C   0  0  0  0  0  0  0  0  0  0  0  0
   -4.6203  -24.8666   20.2935 C   0  0  0  0  0  0  0  0  0  0  0  0
   -3.8729  -25.1227   21.4829 C   0  0  0  0  0  0  0  0  0  0  0  0
   -2.8851  -24.4137   22.3959 N   0  0  0  0  0  0  0  0  0  0  0  0
    1.3319  -19.8212   22.1281 N   0  0  0  0  0  0  0  0  0  0  0  0
    0.2692  -18.2966   22.2969 C   0  0  0  0  0  0  0  0  0  0  0  0
    0.7249  -18.9102   24.2786 C   0  0  0  0  0  0  0  0  0  0  0  0
    2.2124  -18.3234   24.8390 O   0  0  0  0  0  0  0  0  0  0  0  0
    3.1736  -19.1220   24.3167 C   0  0  0  0  0  0  0  0  0  0  0  0
    3.1283  -18.3583   22.9101 C   0  0  0  0  0  0  0  0  0  0  0  0
    4.1019  -16.0844   22.9445 C   0  0  0  0  0  0  0  0  0  0  0  0
    5.0379  -14.6093   21.5994 C   0  0  0  0  0  0  0  0  0  0  0  0
    6.4387  -13.0081   21.6697 C   0  0  0  0  0  0  0  0  0  0  0  0
    6.5873  -13.0202   23.7366 N   0  0  0  0  0  0  0  0  0  0  0  0
    5.2634  -14.7790   23.9873 N   0  0  0  0  0  0  0  0  0  0  0  0
   -2.5365  -25.5682   23.5571 H   0  0  0  0  0  0  0  0  0  0  0  0
   -6.0391  -24.0333   23.8225 H   0  0  0  0  0  0  0  0  0  0  0  0
   -7.3030  -23.3235   21.7370 H   0  0  0  0  0  0  0  0  0  0  0  0
   -6.3848  -23.9869   19.5155 H   0  0  0  0  0  0  0  0  0  0  0  0
   -4.1950  -25.1388   19.3359 H   0  0  0  0  0  0  0  0  0  0  0  0
    0.5478  -17.6843   21.4033 H   0  0  0  0  0  0  0  0  0  0  0  0
   -0.7861  -18.5059   22.0210 H   0  0  0  0  0  0  0  0  0  0  0  0
    1.1431  -19.8640   24.2501 H   0  0  0  0  0  0  0  0  0  0  0  0
    0.2310  -18.6710   25.2214 H   0  0  0  0  0  0  0  0  0  0  0  0
    2.9639  -20.1870   24.1375 H   0  0  0  0  0  0  0  0  0  0  0  0
    3.8954  -19.1432   25.1234 H   0  0  0  0  0  0  0  0  0  0  0  0
    3.8956  -19.1310   22.4469 H   0  0  0  0  0  0  0  0  0  0  0  0
    4.1684  -13.6853   21.1427 H   0  0  0  0  0  0  0  0  0  0  0  0
    6.4960  -12.0609   21.1042 H   0  0  0  0  0  0  0  0  0  0  0  0
    5.1554  -14.9968   24.9602 H   0  0  0  0  0  0  0  0  0  0  0  0
  1  2  2  0
  2  3  1  0
  3  4  2  0
  4  5  1  0
  5  6  1  0
  6  7  2  0
  7  8  1  0
  8  9  2  0
  9 10  1  0
 10 11  2  0
  2 12  1  0
 12 13  1  0
 13 14  1  0
 14 15  1  0
 15 16  1  0
 16 17  1  0
 17 18  1  0
 18 19  2  0
 19 20  1  0
 20 21  2  0
 21 22  1  0
 11  3  1  0
 17 12  1  0
 22 18  1  0
 10  5  1  0
  4 23  1  0
  6 24  1  0
  7 25  1  0
  8 26  1  0
  9 27  1  0
 13 28  1  0
 13 29  1  0
 14 30  1  0
 14 31  1  0
 16 32  1  0
 16 33  1  0
 17 34  1  0
 19 35  1  0
 20 36  1  0
 22 37  1  0
M  END
>  <Energy>  (1287) 
4476.8533680006358

>  <compound_id>  (1287) 
36005

>  <target_id>  (1287) 
1

>  <reference_id>  (1287) 
122

>  <inspiration_ids>  (1287) 
[45, 122]

>  <energy_score>  (1287) 
4353.200442183235

>  <distance_score>  (1287) 
11.561076914959683

>  <path>  (1287) 
/opt/xchem-fragalysis-2/maxwin/BulkDock/SCRATCH/511013/C36005-P122/C36005-P122.minimised.mol

>  <scratch_subdir>  (1287) 
/opt/xchem-fragalysis-2/maxwin/BulkDock/SCRATCH/511013/C36005-P122

>  <fragmenstein_runtime>  (1287) 
21.96927237510681

>  <fragmenstein_outcome>  (1287) 
too moved

>  <fragmenstein_mode>  (1287) 
expansion

>  <fragmenstein_error>  (1287) 


$$$$
C36006-P45
     RDKit          3D

 41 43  0  0  0  0  0  0  0  0999 V2000
   -5.8558  -18.3765   17.3135 C   0  0  0  0  0  0  0  0  0  0  0  0
   -4.6393  -18.5121   18.1880 C   0  0  0  0  0  0  0  0  0  0  0  0
   -4.3066  -19.7342   18.6553 C   0  0  0  0  0  0  0  0  0  0  0  0
   -3.0782  -19.9151   19.3799 C   0  0  0  0  0  0  0  0  0  0  0  0
   -2.3663  -18.8262   19.7350 C   0  0  0  0  0  0  0  0  0  0  0  0
   -2.6808  -17.5622   19.3522 N   0  0  0  0  0  0  0  0  0  0  0  0
   -1.8947  -16.3527   19.5483 C   0  0  0  0  0  0  0  0  0  0  0  0
   -1.9429  -15.5449   18.3769 C   0  0  0  0  0  0  0  0  0  0  0  0
   -1.2801  -13.9182   17.5229 C   0  0  0  0  0  0  0  0  0  0  0  0
    0.6840  -13.7626   17.0724 C   0  0  0  0  0  0  0  0  0  0  0  0
    1.7041  -12.7649   15.7567 N   0  0  0  0  0  0  0  0  0  0  0  0
    3.1050  -11.6887   15.9484 C   0  0  0  0  0  0  0  0  0  0  0  0
    3.6047  -11.3333   16.9799 O   0  0  0  0  0  0  0  0  0  0  0  0
    3.7697  -11.2947   14.4328 C   0  0  0  0  0  0  0  0  0  0  0  0
    3.7779   -9.8485   13.8232 C   0  0  0  0  0  0  0  0  0  0  0  0
    4.2569   -8.7289   14.6770 C   0  0  0  0  0  0  0  0  0  0  0  0
    3.6305   -7.8892   15.5789 C   0  0  0  0  0  0  0  0  0  0  0  0
    4.6624   -7.2481   16.2647 C   0  0  0  0  0  0  0  0  0  0  0  0
    5.8394   -7.4995   15.7006 N   0  0  0  0  0  0  0  0  0  0  0  0
    5.5603   -8.3321   14.6763 N   0  0  0  0  0  0  0  0  0  0  0  0
   -3.2689  -16.4764   17.6581 N   0  0  0  0  0  0  0  0  0  0  0  0
   -3.6992  -17.4432   18.4379 C   0  0  0  0  0  0  0  0  0  0  0  0
   -6.7165  -18.0533   17.9061 H   0  0  0  0  0  0  0  0  0  0  0  0
   -6.1190  -19.3243   16.8307 H   0  0  0  0  0  0  0  0  0  0  0  0
   -5.6824  -17.6462   16.5163 H   0  0  0  0  0  0  0  0  0  0  0  0
   -4.9225  -20.6094   18.4742 H   0  0  0  0  0  0  0  0  0  0  0  0
   -2.7934  -20.9175   19.6664 H   0  0  0  0  0  0  0  0  0  0  0  0
   -1.5100  -18.7881   20.3689 H   0  0  0  0  0  0  0  0  0  0  0  0
   -1.1743  -16.3801   20.3421 H   0  0  0  0  0  0  0  0  0  0  0  0
   -1.8181  -14.0346   16.5683 H   0  0  0  0  0  0  0  0  0  0  0  0
   -1.6550  -13.0448   18.0643 H   0  0  0  0  0  0  0  0  0  0  0  0
    0.6622  -14.5825   16.3801 H   0  0  0  0  0  0  0  0  0  0  0  0
    1.3983  -14.0763   17.8310 H   0  0  0  0  0  0  0  0  0  0  0  0
    1.4527  -12.8230   14.7872 H   0  0  0  0  0  0  0  0  0  0  0  0
    4.8099  -11.6322   14.4656 H   0  0  0  0  0  0  0  0  0  0  0  0
    3.3025  -11.9649   13.6963 H   0  0  0  0  0  0  0  0  0  0  0  0
    4.3991   -9.8891   12.9174 H   0  0  0  0  0  0  0  0  0  0  0  0
    2.7762   -9.6025   13.4526 H   0  0  0  0  0  0  0  0  0  0  0  0
    2.5779   -7.8279   15.8100 H   0  0  0  0  0  0  0  0  0  0  0  0
    4.6009   -6.5821   17.1155 H   0  0  0  0  0  0  0  0  0  0  0  0
    6.3295   -8.6929   14.1117 H   0  0  0  0  0  0  0  0  0  0  0  0
  1  2  1  0
  2  3  2  0
  3  4  1  0
  4  5  2  0
  5  6  1  0
  6  7  1  0
  7  8  2  0
  8  9  1  0
  9 10  1  0
 10 11  1  0
 11 12  1  0
 12 13  2  0
 12 14  1  0
 14 15  1  0
 15 16  1  0
 16 17  2  0
 17 18  1  0
 18 19  2  0
 19 20  1  0
  8 21  1  0
 21 22  2  0
 22  2  1  0
 22  6  1  0
 20 16  1  0
  1 23  1  0
  1 24  1  0
  1 25  1  0
  3 26  1  0
  4 27  1  0
  5 28  1  0
  7 29  1  0
  9 30  1  0
  9 31  1  0
 10 32  1  0
 10 33  1  0
 11 34  1  0
 14 35  1  0
 14 36  1  0
 15 37  1  0
 15 38  1  0
 17 39  1  0
 18 40  1  0
 20 41  1  0
M  END
>  <Energy>  (1288) 
328.66477508822368

>  <compound_id>  (1288) 
36006

>  <target_id>  (1288) 
1

>  <reference_id>  (1288) 
45

>  <inspiration_ids>  (1288) 
[45, 122]

>  <energy_score>  (1288) 
284.22665322433556

>  <distance_score>  (1288) 
11.809108766466883

>  <path>  (1288) 
/opt/xchem-fragalysis-2/maxwin/BulkDock/SCRATCH/511013/C36006-P45/C36006-P45.minimised.mol

>  <scratch_subdir>  (1288) 
/opt/xchem-fragalysis-2/maxwin/BulkDock/SCRATCH/511013/C36006-P45

>  <fragmenstein_runtime>  (1288) 
21.75320339202881

>  <fragmenstein_outcome>  (1288) 
too moved

>  <fragmenstein_mode>  (1288) 
expansion

>  <fragmenstein_error>  (1288) 


$$$$
C36006-P122
     RDKit          3D

 41 43  0  0  0  0  0  0  0  0999 V2000
   -2.7948  -27.9727   28.2757 C   0  0  0  0  0  0  0  0  0  0  0  0
   -3.0793  -26.8494   27.3254 C   0  0  0  0  0  0  0  0  0  0  0  0
   -3.5479  -28.0282   26.1947 C   0  0  0  0  0  0  0  0  0  0  0  0
   -3.1482  -27.1962   24.5225 C   0  0  0  0  0  0  0  0  0  0  0  0
   -2.1631  -26.1401   24.4896 C   0  0  0  0  0  0  0  0  0  0  0  0
   -1.4670  -25.1881   25.7925 N   0  0  0  0  0  0  0  0  0  0  0  0
    0.0399  -23.9465   25.8597 C   0  0  0  0  0  0  0  0  0  0  0  0
    0.2202  -23.1737   27.5285 C   0  0  0  0  0  0  0  0  0  0  0  0
    0.9349  -21.9370   28.1799 C   0  0  0  0  0  0  0  0  0  0  0  0
    2.4408  -21.5792   27.8016 C   0  0  0  0  0  0  0  0  0  0  0  0
    2.9067  -20.1213   27.6954 N   0  0  0  0  0  0  0  0  0  0  0  0
    4.2092  -19.5476   27.2786 C   0  0  0  0  0  0  0  0  0  0  0  0
    5.1957  -20.0819   26.8451 O   0  0  0  0  0  0  0  0  0  0  0  0
    4.3144  -17.9258   27.3957 C   0  0  0  0  0  0  0  0  0  0  0  0
    5.7657  -17.3329   27.0408 C   0  0  0  0  0  0  0  0  0  0  0  0
    6.1526  -15.8537   27.0347 C   0  0  0  0  0  0  0  0  0  0  0  0
    7.3897  -15.2980   27.3604 C   0  0  0  0  0  0  0  0  0  0  0  0
    7.3305  -13.9388   27.0184 C   0  0  0  0  0  0  0  0  0  0  0  0
    6.1624  -13.6440   26.4517 N   0  0  0  0  0  0  0  0  0  0  0  0
    5.4325  -14.7883   26.5605 N   0  0  0  0  0  0  0  0  0  0  0  0
   -1.6845  -23.6687   27.6972 N   0  0  0  0  0  0  0  0  0  0  0  0
   -2.3459  -25.1633   26.9993 C   0  0  0  0  0  0  0  0  0  0  0  0
   -2.2351  -28.1769   29.1604 H   0  0  0  0  0  0  0  0  0  0  0  0
   -2.0410  -28.5857   27.8867 H   0  0  0  0  0  0  0  0  0  0  0  0
   -3.7586  -28.3597   28.5200 H   0  0  0  0  0  0  0  0  0  0  0  0
   -4.5032  -28.4956   26.2507 H   0  0  0  0  0  0  0  0  0  0  0  0
   -3.4406  -27.7424   23.6493 H   0  0  0  0  0  0  0  0  0  0  0  0
   -1.6142  -26.1069   23.5580 H   0  0  0  0  0  0  0  0  0  0  0  0
    0.6484  -23.8684   24.9549 H   0  0  0  0  0  0  0  0  0  0  0  0
    0.9214  -22.1411   29.2593 H   0  0  0  0  0  0  0  0  0  0  0  0
    0.3132  -21.0445   28.0615 H   0  0  0  0  0  0  0  0  0  0  0  0
    3.0887  -22.0132   28.5735 H   0  0  0  0  0  0  0  0  0  0  0  0
    2.7427  -22.0717   26.8738 H   0  0  0  0  0  0  0  0  0  0  0  0
    2.3306  -19.3859   28.0909 H   0  0  0  0  0  0  0  0  0  0  0  0
    3.5783  -17.5187   26.7047 H   0  0  0  0  0  0  0  0  0  0  0  0
    4.0448  -17.6399   28.4174 H   0  0  0  0  0  0  0  0  0  0  0  0
    6.4331  -17.8038   27.7793 H   0  0  0  0  0  0  0  0  0  0  0  0
    6.1142  -17.7393   26.0903 H   0  0  0  0  0  0  0  0  0  0  0  0
    8.2391  -15.8341   27.7620 H   0  0  0  0  0  0  0  0  0  0  0  0
    8.0933  -13.1764   27.1100 H   0  0  0  0  0  0  0  0  0  0  0  0
    4.4812  -14.7665   26.2104 H   0  0  0  0  0  0  0  0  0  0  0  0
  1  2  1  0
  2  3  2  0
  3  4  1  0
  4  5  2  0
  5  6  1  0
  6  7  1  0
  7  8  2  0
  8  9  1  0
  9 10  1  0
 10 11  1  0
 11 12  1  0
 12 13  2  0
 12 14  1  0
 14 15  1  0
 15 16  1  0
 16 17  2  0
 17 18  1  0
 18 19  2  0
 19 20  1  0
  8 21  1  0
 21 22  2  0
 22  2  1  0
 22  6  1  0
 20 16  1  0
  1 23  1  0
  1 24  1  0
  1 25  1  0
  3 26  1  0
  4 27  1  0
  5 28  1  0
  7 29  1  0
  9 30  1  0
  9 31  1  0
 10 32  1  0
 10 33  1  0
 11 34  1  0
 14 35  1  0
 14 36  1  0
 15 37  1  0
 15 38  1  0
 17 39  1  0
 18 40  1  0
 20 41  1  0
M  END
>  <Energy>  (1289) 
726.03207317340537

>  <compound_id>  (1289) 
36006

>  <target_id>  (1289) 
1

>  <reference_id>  (1289) 
122

>  <inspiration_ids>  (1289) 
[45, 122]

>  <energy_score>  (1289) 
681.5939513095177

>  <distance_score>  (1289) 
11.715354502949753

>  <path>  (1289) 
/opt/xchem-fragalysis-2/maxwin/BulkDock/SCRATCH/511013/C36006-P122/C36006-P122.minimised.mol

>  <scratch_subdir>  (1289) 
/opt/xchem-fragalysis-2/maxwin/BulkDock/SCRATCH/511013/C36006-P122

>  <fragmenstein_runtime>  (1289) 
26.945956468582153

>  <fragmenstein_outcome>  (1289) 
too moved

>  <fragmenstein_mode>  (1289) 
expansion

>  <fragmenstein_error>  (1289) 


$$$$
C36007-P45
     RDKit          3D

 27 30  0  0  0  0  0  0  0  0999 V2000
    1.9799  -19.8913   21.4335 C   0  0  0  0  0  0  0  0  0  0  0  0
    0.8608  -18.6767   21.2717 C   0  0  0  0  0  0  0  0  0  0  0  0
   -0.3241  -18.1396   21.4006 C   0  0  0  0  0  0  0  0  0  0  0  0
    0.1763  -16.5619   20.6751 C   0  0  0  0  0  0  0  0  0  0  0  0
    0.7908  -15.6218   21.4130 N   0  0  0  0  0  0  0  0  0  0  0  0
    2.1805  -14.9787   20.6156 O   0  0  0  0  0  0  0  0  0  0  0  0
    2.2391  -15.1381   19.0363 C   0  0  0  0  0  0  0  0  0  0  0  0
    3.0497  -14.5006   17.9666 C   0  0  0  0  0  0  0  0  0  0  0  0
    4.2352  -13.7489   18.0181 C   0  0  0  0  0  0  0  0  0  0  0  0
    4.4632  -13.2376   16.7328 C   0  0  0  0  0  0  0  0  0  0  0  0
    3.5094  -13.6289   15.8929 N   0  0  0  0  0  0  0  0  0  0  0  0
    2.7350  -14.4577   16.6286 N   0  0  0  0  0  0  0  0  0  0  0  0
    0.9348  -16.1456   19.2910 N   0  0  0  0  0  0  0  0  0  0  0  0
   -0.6631  -19.1887   22.8228 C   0  0  0  0  0  0  0  0  0  0  0  0
   -1.7449  -19.8269   23.0348 N   0  0  0  0  0  0  0  0  0  0  0  0
   -1.6779  -20.9792   23.5843 C   0  0  0  0  0  0  0  0  0  0  0  0
   -0.4996  -21.6072   23.4792 C   0  0  0  0  0  0  0  0  0  0  0  0
    0.3313  -20.5238   23.3281 N   0  0  0  0  0  0  0  0  0  0  0  0
    1.6711  -20.8456   22.3532 C   0  0  0  0  0  0  0  0  0  0  0  0
    2.5605  -20.1128   20.5403 H   0  0  0  0  0  0  0  0  0  0  0  0
    1.3545  -17.8355   21.3599 H   0  0  0  0  0  0  0  0  0  0  0  0
    4.8340  -13.5338   18.8919 H   0  0  0  0  0  0  0  0  0  0  0  0
    5.2564  -12.5888   16.3824 H   0  0  0  0  0  0  0  0  0  0  0  0
    1.9548  -14.9010   16.1555 H   0  0  0  0  0  0  0  0  0  0  0  0
   -2.5627  -21.0975   24.1276 H   0  0  0  0  0  0  0  0  0  0  0  0
    0.0008  -22.5110   23.7611 H   0  0  0  0  0  0  0  0  0  0  0  0
    1.8911  -21.9137   22.2747 H   0  0  0  0  0  0  0  0  0  0  0  0
  1  2  1  0
  2  3  2  0
  3  4  1  0
  4  5  2  0
  5  6  1  0
  6  7  1  0
  7  8  1  0
  8  9  2  0
  9 10  1  0
 10 11  2  0
 11 12  1  0
  7 13  2  0
  3 14  1  0
 14 15  2  0
 15 16  1  0
 16 17  2  0
 17 18  1  0
 18 19  1  0
 19  1  2  0
 13  4  1  0
 18 14  1  0
 12  8  1  0
  1 20  1  0
  2 21  1  0
  9 22  1  0
 10 23  1  0
 12 24  1  0
 16 25  1  0
 17 26  1  0
 19 27  1  0
M  END
>  <Energy>  (1290) 
568.71002591617389

>  <compound_id>  (1290) 
36007

>  <target_id>  (1290) 
1

>  <reference_id>  (1290) 
45

>  <inspiration_ids>  (1290) 
[45, 122]

>  <energy_score>  (1290) 
501.3811740540566

>  <distance_score>  (1290) 
12.897758771407881

>  <path>  (1290) 
/opt/xchem-fragalysis-2/maxwin/BulkDock/SCRATCH/511013/C36007-P45/C36007-P45.minimised.mol

>  <scratch_subdir>  (1290) 
/opt/xchem-fragalysis-2/maxwin/BulkDock/SCRATCH/511013/C36007-P45

>  <fragmenstein_runtime>  (1290) 
9.809699058532715

>  <fragmenstein_outcome>  (1290) 
too moved

>  <fragmenstein_mode>  (1290) 
expansion

>  <fragmenstein_error>  (1290) 


$$$$
C36007-P122
     RDKit          3D

 27 30  0  0  0  0  0  0  0  0999 V2000
    4.9967  -19.6311   28.0645 C   0  0  0  0  0  0  0  0  0  0  0  0
    5.3092  -18.2995   27.5520 C   0  0  0  0  0  0  0  0  0  0  0  0
    4.5613  -17.1862   27.7963 C   0  0  0  0  0  0  0  0  0  0  0  0
    5.1231  -15.8336   27.4952 C   0  0  0  0  0  0  0  0  0  0  0  0
    4.9032  -14.7438   28.2455 N   0  0  0  0  0  0  0  0  0  0  0  0
    5.7000  -13.7517   27.6875 O   0  0  0  0  0  0  0  0  0  0  0  0
    6.3798  -14.2776   26.6122 C   0  0  0  0  0  0  0  0  0  0  0  0
    7.2763  -13.4517   25.8070 C   0  0  0  0  0  0  0  0  0  0  0  0
    7.4565  -12.0733   25.7654 C   0  0  0  0  0  0  0  0  0  0  0  0
    8.3989  -11.8313   24.7429 C   0  0  0  0  0  0  0  0  0  0  0  0
    8.8212  -12.9663   24.1842 N   0  0  0  0  0  0  0  0  0  0  0  0
    8.1547  -13.9261   24.8686 N   0  0  0  0  0  0  0  0  0  0  0  0
    6.0913  -15.5783   26.4763 N   0  0  0  0  0  0  0  0  0  0  0  0
    3.2921  -17.4350   28.5060 C   0  0  0  0  0  0  0  0  0  0  0  0
    2.2272  -16.6830   28.7352 N   0  0  0  0  0  0  0  0  0  0  0  0
    1.3389  -17.4524   29.4494 C   0  0  0  0  0  0  0  0  0  0  0  0
    1.8624  -18.6949   29.6948 C   0  0  0  0  0  0  0  0  0  0  0  0
    3.0791  -18.7084   29.0542 N   0  0  0  0  0  0  0  0  0  0  0  0
    3.9361  -19.7871   28.8673 C   0  0  0  0  0  0  0  0  0  0  0  0
    5.6788  -20.4481   27.8511 H   0  0  0  0  0  0  0  0  0  0  0  0
    6.2823  -18.2029   27.0727 H   0  0  0  0  0  0  0  0  0  0  0  0
    6.9475  -11.3409   26.3762 H   0  0  0  0  0  0  0  0  0  0  0  0
    8.7893  -10.8856   24.3882 H   0  0  0  0  0  0  0  0  0  0  0  0
    8.3305  -14.8968   24.6336 H   0  0  0  0  0  0  0  0  0  0  0  0
    0.3763  -17.0599   29.7522 H   0  0  0  0  0  0  0  0  0  0  0  0
    1.4683  -19.5599   30.2072 H   0  0  0  0  0  0  0  0  0  0  0  0
    3.6662  -20.7318   29.3227 H   0  0  0  0  0  0  0  0  0  0  0  0
  1  2  1  0
  2  3  2  0
  3  4  1  0
  4  5  2  0
  5  6  1  0
  6  7  1  0
  7  8  1  0
  8  9  2  0
  9 10  1  0
 10 11  2  0
 11 12  1  0
  7 13  2  0
  3 14  1  0
 14 15  2  0
 15 16  1  0
 16 17  2  0
 17 18  1  0
 18 19  1  0
 19  1  2  0
 13  4  1  0
 18 14  1  0
 12  8  1  0
  1 20  1  0
  2 21  1  0
  9 22  1  0
 10 23  1  0
 12 24  1  0
 16 25  1  0
 17 26  1  0
 19 27  1  0
M  END
>  <Energy>  (1291) 
48.962842090511934

>  <compound_id>  (1291) 
36007

>  <target_id>  (1291) 
1

>  <reference_id>  (1291) 
122

>  <inspiration_ids>  (1291) 
[45, 122]

>  <energy_score>  (1291) 
-18.3660097715956

>  <distance_score>  (1291) 
14.483433224599016

>  <path>  (1291) 
/opt/xchem-fragalysis-2/maxwin/BulkDock/SCRATCH/511013/C36007-P122/C36007-P122.minimised.mol

>  <scratch_subdir>  (1291) 
/opt/xchem-fragalysis-2/maxwin/BulkDock/SCRATCH/511013/C36007-P122

>  <fragmenstein_runtime>  (1291) 
15.601474285125732

>  <fragmenstein_outcome>  (1291) 
too moved

>  <fragmenstein_mode>  (1291) 
expansion

>  <fragmenstein_error>  (1291) 


$$$$
C36008-P45
     RDKit          3D

 35 37  0  0  0  0  0  0  0  0999 V2000
    4.4504  -15.2138   26.3436 O   0  0  0  0  0  0  0  0  0  0  0  0
    3.9596  -16.0218   27.1434 C   0  0  0  0  0  0  0  0  0  0  0  0
    4.2837  -15.6000   28.5779 C   0  0  0  0  0  0  0  0  0  0  0  0
    5.7123  -14.8336   28.7328 C   0  0  0  0  0  0  0  0  0  0  0  0
    6.2886  -13.6728   27.9102 C   0  0  0  0  0  0  0  0  0  0  0  0
    6.3189  -12.2942   28.0678 C   0  0  0  0  0  0  0  0  0  0  0  0
    7.1526  -11.7937   27.0392 C   0  0  0  0  0  0  0  0  0  0  0  0
    7.6573  -12.7744   26.2920 N   0  0  0  0  0  0  0  0  0  0  0  0
    7.2083  -13.8903   26.9110 N   0  0  0  0  0  0  0  0  0  0  0  0
    2.9922  -17.3823   26.8557 N   0  0  0  0  0  0  0  0  0  0  0  0
    2.4600  -18.1751   25.2520 C   0  0  0  0  0  0  0  0  0  0  0  0
    0.4889  -18.7930   25.0706 C   0  0  0  0  0  0  0  0  0  0  0  0
    0.4099  -19.7625   23.7177 C   0  0  0  0  0  0  0  0  0  0  0  0
   -0.4294  -21.0772   23.4332 C   0  0  0  0  0  0  0  0  0  0  0  0
   -1.6606  -20.7057   23.3688 C   0  0  0  0  0  0  0  0  0  0  0  0
   -2.1864  -20.1858   24.4991 N   0  0  0  0  0  0  0  0  0  0  0  0
   -3.6515  -20.3527   24.5285 C   0  0  0  0  0  0  0  0  0  0  0  0
   -4.1685  -20.2661   25.6918 C   0  0  0  0  0  0  0  0  0  0  0  0
   -2.6001  -19.4090   26.4940 N   0  0  0  0  0  0  0  0  0  0  0  0
   -1.4866  -18.8297   25.6719 C   0  0  0  0  0  0  0  0  0  0  0  0
    3.4896  -14.9186   28.9022 H   0  0  0  0  0  0  0  0  0  0  0  0
    4.2882  -16.4713   29.2355 H   0  0  0  0  0  0  0  0  0  0  0  0
    5.7272  -14.4884   29.7771 H   0  0  0  0  0  0  0  0  0  0  0  0
    6.4699  -15.6298   28.6989 H   0  0  0  0  0  0  0  0  0  0  0  0
    5.8064  -11.7271   28.8312 H   0  0  0  0  0  0  0  0  0  0  0  0
    7.4087  -10.7669   26.8151 H   0  0  0  0  0  0  0  0  0  0  0  0
    7.5388  -14.7912   26.5765 H   0  0  0  0  0  0  0  0  0  0  0  0
    2.8301  -17.8689   27.7173 H   0  0  0  0  0  0  0  0  0  0  0  0
    3.1431  -19.0582   25.2003 H   0  0  0  0  0  0  0  0  0  0  0  0
    2.9779  -17.7560   24.4048 H   0  0  0  0  0  0  0  0  0  0  0  0
    1.1716  -20.0984   23.0044 H   0  0  0  0  0  0  0  0  0  0  0  0
    0.0045  -21.9676   23.0294 H   0  0  0  0  0  0  0  0  0  0  0  0
   -2.3568  -21.0405   22.6755 H   0  0  0  0  0  0  0  0  0  0  0  0
   -4.0806  -19.4179   24.4879 H   0  0  0  0  0  0  0  0  0  0  0  0
   -5.1356  -20.2653   26.1737 H   0  0  0  0  0  0  0  0  0  0  0  0
  1  2  2  0
  2  3  1  0
  3  4  1  0
  4  5  1  0
  5  6  2  0
  6  7  1  0
  7  8  2  0
  8  9  1  0
  2 10  1  0
 10 11  1  0
 11 12  1  0
 12 13  2  0
 13 14  1  0
 14 15  2  0
 15 16  1  0
 16 17  1  0
 17 18  2  0
 18 19  1  0
 19 20  2  0
  9  5  1  0
 20 12  1  0
 20 16  1  0
  3 21  1  0
  3 22  1  0
  4 23  1  0
  4 24  1  0
  6 25  1  0
  7 26  1  0
  9 27  1  0
 10 28  1  0
 11 29  1  0
 11 30  1  0
 13 31  1  0
 14 32  1  0
 15 33  1  0
 17 34  1  0
 18 35  1  0
M  END
>  <Energy>  (1292) 
780.18467603086651

>  <compound_id>  (1292) 
36008

>  <target_id>  (1292) 
1

>  <reference_id>  (1292) 
45

>  <inspiration_ids>  (1292) 
[45, 122]

>  <energy_score>  (1292) 
746.4538406637188

>  <distance_score>  (1292) 
13.013587765810781

>  <path>  (1292) 
/opt/xchem-fragalysis-2/maxwin/BulkDock/SCRATCH/511013/C36008-P45/C36008-P45.minimised.mol

>  <scratch_subdir>  (1292) 
/opt/xchem-fragalysis-2/maxwin/BulkDock/SCRATCH/511013/C36008-P45

>  <fragmenstein_runtime>  (1292) 
15.34279465675354

>  <fragmenstein_outcome>  (1292) 
too moved

>  <fragmenstein_mode>  (1292) 
expansion

>  <fragmenstein_error>  (1292) 


$$$$
C36008-P122
     RDKit          3D

 35 37  0  0  0  0  0  0  0  0999 V2000
    1.3641  -20.5769   13.6083 O   0  0  0  0  0  0  0  0  0  0  0  0
    1.7839  -20.7553   14.7214 C   0  0  0  0  0  0  0  0  0  0  0  0
    2.8552  -19.6551   15.2207 C   0  0  0  0  0  0  0  0  0  0  0  0
    3.1511  -18.4778   14.1583 C   0  0  0  0  0  0  0  0  0  0  0  0
    4.1536  -17.3459   14.4195 C   0  0  0  0  0  0  0  0  0  0  0  0
    3.9568  -16.0034   14.7116 C   0  0  0  0  0  0  0  0  0  0  0  0
    5.2308  -15.3986   14.6966 C   0  0  0  0  0  0  0  0  0  0  0  0
    6.1863  -16.2785   14.3921 N   0  0  0  0  0  0  0  0  0  0  0  0
    5.5010  -17.4142   14.1421 N   0  0  0  0  0  0  0  0  0  0  0  0
    1.4507  -21.7978   15.7208 N   0  0  0  0  0  0  0  0  0  0  0  0
    0.4102  -22.8998   15.6933 C   0  0  0  0  0  0  0  0  0  0  0  0
    0.2684  -23.9656   16.8453 C   0  0  0  0  0  0  0  0  0  0  0  0
    1.3682  -24.4902   17.4397 C   0  0  0  0  0  0  0  0  0  0  0  0
    1.3407  -25.5228   18.4751 C   0  0  0  0  0  0  0  0  0  0  0  0
    0.1718  -26.0451   18.8645 C   0  0  0  0  0  0  0  0  0  0  0  0
   -0.9850  -25.5806   18.2651 N   0  0  0  0  0  0  0  0  0  0  0  0
   -2.2825  -25.9652   18.5087 C   0  0  0  0  0  0  0  0  0  0  0  0
   -3.0545  -25.1781   17.6948 C   0  0  0  0  0  0  0  0  0  0  0  0
   -2.2683  -24.3341   16.9436 N   0  0  0  0  0  0  0  0  0  0  0  0
   -1.0104  -24.5730   17.2841 C   0  0  0  0  0  0  0  0  0  0  0  0
    2.4490  -19.2151   16.1355 H   0  0  0  0  0  0  0  0  0  0  0  0
    3.7872  -20.1833   15.4435 H   0  0  0  0  0  0  0  0  0  0  0  0
    3.4564  -18.9653   13.2221 H   0  0  0  0  0  0  0  0  0  0  0  0
    2.1834  -18.0063   13.9373 H   0  0  0  0  0  0  0  0  0  0  0  0
    3.0044  -15.5267   14.9010 H   0  0  0  0  0  0  0  0  0  0  0  0
    5.4900  -14.3673   14.8977 H   0  0  0  0  0  0  0  0  0  0  0  0
    6.0153  -18.2053   13.7705 H   0  0  0  0  0  0  0  0  0  0  0  0
    1.9379  -21.5942   16.5901 H   0  0  0  0  0  0  0  0  0  0  0  0
   -0.5436  -22.3723   15.5849 H   0  0  0  0  0  0  0  0  0  0  0  0
    0.5637  -23.4336   14.7477 H   0  0  0  0  0  0  0  0  0  0  0  0
    2.3558  -24.1500   17.1372 H   0  0  0  0  0  0  0  0  0  0  0  0
    2.2805  -25.8496   18.9048 H   0  0  0  0  0  0  0  0  0  0  0  0
    0.0778  -26.8069   19.6266 H   0  0  0  0  0  0  0  0  0  0  0  0
   -2.5277  -26.7284   19.2317 H   0  0  0  0  0  0  0  0  0  0  0  0
   -4.1330  -25.1754   17.5984 H   0  0  0  0  0  0  0  0  0  0  0  0
  1  2  2  0
  2  3  1  0
  3  4  1  0
  4  5  1  0
  5  6  2  0
  6  7  1  0
  7  8  2  0
  8  9  1  0
  2 10  1  0
 10 11  1  0
 11 12  1  0
 12 13  2  0
 13 14  1  0
 14 15  2  0
 15 16  1  0
 16 17  1  0
 17 18  2  0
 18 19  1  0
 19 20  2  0
  9  5  1  0
 20 12  1  0
 20 16  1  0
  3 21  1  0
  3 22  1  0
  4 23  1  0
  4 24  1  0
  6 25  1  0
  7 26  1  0
  9 27  1  0
 10 28  1  0
 11 29  1  0
 11 30  1  0
 13 31  1  0
 14 32  1  0
 15 33  1  0
 17 34  1  0
 18 35  1  0
M  END
>  <Energy>  (1293) 
33.255732306576327

>  <compound_id>  (1293) 
36008

>  <target_id>  (1293) 
1

>  <reference_id>  (1293) 
122

>  <inspiration_ids>  (1293) 
[45, 122]

>  <energy_score>  (1293) 
-0.475103060548804

>  <distance_score>  (1293) 
13.874006591941036

>  <path>  (1293) 
/opt/xchem-fragalysis-2/maxwin/BulkDock/SCRATCH/511013/C36008-P122/C36008-P122.minimised.mol

>  <scratch_subdir>  (1293) 
/opt/xchem-fragalysis-2/maxwin/BulkDock/SCRATCH/511013/C36008-P122

>  <fragmenstein_runtime>  (1293) 
27.818713903427124

>  <fragmenstein_outcome>  (1293) 
too moved

>  <fragmenstein_mode>  (1293) 
expansion

>  <fragmenstein_error>  (1293) 


$$$$
C36000-P45
     RDKit          3D

 36 38  0  0  0  0  0  0  0  0999 V2000
    5.6908  -13.7056   15.7422 O   0  0  0  0  0  0  0  0  0  0  0  0
    5.3923  -13.1049   16.7454 C   0  0  0  0  0  0  0  0  0  0  0  0
    4.6177  -13.5683   17.9848 N   0  0  0  0  0  0  0  0  0  0  0  0
    3.8676  -14.9606   18.2897 C   0  0  0  0  0  0  0  0  0  0  0  0
    2.1479  -15.1996   18.7400 C   0  0  0  0  0  0  0  0  0  0  0  0
    0.8562  -16.1680   19.9870 N   0  0  0  0  0  0  0  0  0  0  0  0
   -0.5252  -17.0609   20.2311 C   0  0  0  0  0  0  0  0  0  0  0  0
   -1.7491  -16.5636   19.5743 N   0  0  0  0  0  0  0  0  0  0  0  0
   -2.6198  -17.5476   19.3964 C   0  0  0  0  0  0  0  0  0  0  0  0
   -3.8684  -17.6810   18.6689 C   0  0  0  0  0  0  0  0  0  0  0  0
   -4.5067  -18.8468   18.4810 C   0  0  0  0  0  0  0  0  0  0  0  0
   -3.9452  -20.0623   18.9566 C   0  0  0  0  0  0  0  0  0  0  0  0
   -2.7913  -19.9760   19.6217 C   0  0  0  0  0  0  0  0  0  0  0  0
   -2.1101  -18.7083   19.9029 N   0  0  0  0  0  0  0  0  0  0  0  0
   -1.0768  -18.2442   20.9760 C   0  0  0  0  0  0  0  0  0  0  0  0
   -1.0658  -19.2079   22.5179 N   0  0  0  0  0  0  0  0  0  0  0  0
   -0.1390  -19.1792   23.2863 O   0  0  0  0  0  0  0  0  0  0  0  0
   -1.8715  -20.1388   22.8498 O   0  0  0  0  0  0  0  0  0  0  0  0
    5.7829  -11.6956   16.6210 C   0  0  0  0  0  0  0  0  0  0  0  0
    6.0819  -11.0898   15.3964 C   0  0  0  0  0  0  0  0  0  0  0  0
    5.9309   -9.7199   15.5958 C   0  0  0  0  0  0  0  0  0  0  0  0
    5.8006   -9.4315   16.8901 N   0  0  0  0  0  0  0  0  0  0  0  0
    5.7736  -10.6455   17.4758 N   0  0  0  0  0  0  0  0  0  0  0  0
    4.6200  -12.8257   18.6792 H   0  0  0  0  0  0  0  0  0  0  0  0
    4.6295  -15.6156   18.6770 H   0  0  0  0  0  0  0  0  0  0  0  0
    3.7967  -15.2275   17.2365 H   0  0  0  0  0  0  0  0  0  0  0  0
    2.4587  -14.5935   19.6003 H   0  0  0  0  0  0  0  0  0  0  0  0
    1.6195  -14.5632   17.9932 H   0  0  0  0  0  0  0  0  0  0  0  0
    1.2357  -16.0440   20.9114 H   0  0  0  0  0  0  0  0  0  0  0  0
   -4.3074  -16.8376   18.1600 H   0  0  0  0  0  0  0  0  0  0  0  0
   -5.4220  -18.8911   17.8981 H   0  0  0  0  0  0  0  0  0  0  0  0
   -4.4505  -21.0043   18.7767 H   0  0  0  0  0  0  0  0  0  0  0  0
   -2.4120  -20.9030   19.9985 H   0  0  0  0  0  0  0  0  0  0  0  0
    6.1948  -11.5997   14.4477 H   0  0  0  0  0  0  0  0  0  0  0  0
    5.9366   -8.9254   14.8610 H   0  0  0  0  0  0  0  0  0  0  0  0
    5.5148  -10.6685   18.4517 H   0  0  0  0  0  0  0  0  0  0  0  0
  1  2  2  0
  2  3  1  0
  3  4  1  0
  4  5  1  0
  5  6  1  0
  6  7  1  0
  7  8  1  0
  8  9  2  0
  9 10  1  0
 10 11  2  0
 11 12  1  0
 12 13  2  0
 13 14  1  0
 14 15  1  0
 15 16  1  0
 16 17  2  0
 16 18  1  0
  2 19  1  0
 19 20  2  0
 20 21  1  0
 21 22  2  0
 22 23  1  0
 15  7  2  0
 23 19  1  0
 14  9  1  0
  3 24  1  0
  4 25  1  0
  4 26  1  0
  5 27  1  0
  5 28  1  0
  6 29  1  0
 10 30  1  0
 11 31  1  0
 12 32  1  0
 13 33  1  0
 20 34  1  0
 21 35  1  0
 23 36  1  0
M  CHG  2  16   1  18  -1
M  END
>  <Energy>  (1294) 
372.99052598461452

>  <compound_id>  (1294) 
36000

>  <target_id>  (1294) 
1

>  <reference_id>  (1294) 
45

>  <inspiration_ids>  (1294) 
[45, 122]

>  <energy_score>  (1294) 
378.466911315479

>  <distance_score>  (1294) 
11.815804780417636

>  <path>  (1294) 
/opt/xchem-fragalysis-2/maxwin/BulkDock/SCRATCH/511013/C36000-P45/C36000-P45.minimised.mol

>  <scratch_subdir>  (1294) 
/opt/xchem-fragalysis-2/maxwin/BulkDock/SCRATCH/511013/C36000-P45

>  <fragmenstein_runtime>  (1294) 
21.75097966194153

>  <fragmenstein_outcome>  (1294) 
too moved

>  <fragmenstein_mode>  (1294) 
expansion

>  <fragmenstein_error>  (1294) 


$$$$
C36000-P122
     RDKit          3D

 36 38  0  0  0  0  0  0  0  0999 V2000
   -1.8475  -12.6581   17.9891 O   0  0  0  0  0  0  0  0  0  0  0  0
   -1.9202  -13.5857   17.2351 C   0  0  0  0  0  0  0  0  0  0  0  0
   -2.0748  -15.0179   17.4975 N   0  0  0  0  0  0  0  0  0  0  0  0
   -2.0966  -15.9398   19.0322 C   0  0  0  0  0  0  0  0  0  0  0  0
   -2.6380  -17.4435   18.9998 C   0  0  0  0  0  0  0  0  0  0  0  0
   -4.0529  -17.7015   18.5690 N   0  0  0  0  0  0  0  0  0  0  0  0
   -4.6816  -18.8639   18.9746 C   0  0  0  0  0  0  0  0  0  0  0  0
   -5.6279  -18.8415   19.9717 N   0  0  0  0  0  0  0  0  0  0  0  0
   -5.9805  -20.0948   20.1971 C   0  0  0  0  0  0  0  0  0  0  0  0
   -6.8078  -20.6681   21.2141 C   0  0  0  0  0  0  0  0  0  0  0  0
   -7.0194  -21.9977   21.2485 C   0  0  0  0  0  0  0  0  0  0  0  0
   -6.4414  -22.8677   20.2442 C   0  0  0  0  0  0  0  0  0  0  0  0
   -5.6656  -22.3401   19.2804 C   0  0  0  0  0  0  0  0  0  0  0  0
   -5.3980  -20.9587   19.2640 N   0  0  0  0  0  0  0  0  0  0  0  0
   -4.6047  -20.1428   18.4691 C   0  0  0  0  0  0  0  0  0  0  0  0
   -3.8743  -20.5871   17.3423 N   0  0  0  0  0  0  0  0  0  0  0  0
   -3.7087  -21.8024   17.1945 O   0  0  0  0  0  0  0  0  0  0  0  0
   -3.4217  -19.7152   16.5833 O   0  0  0  0  0  0  0  0  0  0  0  0
   -1.7346  -13.3093   15.7999 C   0  0  0  0  0  0  0  0  0  0  0  0
   -2.2989  -12.3138   15.0124 C   0  0  0  0  0  0  0  0  0  0  0  0
   -1.5053  -12.2415   13.8463 C   0  0  0  0  0  0  0  0  0  0  0  0
   -0.4990  -13.1165   13.8680 N   0  0  0  0  0  0  0  0  0  0  0  0
   -0.6671  -13.7564   15.0451 N   0  0  0  0  0  0  0  0  0  0  0  0
   -2.1856  -15.5086   16.6138 H   0  0  0  0  0  0  0  0  0  0  0  0
   -2.5974  -15.4760   19.8699 H   0  0  0  0  0  0  0  0  0  0  0  0
   -1.1457  -15.8611   19.5311 H   0  0  0  0  0  0  0  0  0  0  0  0
   -1.9811  -18.0756   18.4061 H   0  0  0  0  0  0  0  0  0  0  0  0
   -2.5312  -17.7872   20.0245 H   0  0  0  0  0  0  0  0  0  0  0  0
   -4.0925  -17.5173   17.5661 H   0  0  0  0  0  0  0  0  0  0  0  0
   -7.2359  -20.0019   21.9552 H   0  0  0  0  0  0  0  0  0  0  0  0
   -7.6358  -22.4461   22.0222 H   0  0  0  0  0  0  0  0  0  0  0  0
   -6.6353  -23.9310   20.2904 H   0  0  0  0  0  0  0  0  0  0  0  0
   -5.2171  -22.9689   18.5222 H   0  0  0  0  0  0  0  0  0  0  0  0
   -3.1250  -11.6745   15.2921 H   0  0  0  0  0  0  0  0  0  0  0  0
   -1.6103  -11.5746   13.0001 H   0  0  0  0  0  0  0  0  0  0  0  0
    0.0674  -14.3877   15.3378 H   0  0  0  0  0  0  0  0  0  0  0  0
  1  2  2  0
  2  3  1  0
  3  4  1  0
  4  5  1  0
  5  6  1  0
  6  7  1  0
  7  8  1  0
  8  9  2  0
  9 10  1  0
 10 11  2  0
 11 12  1  0
 12 13  2  0
 13 14  1  0
 14 15  1  0
 15 16  1  0
 16 17  2  0
 16 18  1  0
  2 19  1  0
 19 20  2  0
 20 21  1  0
 21 22  2  0
 22 23  1  0
 15  7  2  0
 23 19  1  0
 14  9  1  0
  3 24  1  0
  4 25  1  0
  4 26  1  0
  5 27  1  0
  5 28  1  0
  6 29  1  0
 10 30  1  0
 11 31  1  0
 12 32  1  0
 13 33  1  0
 20 34  1  0
 21 35  1  0
 23 36  1  0
M  CHG  2  16   1  18  -1
M  END
>  <Energy>  (1295) 
26.104098126587772

>  <compound_id>  (1295) 
36000

>  <target_id>  (1295) 
1

>  <reference_id>  (1295) 
122

>  <inspiration_ids>  (1295) 
[45, 122]

>  <energy_score>  (1295) 
31.580483457462947

>  <distance_score>  (1295) 
13.10553432053692

>  <path>  (1295) 
/opt/xchem-fragalysis-2/maxwin/BulkDock/SCRATCH/511013/C36000-P122/C36000-P122.minimised.mol

>  <scratch_subdir>  (1295) 
/opt/xchem-fragalysis-2/maxwin/BulkDock/SCRATCH/511013/C36000-P122

>  <fragmenstein_runtime>  (1295) 
31.413935661315918

>  <fragmenstein_outcome>  (1295) 
too moved

>  <fragmenstein_mode>  (1295) 
expansion

>  <fragmenstein_error>  (1295) 


$$$$
C36009-P45
     RDKit          3D

 38 42  0  0  0  0  0  0  0  0999 V2000
   -2.0412  -20.4239   22.5465 C   0  0  0  0  0  0  0  0  0  0  0  0
   -1.2808  -18.8161   21.5550 C   0  0  0  0  0  0  0  0  0  0  0  0
   -0.2248  -18.0500   21.9635 C   0  0  0  0  0  0  0  0  0  0  0  0
   -0.1248  -16.1622   21.7479 C   0  0  0  0  0  0  0  0  0  0  0  0
    0.9223  -15.2741   21.8880 N   0  0  0  0  0  0  0  0  0  0  0  0
    1.3207  -14.6015   23.2796 C   0  0  0  0  0  0  0  0  0  0  0  0
    2.9205  -14.3564   23.4266 C   0  0  0  0  0  0  0  0  0  0  0  0
    3.3444  -13.4406   24.2809 C   0  0  0  0  0  0  0  0  0  0  0  0
    4.2741  -14.2491   25.2139 C   0  0  0  0  0  0  0  0  0  0  0  0
    4.7130  -15.3293   24.5956 N   0  0  0  0  0  0  0  0  0  0  0  0
    3.8616  -15.3482   23.5515 N   0  0  0  0  0  0  0  0  0  0  0  0
   -0.0346  -13.7320   22.9450 N   0  0  0  0  0  0  0  0  0  0  0  0
    0.0070  -11.7118   22.5787 C   0  0  0  0  0  0  0  0  0  0  0  0
   -1.3480  -11.5450   21.0705 C   0  0  0  0  0  0  0  0  0  0  0  0
   -1.4395  -10.0672   21.2022 C   0  0  0  0  0  0  0  0  0  0  0  0
   -0.1015  -10.1426   21.8416 C   0  0  0  0  0  0  0  0  0  0  0  0
   -0.8488  -14.8947   22.3744 N   0  0  0  0  0  0  0  0  0  0  0  0
    0.0378  -19.1637   23.4994 C   0  0  0  0  0  0  0  0  0  0  0  0
    0.6736  -18.7897   24.8601 N   0  0  0  0  0  0  0  0  0  0  0  0
   -0.4506  -18.4592   26.1949 C   0  0  0  0  0  0  0  0  0  0  0  0
   -1.7442  -18.7422   25.6669 C   0  0  0  0  0  0  0  0  0  0  0  0
   -1.4725  -19.5874   23.9888 N   0  0  0  0  0  0  0  0  0  0  0  0
   -2.1351  -20.6567   23.7663 C   0  0  0  0  0  0  0  0  0  0  0  0
   -2.7884  -20.8888   21.8725 H   0  0  0  0  0  0  0  0  0  0  0  0
   -1.0009  -19.4066   22.2703 H   0  0  0  0  0  0  0  0  0  0  0  0
    2.6763  -12.5997   24.3704 H   0  0  0  0  0  0  0  0  0  0  0  0
    4.6629  -14.0848   26.2117 H   0  0  0  0  0  0  0  0  0  0  0  0
    3.6791  -16.2714   23.2208 H   0  0  0  0  0  0  0  0  0  0  0  0
    1.0819  -11.6281   22.6976 H   0  0  0  0  0  0  0  0  0  0  0  0
   -2.3519  -11.9461   21.0361 H   0  0  0  0  0  0  0  0  0  0  0  0
   -1.0786  -11.8076   20.0474 H   0  0  0  0  0  0  0  0  0  0  0  0
   -1.5031   -9.5040   20.2650 H   0  0  0  0  0  0  0  0  0  0  0  0
   -2.2457   -9.6369   21.8040 H   0  0  0  0  0  0  0  0  0  0  0  0
   -0.1030   -9.2714   22.5093 H   0  0  0  0  0  0  0  0  0  0  0  0
    0.7238   -9.8483   21.2000 H   0  0  0  0  0  0  0  0  0  0  0  0
   -0.0149  -18.3787   27.1841 H   0  0  0  0  0  0  0  0  0  0  0  0
   -2.4712  -19.2454   26.2195 H   0  0  0  0  0  0  0  0  0  0  0  0
   -3.0758  -20.8352   24.2144 H   0  0  0  0  0  0  0  0  0  0  0  0
  1  2  1  0
  2  3  2  0
  3  4  1  0
  4  5  1  0
  5  6  2  0
  6  7  1  0
  7  8  2  0
  8  9  1  0
  9 10  2  0
 10 11  1  0
  6 12  1  0
 12 13  1  0
 13 14  1  0
 14 15  1  0
 15 16  1  0
 12 17  1  0
  3 18  1  0
 18 19  2  0
 19 20  1  0
 20 21  2  0
 21 22  1  0
 22 23  1  0
 23  1  2  0
 17  4  2  0
 22 18  1  0
 11  7  1  0
 16 13  1  0
  1 24  1  0
  2 25  1  0
  8 26  1  0
  9 27  1  0
 11 28  1  0
 13 29  1  0
 14 30  1  0
 14 31  1  0
 15 32  1  0
 15 33  1  0
 16 34  1  0
 16 35  1  0
 20 36  1  0
 21 37  1  0
 23 38  1  0
M  END
>  <Energy>  (1296) 
1206.8921136830136

>  <compound_id>  (1296) 
36009

>  <target_id>  (1296) 
1

>  <reference_id>  (1296) 
45

>  <inspiration_ids>  (1296) 
[45, 122]

>  <energy_score>  (1296) 
1108.4467813428419

>  <distance_score>  (1296) 
13.514771683057942

>  <path>  (1296) 
/opt/xchem-fragalysis-2/maxwin/BulkDock/SCRATCH/511013/C36009-P45/C36009-P45.minimised.mol

>  <scratch_subdir>  (1296) 
/opt/xchem-fragalysis-2/maxwin/BulkDock/SCRATCH/511013/C36009-P45

>  <fragmenstein_runtime>  (1296) 
21.39816379547119

>  <fragmenstein_outcome>  (1296) 
too moved

>  <fragmenstein_mode>  (1296) 
expansion

>  <fragmenstein_error>  (1296) 


$$$$
C36009-P122
     RDKit          3D

 38 42  0  0  0  0  0  0  0  0999 V2000
   -2.4823  -25.8353   26.6225 C   0  0  0  0  0  0  0  0  0  0  0  0
   -1.7357  -25.2364   25.6774 C   0  0  0  0  0  0  0  0  0  0  0  0
   -1.1704  -23.7385   25.8085 C   0  0  0  0  0  0  0  0  0  0  0  0
   -0.4116  -22.4504   24.3320 C   0  0  0  0  0  0  0  0  0  0  0  0
    0.2922  -20.8399   23.7778 N   0  0  0  0  0  0  0  0  0  0  0  0
    1.0275  -19.5600   24.7605 C   0  0  0  0  0  0  0  0  0  0  0  0
    2.3119  -19.2769   25.4978 C   0  0  0  0  0  0  0  0  0  0  0  0
    3.0156  -19.8430   26.5654 C   0  0  0  0  0  0  0  0  0  0  0  0
    4.0410  -18.9405   26.9167 C   0  0  0  0  0  0  0  0  0  0  0  0
    4.0914  -17.9390   26.0486 N   0  0  0  0  0  0  0  0  0  0  0  0
    3.1278  -18.2968   25.1513 N   0  0  0  0  0  0  0  0  0  0  0  0
    0.0293  -19.3825   23.8859 N   0  0  0  0  0  0  0  0  0  0  0  0
   -0.5144  -18.5052   25.7953 C   0  0  0  0  0  0  0  0  0  0  0  0
    0.5078  -18.5747   27.2555 C   0  0  0  0  0  0  0  0  0  0  0  0
   -0.7345  -18.2761   28.0531 C   0  0  0  0  0  0  0  0  0  0  0  0
   -1.4156  -19.1577   27.0247 C   0  0  0  0  0  0  0  0  0  0  0  0
   -1.0512  -20.9852   23.5601 N   0  0  0  0  0  0  0  0  0  0  0  0
   -1.9990  -23.5957   27.4717 C   0  0  0  0  0  0  0  0  0  0  0  0
   -1.7641  -23.4958   28.8569 N   0  0  0  0  0  0  0  0  0  0  0  0
   -3.6113  -23.6882   29.4908 C   0  0  0  0  0  0  0  0  0  0  0  0
   -4.4288  -23.7156   28.3924 C   0  0  0  0  0  0  0  0  0  0  0  0
   -3.5106  -24.1490   27.5662 N   0  0  0  0  0  0  0  0  0  0  0  0
   -3.4212  -25.3963   27.2688 C   0  0  0  0  0  0  0  0  0  0  0  0
   -2.4220  -26.7277   27.2589 H   0  0  0  0  0  0  0  0  0  0  0  0
   -1.7295  -25.8624   24.7611 H   0  0  0  0  0  0  0  0  0  0  0  0
    2.7476  -20.7329   27.1205 H   0  0  0  0  0  0  0  0  0  0  0  0
    4.7350  -18.9813   27.7469 H   0  0  0  0  0  0  0  0  0  0  0  0
    3.2101  -17.9733   24.1947 H   0  0  0  0  0  0  0  0  0  0  0  0
   -1.3804  -17.8418   25.6414 H   0  0  0  0  0  0  0  0  0  0  0  0
    1.2804  -17.8356   27.4915 H   0  0  0  0  0  0  0  0  0  0  0  0
    0.8662  -19.5634   27.5678 H   0  0  0  0  0  0  0  0  0  0  0  0
   -0.6756  -18.6615   29.0755 H   0  0  0  0  0  0  0  0  0  0  0  0
   -1.1294  -17.2629   28.1081 H   0  0  0  0  0  0  0  0  0  0  0  0
   -2.4446  -18.8897   26.9995 H   0  0  0  0  0  0  0  0  0  0  0  0
   -1.2584  -20.1424   27.4423 H   0  0  0  0  0  0  0  0  0  0  0  0
   -3.7983  -23.3626   30.5269 H   0  0  0  0  0  0  0  0  0  0  0  0
   -5.4509  -23.4987   28.0866 H   0  0  0  0  0  0  0  0  0  0  0  0
   -3.9415  -26.2365   27.5993 H   0  0  0  0  0  0  0  0  0  0  0  0
  1  2  1  0
  2  3  2  0
  3  4  1  0
  4  5  1  0
  5  6  2  0
  6  7  1  0
  7  8  2  0
  8  9  1  0
  9 10  2  0
 10 11  1  0
  6 12  1  0
 12 13  1  0
 13 14  1  0
 14 15  1  0
 15 16  1  0
 12 17  1  0
  3 18  1  0
 18 19  2  0
 19 20  1  0
 20 21  2  0
 21 22  1  0
 22 23  1  0
 23  1  2  0
 17  4  2  0
 22 18  1  0
 11  7  1  0
 16 13  1  0
  1 24  1  0
  2 25  1  0
  8 26  1  0
  9 27  1  0
 11 28  1  0
 13 29  1  0
 14 30  1  0
 14 31  1  0
 15 32  1  0
 15 33  1  0
 16 34  1  0
 16 35  1  0
 20 36  1  0
 21 37  1  0
 23 38  1  0
M  END
>  <Energy>  (1297) 
1457.8191687691251

>  <compound_id>  (1297) 
36009

>  <target_id>  (1297) 
1

>  <reference_id>  (1297) 
122

>  <inspiration_ids>  (1297) 
[45, 122]

>  <energy_score>  (1297) 
1359.373836428948

>  <distance_score>  (1297) 
14.041262476841602

>  <path>  (1297) 
/opt/xchem-fragalysis-2/maxwin/BulkDock/SCRATCH/511013/C36009-P122/C36009-P122.minimised.mol

>  <scratch_subdir>  (1297) 
/opt/xchem-fragalysis-2/maxwin/BulkDock/SCRATCH/511013/C36009-P122

>  <fragmenstein_runtime>  (1297) 
20.191720485687256

>  <fragmenstein_outcome>  (1297) 
too moved

>  <fragmenstein_mode>  (1297) 
expansion

>  <fragmenstein_error>  (1297) 


$$$$
C36010-P45
     RDKit          3D

 33 35  0  0  0  0  0  0  0  0999 V2000
   -3.6526   -7.3175   21.1656 C   0  0  0  0  0  0  0  0  0  0  0  0
   -2.8066   -8.4709   21.7361 C   0  0  0  0  0  0  0  0  0  0  0  0
   -3.4775   -9.1018   22.9945 N   0  0  0  0  0  0  0  0  0  0  0  0
   -5.0104   -9.3689   22.8043 C   0  0  0  0  0  0  0  0  0  0  0  0
   -5.8419  -10.4489   23.6650 C   0  0  0  0  0  0  0  0  0  0  0  0
   -5.9376  -10.7816   25.0140 C   0  0  0  0  0  0  0  0  0  0  0  0
   -6.8101  -11.8736   25.1189 N   0  0  0  0  0  0  0  0  0  0  0  0
   -7.2627  -12.5929   26.2432 C   0  0  0  0  0  0  0  0  0  0  0  0
   -7.9954  -13.7142   26.0792 C   0  0  0  0  0  0  0  0  0  0  0  0
   -8.3221  -14.1491   24.7299 C   0  0  0  0  0  0  0  0  0  0  0  0
   -7.9500  -13.4170   23.6590 C   0  0  0  0  0  0  0  0  0  0  0  0
   -7.1811  -12.2161   23.8274 C   0  0  0  0  0  0  0  0  0  0  0  0
   -6.7414  -11.3096   22.9721 N   0  0  0  0  0  0  0  0  0  0  0  0
   -1.3531   -7.9453   21.8791 C   0  0  0  0  0  0  0  0  0  0  0  0
   -0.7892   -6.9297   22.6406 C   0  0  0  0  0  0  0  0  0  0  0  0
    0.5201   -6.7389   22.1482 C   0  0  0  0  0  0  0  0  0  0  0  0
    0.7997   -7.5587   21.1408 N   0  0  0  0  0  0  0  0  0  0  0  0
   -0.3184   -8.3205   21.0236 N   0  0  0  0  0  0  0  0  0  0  0  0
   -3.1536   -6.8520   20.3072 H   0  0  0  0  0  0  0  0  0  0  0  0
   -4.6296   -7.6594   20.8113 H   0  0  0  0  0  0  0  0  0  0  0  0
   -3.8152   -6.5356   21.9164 H   0  0  0  0  0  0  0  0  0  0  0  0
   -2.7819   -9.2779   20.9919 H   0  0  0  0  0  0  0  0  0  0  0  0
   -3.4268   -8.4006   23.7318 H   0  0  0  0  0  0  0  0  0  0  0  0
   -5.1518   -9.6797   21.7613 H   0  0  0  0  0  0  0  0  0  0  0  0
   -5.5283   -8.4126   22.9464 H   0  0  0  0  0  0  0  0  0  0  0  0
   -5.4572  -10.3759   25.8901 H   0  0  0  0  0  0  0  0  0  0  0  0
   -6.9612  -12.2210   27.2136 H   0  0  0  0  0  0  0  0  0  0  0  0
   -8.3409  -14.3042   26.9211 H   0  0  0  0  0  0  0  0  0  0  0  0
   -8.8943  -15.0635   24.6090 H   0  0  0  0  0  0  0  0  0  0  0  0
   -8.2100  -13.7145   22.6503 H   0  0  0  0  0  0  0  0  0  0  0  0
   -1.2854   -6.3576   23.4108 H   0  0  0  0  0  0  0  0  0  0  0  0
    1.2643   -6.0225   22.4682 H   0  0  0  0  0  0  0  0  0  0  0  0
   -0.3118   -9.0586   20.3163 H   0  0  0  0  0  0  0  0  0  0  0  0
  1  2  1  0
  2  3  1  0
  3  4  1  0
  4  5  1  0
  5  6  2  0
  6  7  1  0
  7  8  1  0
  8  9  2  0
  9 10  1  0
 10 11  2  0
 11 12  1  0
 12 13  2  0
  2 14  1  0
 14 15  2  0
 15 16  1  0
 16 17  2  0
 17 18  1  0
 13  5  1  0
 18 14  1  0
 12  7  1  0
  1 19  1  0
  1 20  1  0
  1 21  1  0
  2 22  1  0
  3 23  1  0
  4 24  1  0
  4 25  1  0
  6 26  1  0
  8 27  1  0
  9 28  1  0
 10 29  1  0
 11 30  1  0
 15 31  1  0
 16 32  1  0
 18 33  1  0
M  END
>  <Energy>  (1298) 
49.910348411838946

>  <compound_id>  (1298) 
36010

>  <target_id>  (1298) 
1

>  <reference_id>  (1298) 
45

>  <inspiration_ids>  (1298) 
[45, 122]

>  <energy_score>  (1298) 
3.478709239597265

>  <distance_score>  (1298) 
14.867601016368473

>  <path>  (1298) 
/opt/xchem-fragalysis-2/maxwin/BulkDock/SCRATCH/511013/C36010-P45/C36010-P45.minimised.mol

>  <scratch_subdir>  (1298) 
/opt/xchem-fragalysis-2/maxwin/BulkDock/SCRATCH/511013/C36010-P45

>  <fragmenstein_runtime>  (1298) 
15.058354139328003

>  <fragmenstein_outcome>  (1298) 
too moved

>  <fragmenstein_mode>  (1298) 
expansion

>  <fragmenstein_error>  (1298) 


$$$$
C36010-P122
     RDKit          3D

 33 35  0  0  0  0  0  0  0  0999 V2000
    3.3044  -14.4276   23.6913 C   0  0  0  0  0  0  0  0  0  0  0  0
    2.3891  -13.2502   23.7985 C   0  0  0  0  0  0  0  0  0  0  0  0
    0.6223  -14.1461   23.6782 N   0  0  0  0  0  0  0  0  0  0  0  0
   -1.0654  -14.8698   24.4804 C   0  0  0  0  0  0  0  0  0  0  0  0
   -2.2770  -16.4057   25.0175 C   0  0  0  0  0  0  0  0  0  0  0  0
   -1.9452  -17.8770   25.7519 C   0  0  0  0  0  0  0  0  0  0  0  0
   -3.1176  -18.5071   26.1602 N   0  0  0  0  0  0  0  0  0  0  0  0
   -4.3329  -19.2115   25.4904 C   0  0  0  0  0  0  0  0  0  0  0  0
   -5.5437  -18.6790   25.8041 C   0  0  0  0  0  0  0  0  0  0  0  0
   -5.6976  -17.8031   26.9168 C   0  0  0  0  0  0  0  0  0  0  0  0
   -4.6099  -17.4724   27.6469 C   0  0  0  0  0  0  0  0  0  0  0  0
   -3.4677  -17.3791   26.8058 C   0  0  0  0  0  0  0  0  0  0  0  0
   -3.4327  -16.5414   25.6505 N   0  0  0  0  0  0  0  0  0  0  0  0
    3.4614  -12.2345   22.4914 C   0  0  0  0  0  0  0  0  0  0  0  0
    4.4031  -10.9521   22.3165 C   0  0  0  0  0  0  0  0  0  0  0  0
    5.5004  -11.1256   21.2778 C   0  0  0  0  0  0  0  0  0  0  0  0
    5.2750  -12.2614   20.6012 N   0  0  0  0  0  0  0  0  0  0  0  0
    4.0433  -12.7996   21.1239 N   0  0  0  0  0  0  0  0  0  0  0  0
    3.2573  -14.5522   22.6354 H   0  0  0  0  0  0  0  0  0  0  0  0
    3.1443  -15.4628   23.5801 H   0  0  0  0  0  0  0  0  0  0  0  0
    4.0925  -14.4990   24.4364 H   0  0  0  0  0  0  0  0  0  0  0  0
    2.1590  -12.5900   24.5872 H   0  0  0  0  0  0  0  0  0  0  0  0
    0.0181  -13.3431   23.4785 H   0  0  0  0  0  0  0  0  0  0  0  0
   -1.4129  -14.9826   23.4750 H   0  0  0  0  0  0  0  0  0  0  0  0
   -1.4520  -14.0728   25.1470 H   0  0  0  0  0  0  0  0  0  0  0  0
   -1.0056  -18.2202   26.1768 H   0  0  0  0  0  0  0  0  0  0  0  0
   -4.2052  -19.8493   24.6285 H   0  0  0  0  0  0  0  0  0  0  0  0
   -6.3034  -18.5992   25.0458 H   0  0  0  0  0  0  0  0  0  0  0  0
   -6.7014  -17.4880   27.1951 H   0  0  0  0  0  0  0  0  0  0  0  0
   -4.6790  -16.8818   28.5539 H   0  0  0  0  0  0  0  0  0  0  0  0
    4.3805  -10.0091   22.8377 H   0  0  0  0  0  0  0  0  0  0  0  0
    6.3197  -10.4631   21.0272 H   0  0  0  0  0  0  0  0  0  0  0  0
    3.7045  -13.6621   20.7166 H   0  0  0  0  0  0  0  0  0  0  0  0
  1  2  1  0
  2  3  1  0
  3  4  1  0
  4  5  1  0
  5  6  2  0
  6  7  1  0
  7  8  1  0
  8  9  2  0
  9 10  1  0
 10 11  2  0
 11 12  1  0
 12 13  2  0
  2 14  1  0
 14 15  2  0
 15 16  1  0
 16 17  2  0
 17 18  1  0
 13  5  1  0
 18 14  1  0
 12  7  1  0
  1 19  1  0
  1 20  1  0
  1 21  1  0
  2 22  1  0
  3 23  1  0
  4 24  1  0
  4 25  1  0
  6 26  1  0
  8 27  1  0
  9 28  1  0
 10 29  1  0
 11 30  1  0
 15 31  1  0
 16 32  1  0
 18 33  1  0
M  END
>  <Energy>  (1299) 
718.64928724919525

>  <compound_id>  (1299) 
36010

>  <target_id>  (1299) 
1

>  <reference_id>  (1299) 
122

>  <inspiration_ids>  (1299) 
[45, 122]

>  <energy_score>  (1299) 
672.2176480769357

>  <distance_score>  (1299) 
11.71297989582523

>  <path>  (1299) 
/opt/xchem-fragalysis-2/maxwin/BulkDock/SCRATCH/511013/C36010-P122/C36010-P122.minimised.mol

>  <scratch_subdir>  (1299) 
/opt/xchem-fragalysis-2/maxwin/BulkDock/SCRATCH/511013/C36010-P122

>  <fragmenstein_runtime>  (1299) 
12.953986883163452

>  <fragmenstein_outcome>  (1299) 
too moved

>  <fragmenstein_mode>  (1299) 
expansion

>  <fragmenstein_error>  (1299) 


$$$$
C36011-P45
     RDKit          3D

 43 46  0  0  0  0  0  0  0  0999 V2000
    3.5345  -14.1709   27.0530 C   0  0  0  0  0  0  0  0  0  0  0  0
    2.0887  -13.4904   26.0803 C   0  0  0  0  0  0  0  0  0  0  0  0
    2.5393  -13.3286   24.1839 C   0  0  0  0  0  0  0  0  0  0  0  0
    2.1791  -12.0005   23.5831 C   0  0  0  0  0  0  0  0  0  0  0  0
    0.7707  -11.5062   22.7245 C   0  0  0  0  0  0  0  0  0  0  0  0
    2.4781  -14.5631   23.1185 N   0  0  0  0  0  0  0  0  0  0  0  0
    0.7875  -14.9600   22.3584 N   0  0  0  0  0  0  0  0  0  0  0  0
    0.3653  -16.3943   21.5045 C   0  0  0  0  0  0  0  0  0  0  0  0
   -0.1723  -18.2955   21.9649 C   0  0  0  0  0  0  0  0  0  0  0  0
    0.1373  -19.2706   23.2946 C   0  0  0  0  0  0  0  0  0  0  0  0
    0.7176  -21.0066   23.0239 C   0  0  0  0  0  0  0  0  0  0  0  0
   -0.1690  -21.8490   23.3941 C   0  0  0  0  0  0  0  0  0  0  0  0
   -1.1814  -20.9972   23.4088 N   0  0  0  0  0  0  0  0  0  0  0  0
   -2.0641  -20.7145   24.3192 C   0  0  0  0  0  0  0  0  0  0  0  0
   -3.1602  -20.6180   23.7862 C   0  0  0  0  0  0  0  0  0  0  0  0
   -2.5368  -20.5683   22.6248 N   0  0  0  0  0  0  0  0  0  0  0  0
   -1.3523  -19.5504   22.7623 C   0  0  0  0  0  0  0  0  0  0  0  0
    1.8262  -15.3977   20.7548 N   0  0  0  0  0  0  0  0  0  0  0  0
    3.0295  -14.3481   21.4056 C   0  0  0  0  0  0  0  0  0  0  0  0
    4.1997  -13.1959   20.5011 C   0  0  0  0  0  0  0  0  0  0  0  0
    4.7810  -13.3716   19.1495 C   0  0  0  0  0  0  0  0  0  0  0  0
    6.0011  -12.6777   19.0324 C   0  0  0  0  0  0  0  0  0  0  0  0
    6.2268  -11.9962   20.1420 N   0  0  0  0  0  0  0  0  0  0  0  0
    5.0621  -12.1818   20.8168 N   0  0  0  0  0  0  0  0  0  0  0  0
    3.2218  -14.9276   27.7808 H   0  0  0  0  0  0  0  0  0  0  0  0
    4.1042  -13.4907   27.6859 H   0  0  0  0  0  0  0  0  0  0  0  0
    4.2628  -14.6097   26.3489 H   0  0  0  0  0  0  0  0  0  0  0  0
    1.2944  -14.0834   26.4156 H   0  0  0  0  0  0  0  0  0  0  0  0
    1.6156  -12.5698   26.4715 H   0  0  0  0  0  0  0  0  0  0  0  0
    3.5959  -13.4310   24.2935 H   0  0  0  0  0  0  0  0  0  0  0  0
    3.0449  -11.7340   23.0009 H   0  0  0  0  0  0  0  0  0  0  0  0
    2.0023  -11.6518   24.5526 H   0  0  0  0  0  0  0  0  0  0  0  0
    0.1317  -10.6254   22.8950 H   0  0  0  0  0  0  0  0  0  0  0  0
    0.0854  -12.3336   22.7595 H   0  0  0  0  0  0  0  0  0  0  0  0
    0.8567  -10.9715   21.7704 H   0  0  0  0  0  0  0  0  0  0  0  0
    0.6688  -19.0538   24.2772 H   0  0  0  0  0  0  0  0  0  0  0  0
    1.6684  -21.1746   22.4898 H   0  0  0  0  0  0  0  0  0  0  0  0
    0.1406  -22.7978   23.7600 H   0  0  0  0  0  0  0  0  0  0  0  0
   -2.1067  -19.8601   25.0433 H   0  0  0  0  0  0  0  0  0  0  0  0
   -4.0401  -20.7155   24.4358 H   0  0  0  0  0  0  0  0  0  0  0  0
    4.4873  -14.1550   18.4652 H   0  0  0  0  0  0  0  0  0  0  0  0
    6.7248  -12.6934   18.2291 H   0  0  0  0  0  0  0  0  0  0  0  0
    4.8572  -11.4818   21.5106 H   0  0  0  0  0  0  0  0  0  0  0  0
  1  2  1  0
  2  3  1  0
  3  4  1  0
  4  5  1  0
  3  6  1  0
  6  7  1  0
  7  8  2  0
  8  9  1  0
  9 10  2  0
 10 11  1  0
 11 12  2  0
 12 13  1  0
 13 14  1  0
 14 15  2  0
 15 16  1  0
 16 17  2  0
  8 18  1  0
 18 19  2  0
 19 20  1  0
 20 21  2  0
 21 22  1  0
 22 23  2  0
 23 24  1  0
 19  6  1  0
 24 20  1  0
 17  9  1  0
 17 13  1  0
  1 25  1  0
  1 26  1  0
  1 27  1  0
  2 28  1  0
  2 29  1  0
  3 30  1  0
  4 31  1  0
  4 32  1  0
  5 33  1  0
  5 34  1  0
  5 35  1  0
 10 36  1  0
 11 37  1  0
 12 38  1  0
 14 39  1  0
 15 40  1  0
 21 41  1  0
 22 42  1  0
 24 43  1  0
M  END
>  <Energy>  (1300) 
1492.3992818004322

>  <compound_id>  (1300) 
36011

>  <target_id>  (1300) 
1

>  <reference_id>  (1300) 
45

>  <inspiration_ids>  (1300) 
[45, 122]

>  <energy_score>  (1300) 
1393.119862315679

>  <distance_score>  (1300) 
11.731750388082913

>  <path>  (1300) 
/opt/xchem-fragalysis-2/maxwin/BulkDock/SCRATCH/511013/C36011-P45/C36011-P45.minimised.mol

>  <scratch_subdir>  (1300) 
/opt/xchem-fragalysis-2/maxwin/BulkDock/SCRATCH/511013/C36011-P45

>  <fragmenstein_runtime>  (1300) 
16.09965705871582

>  <fragmenstein_outcome>  (1300) 
too moved

>  <fragmenstein_mode>  (1300) 
expansion

>  <fragmenstein_error>  (1300) 


$$$$
C36011-P122
     RDKit          3D

 43 46  0  0  0  0  0  0  0  0999 V2000
   -0.2860  -16.7647   11.6635 C   0  0  0  0  0  0  0  0  0  0  0  0
    0.3059  -17.8508   12.5493 C   0  0  0  0  0  0  0  0  0  0  0  0
    1.8300  -17.7040   12.7809 C   0  0  0  0  0  0  0  0  0  0  0  0
    2.6374  -17.9385   11.4827 C   0  0  0  0  0  0  0  0  0  0  0  0
    3.0994  -16.6377   10.8374 C   0  0  0  0  0  0  0  0  0  0  0  0
    2.3186  -18.5928   13.8451 N   0  0  0  0  0  0  0  0  0  0  0  0
    1.6406  -19.7249   14.1410 N   0  0  0  0  0  0  0  0  0  0  0  0
    2.3816  -20.3241   15.0978 C   0  0  0  0  0  0  0  0  0  0  0  0
    1.9030  -21.5916   15.7942 C   0  0  0  0  0  0  0  0  0  0  0  0
    0.7782  -22.2018   15.2902 C   0  0  0  0  0  0  0  0  0  0  0  0
    0.1015  -23.3696   15.8524 C   0  0  0  0  0  0  0  0  0  0  0  0
    0.5643  -23.8988   16.9887 C   0  0  0  0  0  0  0  0  0  0  0  0
    1.6830  -23.3204   17.5696 N   0  0  0  0  0  0  0  0  0  0  0  0
    2.2341  -23.6345   18.7837 C   0  0  0  0  0  0  0  0  0  0  0  0
    3.2852  -22.7695   18.9238 C   0  0  0  0  0  0  0  0  0  0  0  0
    3.4152  -21.9544   17.8247 N   0  0  0  0  0  0  0  0  0  0  0  0
    2.4082  -22.2305   17.0209 C   0  0  0  0  0  0  0  0  0  0  0  0
    3.5969  -19.6187   15.2799 N   0  0  0  0  0  0  0  0  0  0  0  0
    3.4976  -18.4917   14.5539 C   0  0  0  0  0  0  0  0  0  0  0  0
    4.4243  -17.3552   14.4955 C   0  0  0  0  0  0  0  0  0  0  0  0
    4.2170  -15.9869   14.6202 C   0  0  0  0  0  0  0  0  0  0  0  0
    5.4897  -15.3803   14.5564 C   0  0  0  0  0  0  0  0  0  0  0  0
    6.4521  -16.2808   14.3525 N   0  0  0  0  0  0  0  0  0  0  0  0
    5.7831  -17.4572   14.3108 N   0  0  0  0  0  0  0  0  0  0  0  0
   -0.0419  -15.7682   12.0445 H   0  0  0  0  0  0  0  0  0  0  0  0
    0.0761  -16.8466   10.6350 H   0  0  0  0  0  0  0  0  0  0  0  0
   -1.3766  -16.8576   11.6357 H   0  0  0  0  0  0  0  0  0  0  0  0
    0.0790  -18.8300   12.1087 H   0  0  0  0  0  0  0  0  0  0  0  0
   -0.2167  -17.8215   13.5118 H   0  0  0  0  0  0  0  0  0  0  0  0
    2.0003  -16.6900   13.1579 H   0  0  0  0  0  0  0  0  0  0  0  0
    2.0431  -18.5072   10.7574 H   0  0  0  0  0  0  0  0  0  0  0  0
    3.5315  -18.5445   11.6755 H   0  0  0  0  0  0  0  0  0  0  0  0
    3.6482  -16.8510    9.9146 H   0  0  0  0  0  0  0  0  0  0  0  0
    3.7686  -16.0858   11.5043 H   0  0  0  0  0  0  0  0  0  0  0  0
    2.2579  -15.9876   10.5851 H   0  0  0  0  0  0  0  0  0  0  0  0
    0.2991  -21.7976   14.3992 H   0  0  0  0  0  0  0  0  0  0  0  0
   -0.7736  -23.7620   15.3453 H   0  0  0  0  0  0  0  0  0  0  0  0
    0.1066  -24.7413   17.4905 H   0  0  0  0  0  0  0  0  0  0  0  0
    1.8381  -24.4052   19.4272 H   0  0  0  0  0  0  0  0  0  0  0  0
    3.9754  -22.6967   19.7491 H   0  0  0  0  0  0  0  0  0  0  0  0
    3.2714  -15.4916   14.7945 H   0  0  0  0  0  0  0  0  0  0  0  0
    5.7429  -14.3321   14.6514 H   0  0  0  0  0  0  0  0  0  0  0  0
    6.3146  -18.3082   14.1622 H   0  0  0  0  0  0  0  0  0  0  0  0
  1  2  1  0
  2  3  1  0
  3  4  1  0
  4  5  1  0
  3  6  1  0
  6  7  1  0
  7  8  2  0
  8  9  1  0
  9 10  2  0
 10 11  1  0
 11 12  2  0
 12 13  1  0
 13 14  1  0
 14 15  2  0
 15 16  1  0
 16 17  2  0
  8 18  1  0
 18 19  2  0
 19 20  1  0
 20 21  2  0
 21 22  1  0
 22 23  2  0
 23 24  1  0
 19  6  1  0
 24 20  1  0
 17  9  1  0
 17 13  1  0
  1 25  1  0
  1 26  1  0
  1 27  1  0
  2 28  1  0
  2 29  1  0
  3 30  1  0
  4 31  1  0
  4 32  1  0
  5 33  1  0
  5 34  1  0
  5 35  1  0
 10 36  1  0
 11 37  1  0
 12 38  1  0
 14 39  1  0
 15 40  1  0
 21 41  1  0
 22 42  1  0
 24 43  1  0
M  END
>  <Energy>  (1301) 
72.051535527176384

>  <compound_id>  (1301) 
36011

>  <target_id>  (1301) 
1

>  <reference_id>  (1301) 
122

>  <inspiration_ids>  (1301) 
[45, 122]

>  <energy_score>  (1301) 
-27.227883957562653

>  <distance_score>  (1301) 
15.090758666782577

>  <path>  (1301) 
/opt/xchem-fragalysis-2/maxwin/BulkDock/SCRATCH/511013/C36011-P122/C36011-P122.minimised.mol

>  <scratch_subdir>  (1301) 
/opt/xchem-fragalysis-2/maxwin/BulkDock/SCRATCH/511013/C36011-P122

>  <fragmenstein_runtime>  (1301) 
21.930684804916382

>  <fragmenstein_outcome>  (1301) 
too moved

>  <fragmenstein_mode>  (1301) 
expansion

>  <fragmenstein_error>  (1301) 


$$$$
C36012-P45
     RDKit          3D

 34 37  0  0  0  0  0  0  0  0999 V2000
    1.8830  -14.6824   23.3219 F   0  0  0  0  0  0  0  0  0  0  0  0
    3.1605  -14.2786   23.1447 C   0  0  0  0  0  0  0  0  0  0  0  0
    3.4360  -13.7021   21.3978 C   0  0  0  0  0  0  0  0  0  0  0  0
    2.4616  -14.5805   20.3404 N   0  0  0  0  0  0  0  0  0  0  0  0
    1.2530  -15.5764   20.8896 N   0  0  0  0  0  0  0  0  0  0  0  0
    0.5780  -16.2081   19.8832 C   0  0  0  0  0  0  0  0  0  0  0  0
   -1.1577  -16.8962   19.9490 C   0  0  0  0  0  0  0  0  0  0  0  0
   -1.2794  -18.1507   20.4203 C   0  0  0  0  0  0  0  0  0  0  0  0
   -2.2313  -19.2648   19.8035 C   0  0  0  0  0  0  0  0  0  0  0  0
   -3.4763  -19.0655   19.4703 C   0  0  0  0  0  0  0  0  0  0  0  0
   -3.7440  -17.7534   19.4719 N   0  0  0  0  0  0  0  0  0  0  0  0
   -4.9545  -17.3333   19.0108 C   0  0  0  0  0  0  0  0  0  0  0  0
   -4.4852  -16.8721   17.8237 C   0  0  0  0  0  0  0  0  0  0  0  0
   -3.1395  -16.5272   18.0338 N   0  0  0  0  0  0  0  0  0  0  0  0
   -2.6664  -16.8166   19.2562 C   0  0  0  0  0  0  0  0  0  0  0  0
    1.7393  -15.4735   18.6011 N   0  0  0  0  0  0  0  0  0  0  0  0
    2.7482  -14.6940   18.8709 C   0  0  0  0  0  0  0  0  0  0  0  0
    3.7367  -14.0568   17.9676 C   0  0  0  0  0  0  0  0  0  0  0  0
    3.7180  -13.7600   16.6141 C   0  0  0  0  0  0  0  0  0  0  0  0
    4.9208  -13.0616   16.3417 C   0  0  0  0  0  0  0  0  0  0  0  0
    5.7076  -12.9822   17.4141 N   0  0  0  0  0  0  0  0  0  0  0  0
    4.9805  -13.6093   18.3592 N   0  0  0  0  0  0  0  0  0  0  0  0
    3.8151  -15.0980   23.4599 H   0  0  0  0  0  0  0  0  0  0  0  0
    3.2601  -13.3940   23.7845 H   0  0  0  0  0  0  0  0  0  0  0  0
    3.2726  -12.6610   21.5753 H   0  0  0  0  0  0  0  0  0  0  0  0
    4.3836  -13.3729   20.8975 H   0  0  0  0  0  0  0  0  0  0  0  0
   -0.4948  -18.3975   21.1206 H   0  0  0  0  0  0  0  0  0  0  0  0
   -2.0803  -20.3300   19.7784 H   0  0  0  0  0  0  0  0  0  0  0  0
   -4.2114  -19.8077   19.1934 H   0  0  0  0  0  0  0  0  0  0  0  0
   -5.9086  -17.7402   19.3124 H   0  0  0  0  0  0  0  0  0  0  0  0
   -4.9821  -16.6622   16.8853 H   0  0  0  0  0  0  0  0  0  0  0  0
    2.9198  -13.9893   15.9215 H   0  0  0  0  0  0  0  0  0  0  0  0
    5.2541  -12.6333   15.4049 H   0  0  0  0  0  0  0  0  0  0  0  0
    5.3966  -13.7567   19.2662 H   0  0  0  0  0  0  0  0  0  0  0  0
  1  2  1  0
  2  3  1  0
  3  4  1  0
  4  5  1  0
  5  6  2  0
  6  7  1  0
  7  8  2  0
  8  9  1  0
  9 10  2  0
 10 11  1  0
 11 12  1  0
 12 13  2  0
 13 14  1  0
 14 15  2  0
  6 16  1  0
 16 17  2  0
 17 18  1  0
 18 19  2  0
 19 20  1  0
 20 21  2  0
 21 22  1  0
 17  4  1  0
 22 18  1  0
 15  7  1  0
 15 11  1  0
  2 23  1  0
  2 24  1  0
  3 25  1  0
  3 26  1  0
  8 27  1  0
  9 28  1  0
 10 29  1  0
 12 30  1  0
 13 31  1  0
 19 32  1  0
 20 33  1  0
 22 34  1  0
M  END
>  <Energy>  (1302) 
448.67029234417589

>  <compound_id>  (1302) 
36012

>  <target_id>  (1302) 
1

>  <reference_id>  (1302) 
45

>  <inspiration_ids>  (1302) 
[45, 122]

>  <energy_score>  (1302) 
379.31127346966036

>  <distance_score>  (1302) 
13.429099639087276

>  <path>  (1302) 
/opt/xchem-fragalysis-2/maxwin/BulkDock/SCRATCH/511013/C36012-P45/C36012-P45.minimised.mol

>  <scratch_subdir>  (1302) 
/opt/xchem-fragalysis-2/maxwin/BulkDock/SCRATCH/511013/C36012-P45

>  <fragmenstein_runtime>  (1302) 
14.359253168106079

>  <fragmenstein_outcome>  (1302) 
too moved

>  <fragmenstein_mode>  (1302) 
expansion

>  <fragmenstein_error>  (1302) 


$$$$
C36012-P122
     RDKit          3D

 34 37  0  0  0  0  0  0  0  0999 V2000
    8.7580  -13.0285   26.1793 F   0  0  0  0  0  0  0  0  0  0  0  0
    8.8818  -12.2990   25.0406 C   0  0  0  0  0  0  0  0  0  0  0  0
    7.5312  -11.7278   24.6740 C   0  0  0  0  0  0  0  0  0  0  0  0
    6.7321  -12.6692   23.8936 N   0  0  0  0  0  0  0  0  0  0  0  0
    5.6915  -14.1687   24.8289 N   0  0  0  0  0  0  0  0  0  0  0  0
    5.4428  -15.2830   23.3600 C   0  0  0  0  0  0  0  0  0  0  0  0
    6.5107  -17.1031   23.3796 C   0  0  0  0  0  0  0  0  0  0  0  0
    6.0561  -18.3116   22.1225 C   0  0  0  0  0  0  0  0  0  0  0  0
    6.3646  -19.6608   21.5697 C   0  0  0  0  0  0  0  0  0  0  0  0
    7.3912  -20.3730   21.9654 C   0  0  0  0  0  0  0  0  0  0  0  0
    8.1772  -19.7350   22.8665 N   0  0  0  0  0  0  0  0  0  0  0  0
    9.3002  -20.2935   23.4154 C   0  0  0  0  0  0  0  0  0  0  0  0
   10.0408  -19.2327   23.8276 C   0  0  0  0  0  0  0  0  0  0  0  0
    9.3060  -18.0757   23.7363 N   0  0  0  0  0  0  0  0  0  0  0  0
    7.9856  -18.3750   23.4150 C   0  0  0  0  0  0  0  0  0  0  0  0
    5.6654  -13.9757   21.5560 N   0  0  0  0  0  0  0  0  0  0  0  0
    6.7453  -12.4798   21.8748 C   0  0  0  0  0  0  0  0  0  0  0  0
    7.6336  -11.7658   21.0034 C   0  0  0  0  0  0  0  0  0  0  0  0
    8.8998  -11.2604   21.2150 C   0  0  0  0  0  0  0  0  0  0  0  0
    9.2386  -10.6245   20.0109 C   0  0  0  0  0  0  0  0  0  0  0  0
    8.2503  -10.6795   19.1157 N   0  0  0  0  0  0  0  0  0  0  0  0
    7.3403  -11.4995   19.6892 N   0  0  0  0  0  0  0  0  0  0  0  0
    9.3058  -12.9408   24.2629 H   0  0  0  0  0  0  0  0  0  0  0  0
    9.5880  -11.4928   25.2587 H   0  0  0  0  0  0  0  0  0  0  0  0
    7.6345  -10.8348   24.0560 H   0  0  0  0  0  0  0  0  0  0  0  0
    6.9512  -11.5002   25.5695 H   0  0  0  0  0  0  0  0  0  0  0  0
    5.3755  -18.0917   21.3044 H   0  0  0  0  0  0  0  0  0  0  0  0
    5.7513  -20.0601   20.7851 H   0  0  0  0  0  0  0  0  0  0  0  0
    7.6600  -21.3500   21.5927 H   0  0  0  0  0  0  0  0  0  0  0  0
    9.5412  -21.3407   23.3062 H   0  0  0  0  0  0  0  0  0  0  0  0
   11.0623  -19.2193   24.1839 H   0  0  0  0  0  0  0  0  0  0  0  0
    9.5043  -11.3284   22.1070 H   0  0  0  0  0  0  0  0  0  0  0  0
   10.1603  -10.1124   19.7781 H   0  0  0  0  0  0  0  0  0  0  0  0
    6.5044  -11.7689   19.1686 H   0  0  0  0  0  0  0  0  0  0  0  0
  1  2  1  0
  2  3  1  0
  3  4  1  0
  4  5  1  0
  5  6  2  0
  6  7  1  0
  7  8  2  0
  8  9  1  0
  9 10  2  0
 10 11  1  0
 11 12  1  0
 12 13  2  0
 13 14  1  0
 14 15  2  0
  6 16  1  0
 16 17  2  0
 17 18  1  0
 18 19  2  0
 19 20  1  0
 20 21  2  0
 21 22  1  0
 17  4  1  0
 22 18  1  0
 15  7  1  0
 15 11  1  0
  2 23  1  0
  2 24  1  0
  3 25  1  0
  3 26  1  0
  8 27  1  0
  9 28  1  0
 10 29  1  0
 12 30  1  0
 13 31  1  0
 19 32  1  0
 20 33  1  0
 22 34  1  0
M  END
>  <Energy>  (1303) 
1240.0076946704382

>  <compound_id>  (1303) 
36012

>  <target_id>  (1303) 
1

>  <reference_id>  (1303) 
122

>  <inspiration_ids>  (1303) 
[45, 122]

>  <energy_score>  (1303) 
1170.6486757959537

>  <distance_score>  (1303) 
15.291746045920867

>  <path>  (1303) 
/opt/xchem-fragalysis-2/maxwin/BulkDock/SCRATCH/511013/C36012-P122/C36012-P122.minimised.mol

>  <scratch_subdir>  (1303) 
/opt/xchem-fragalysis-2/maxwin/BulkDock/SCRATCH/511013/C36012-P122

>  <fragmenstein_runtime>  (1303) 
15.49519658088684

>  <fragmenstein_outcome>  (1303) 
too moved

>  <fragmenstein_mode>  (1303) 
expansion

>  <fragmenstein_error>  (1303) 


$$$$
C36009-P45
     RDKit          3D

 38 42  0  0  0  0  0  0  0  0999 V2000
   -2.0412  -20.4239   22.5465 C   0  0  0  0  0  0  0  0  0  0  0  0
   -1.2808  -18.8161   21.5550 C   0  0  0  0  0  0  0  0  0  0  0  0
   -0.2248  -18.0500   21.9635 C   0  0  0  0  0  0  0  0  0  0  0  0
   -0.1248  -16.1622   21.7479 C   0  0  0  0  0  0  0  0  0  0  0  0
    0.9223  -15.2741   21.8880 N   0  0  0  0  0  0  0  0  0  0  0  0
    1.3207  -14.6015   23.2796 C   0  0  0  0  0  0  0  0  0  0  0  0
    2.9205  -14.3564   23.4266 C   0  0  0  0  0  0  0  0  0  0  0  0
    3.3444  -13.4406   24.2809 C   0  0  0  0  0  0  0  0  0  0  0  0
    4.2741  -14.2491   25.2139 C   0  0  0  0  0  0  0  0  0  0  0  0
    4.7130  -15.3293   24.5956 N   0  0  0  0  0  0  0  0  0  0  0  0
    3.8616  -15.3482   23.5515 N   0  0  0  0  0  0  0  0  0  0  0  0
   -0.0346  -13.7320   22.9450 N   0  0  0  0  0  0  0  0  0  0  0  0
    0.0070  -11.7118   22.5787 C   0  0  0  0  0  0  0  0  0  0  0  0
   -1.3480  -11.5450   21.0705 C   0  0  0  0  0  0  0  0  0  0  0  0
   -1.4395  -10.0672   21.2022 C   0  0  0  0  0  0  0  0  0  0  0  0
   -0.1015  -10.1426   21.8416 C   0  0  0  0  0  0  0  0  0  0  0  0
   -0.8488  -14.8947   22.3744 N   0  0  0  0  0  0  0  0  0  0  0  0
    0.0378  -19.1637   23.4994 C   0  0  0  0  0  0  0  0  0  0  0  0
    0.6736  -18.7897   24.8601 N   0  0  0  0  0  0  0  0  0  0  0  0
   -0.4506  -18.4592   26.1949 C   0  0  0  0  0  0  0  0  0  0  0  0
   -1.7442  -18.7422   25.6669 C   0  0  0  0  0  0  0  0  0  0  0  0
   -1.4725  -19.5874   23.9888 N   0  0  0  0  0  0  0  0  0  0  0  0
   -2.1351  -20.6567   23.7663 C   0  0  0  0  0  0  0  0  0  0  0  0
   -2.7884  -20.8888   21.8725 H   0  0  0  0  0  0  0  0  0  0  0  0
   -1.0009  -19.4066   22.2703 H   0  0  0  0  0  0  0  0  0  0  0  0
    2.6763  -12.5997   24.3704 H   0  0  0  0  0  0  0  0  0  0  0  0
    4.6629  -14.0848   26.2117 H   0  0  0  0  0  0  0  0  0  0  0  0
    3.6791  -16.2714   23.2208 H   0  0  0  0  0  0  0  0  0  0  0  0
    1.0819  -11.6281   22.6976 H   0  0  0  0  0  0  0  0  0  0  0  0
   -2.3519  -11.9461   21.0361 H   0  0  0  0  0  0  0  0  0  0  0  0
   -1.0786  -11.8076   20.0474 H   0  0  0  0  0  0  0  0  0  0  0  0
   -1.5031   -9.5040   20.2650 H   0  0  0  0  0  0  0  0  0  0  0  0
   -2.2457   -9.6369   21.8040 H   0  0  0  0  0  0  0  0  0  0  0  0
   -0.1030   -9.2714   22.5093 H   0  0  0  0  0  0  0  0  0  0  0  0
    0.7238   -9.8483   21.2000 H   0  0  0  0  0  0  0  0  0  0  0  0
   -0.0149  -18.3787   27.1841 H   0  0  0  0  0  0  0  0  0  0  0  0
   -2.4712  -19.2454   26.2195 H   0  0  0  0  0  0  0  0  0  0  0  0
   -3.0758  -20.8352   24.2144 H   0  0  0  0  0  0  0  0  0  0  0  0
  1  2  1  0
  2  3  2  0
  3  4  1  0
  4  5  1  0
  5  6  2  0
  6  7  1  0
  7  8  2  0
  8  9  1  0
  9 10  2  0
 10 11  1  0
  6 12  1  0
 12 13  1  0
 13 14  1  0
 14 15  1  0
 15 16  1  0
 12 17  1  0
  3 18  1  0
 18 19  2  0
 19 20  1  0
 20 21  2  0
 21 22  1  0
 22 23  1  0
 23  1  2  0
 17  4  2  0
 22 18  1  0
 11  7  1  0
 16 13  1  0
  1 24  1  0
  2 25  1  0
  8 26  1  0
  9 27  1  0
 11 28  1  0
 13 29  1  0
 14 30  1  0
 14 31  1  0
 15 32  1  0
 15 33  1  0
 16 34  1  0
 16 35  1  0
 20 36  1  0
 21 37  1  0
 23 38  1  0
M  END
>  <Energy>  (1304) 
1206.8921136830136

>  <compound_id>  (1304) 
36009

>  <target_id>  (1304) 
1

>  <reference_id>  (1304) 
45

>  <inspiration_ids>  (1304) 
[45, 122]

>  <energy_score>  (1304) 
1108.4467813428419

>  <distance_score>  (1304) 
13.514771683057942

>  <path>  (1304) 
/opt/xchem-fragalysis-2/maxwin/BulkDock/SCRATCH/511013/C36009-P45/C36009-P45.minimised.mol

>  <scratch_subdir>  (1304) 
/opt/xchem-fragalysis-2/maxwin/BulkDock/SCRATCH/511013/C36009-P45

>  <fragmenstein_runtime>  (1304) 
22.032704830169678

>  <fragmenstein_outcome>  (1304) 
too moved

>  <fragmenstein_mode>  (1304) 
expansion

>  <fragmenstein_error>  (1304) 


$$$$
C36009-P122
     RDKit          3D

 38 42  0  0  0  0  0  0  0  0999 V2000
   -2.4823  -25.8353   26.6225 C   0  0  0  0  0  0  0  0  0  0  0  0
   -1.7357  -25.2364   25.6774 C   0  0  0  0  0  0  0  0  0  0  0  0
   -1.1704  -23.7385   25.8085 C   0  0  0  0  0  0  0  0  0  0  0  0
   -0.4116  -22.4504   24.3320 C   0  0  0  0  0  0  0  0  0  0  0  0
    0.2922  -20.8399   23.7778 N   0  0  0  0  0  0  0  0  0  0  0  0
    1.0275  -19.5600   24.7605 C   0  0  0  0  0  0  0  0  0  0  0  0
    2.3119  -19.2769   25.4978 C   0  0  0  0  0  0  0  0  0  0  0  0
    3.0156  -19.8430   26.5654 C   0  0  0  0  0  0  0  0  0  0  0  0
    4.0410  -18.9405   26.9167 C   0  0  0  0  0  0  0  0  0  0  0  0
    4.0914  -17.9390   26.0486 N   0  0  0  0  0  0  0  0  0  0  0  0
    3.1278  -18.2968   25.1513 N   0  0  0  0  0  0  0  0  0  0  0  0
    0.0293  -19.3825   23.8859 N   0  0  0  0  0  0  0  0  0  0  0  0
   -0.5144  -18.5052   25.7953 C   0  0  0  0  0  0  0  0  0  0  0  0
    0.5078  -18.5747   27.2555 C   0  0  0  0  0  0  0  0  0  0  0  0
   -0.7345  -18.2761   28.0531 C   0  0  0  0  0  0  0  0  0  0  0  0
   -1.4156  -19.1577   27.0247 C   0  0  0  0  0  0  0  0  0  0  0  0
   -1.0512  -20.9852   23.5601 N   0  0  0  0  0  0  0  0  0  0  0  0
   -1.9990  -23.5957   27.4717 C   0  0  0  0  0  0  0  0  0  0  0  0
   -1.7641  -23.4958   28.8569 N   0  0  0  0  0  0  0  0  0  0  0  0
   -3.6113  -23.6882   29.4908 C   0  0  0  0  0  0  0  0  0  0  0  0
   -4.4288  -23.7156   28.3924 C   0  0  0  0  0  0  0  0  0  0  0  0
   -3.5106  -24.1490   27.5662 N   0  0  0  0  0  0  0  0  0  0  0  0
   -3.4212  -25.3963   27.2688 C   0  0  0  0  0  0  0  0  0  0  0  0
   -2.4220  -26.7277   27.2589 H   0  0  0  0  0  0  0  0  0  0  0  0
   -1.7295  -25.8624   24.7611 H   0  0  0  0  0  0  0  0  0  0  0  0
    2.7476  -20.7329   27.1205 H   0  0  0  0  0  0  0  0  0  0  0  0
    4.7350  -18.9813   27.7469 H   0  0  0  0  0  0  0  0  0  0  0  0
    3.2101  -17.9733   24.1947 H   0  0  0  0  0  0  0  0  0  0  0  0
   -1.3804  -17.8418   25.6414 H   0  0  0  0  0  0  0  0  0  0  0  0
    1.2804  -17.8356   27.4915 H   0  0  0  0  0  0  0  0  0  0  0  0
    0.8662  -19.5634   27.5678 H   0  0  0  0  0  0  0  0  0  0  0  0
   -0.6756  -18.6615   29.0755 H   0  0  0  0  0  0  0  0  0  0  0  0
   -1.1294  -17.2629   28.1081 H   0  0  0  0  0  0  0  0  0  0  0  0
   -2.4446  -18.8897   26.9995 H   0  0  0  0  0  0  0  0  0  0  0  0
   -1.2584  -20.1424   27.4423 H   0  0  0  0  0  0  0  0  0  0  0  0
   -3.7983  -23.3626   30.5269 H   0  0  0  0  0  0  0  0  0  0  0  0
   -5.4509  -23.4987   28.0866 H   0  0  0  0  0  0  0  0  0  0  0  0
   -3.9415  -26.2365   27.5993 H   0  0  0  0  0  0  0  0  0  0  0  0
  1  2  1  0
  2  3  2  0
  3  4  1  0
  4  5  1  0
  5  6  2  0
  6  7  1  0
  7  8  2  0
  8  9  1  0
  9 10  2  0
 10 11  1  0
  6 12  1  0
 12 13  1  0
 13 14  1  0
 14 15  1  0
 15 16  1  0
 12 17  1  0
  3 18  1  0
 18 19  2  0
 19 20  1  0
 20 21  2  0
 21 22  1  0
 22 23  1  0
 23  1  2  0
 17  4  2  0
 22 18  1  0
 11  7  1  0
 16 13  1  0
  1 24  1  0
  2 25  1  0
  8 26  1  0
  9 27  1  0
 11 28  1  0
 13 29  1  0
 14 30  1  0
 14 31  1  0
 15 32  1  0
 15 33  1  0
 16 34  1  0
 16 35  1  0
 20 36  1  0
 21 37  1  0
 23 38  1  0
M  END
>  <Energy>  (1305) 
1457.8191687691251

>  <compound_id>  (1305) 
36009

>  <target_id>  (1305) 
1

>  <reference_id>  (1305) 
122

>  <inspiration_ids>  (1305) 
[45, 122]

>  <energy_score>  (1305) 
1359.373836428948

>  <distance_score>  (1305) 
14.041262476841602

>  <path>  (1305) 
/opt/xchem-fragalysis-2/maxwin/BulkDock/SCRATCH/511013/C36009-P122/C36009-P122.minimised.mol

>  <scratch_subdir>  (1305) 
/opt/xchem-fragalysis-2/maxwin/BulkDock/SCRATCH/511013/C36009-P122

>  <fragmenstein_runtime>  (1305) 
19.623338222503662

>  <fragmenstein_outcome>  (1305) 
too moved

>  <fragmenstein_mode>  (1305) 
expansion

>  <fragmenstein_error>  (1305) 


$$$$
C36013-P45
     RDKit          3D

 31 33  0  0  0  0  0  0  0  0999 V2000
    0.8237  -15.7441   21.1900 O   0  0  0  0  0  0  0  0  0  0  0  0
    0.8100  -16.2835   20.1017 C   0  0  0  0  0  0  0  0  0  0  0  0
    1.9012  -15.4847   18.4794 C   0  0  0  0  0  0  0  0  0  0  0  0
    3.2135  -14.4895   17.9425 C   0  0  0  0  0  0  0  0  0  0  0  0
    3.3968  -14.1201   16.5923 C   0  0  0  0  0  0  0  0  0  0  0  0
    4.5722  -13.3487   16.5056 C   0  0  0  0  0  0  0  0  0  0  0  0
    5.1630  -13.2512   17.6865 N   0  0  0  0  0  0  0  0  0  0  0  0
    4.3150  -13.8885   18.5173 N   0  0  0  0  0  0  0  0  0  0  0  0
   -0.0122  -17.6681   20.1891 O   0  0  0  0  0  0  0  0  0  0  0  0
   -0.9821  -18.4332   21.6067 C   0  0  0  0  0  0  0  0  0  0  0  0
   -1.5842  -19.8288   22.9666 C   0  0  0  0  0  0  0  0  0  0  0  0
   -2.7538  -20.6941   22.9512 C   0  0  0  0  0  0  0  0  0  0  0  0
   -4.3428  -20.7420   23.9779 N   0  0  0  0  0  0  0  0  0  0  0  0
   -5.2782  -22.3618   24.4896 C   0  0  0  0  0  0  0  0  0  0  0  0
   -5.8105  -22.8992   25.7542 C   0  0  0  0  0  0  0  0  0  0  0  0
   -5.3257  -21.8917   26.7556 C   0  0  0  0  0  0  0  0  0  0  0  0
   -4.9176  -20.6322   26.0560 C   0  0  0  0  0  0  0  0  0  0  0  0
   -3.9197  -20.1417   24.9435 C   0  0  0  0  0  0  0  0  0  0  0  0
   -2.3917  -20.2468   24.4709 N   0  0  0  0  0  0  0  0  0  0  0  0
    1.3506  -14.7094   17.9303 H   0  0  0  0  0  0  0  0  0  0  0  0
    2.2672  -16.3078   17.8750 H   0  0  0  0  0  0  0  0  0  0  0  0
    2.7448  -14.3937   15.7737 H   0  0  0  0  0  0  0  0  0  0  0  0
    5.0270  -12.8854   15.6398 H   0  0  0  0  0  0  0  0  0  0  0  0
    4.5601  -13.9115   19.5013 H   0  0  0  0  0  0  0  0  0  0  0  0
   -1.7901  -17.8808   21.1385 H   0  0  0  0  0  0  0  0  0  0  0  0
   -0.1404  -18.1297   22.1307 H   0  0  0  0  0  0  0  0  0  0  0  0
   -2.0717  -21.5075   23.2087 H   0  0  0  0  0  0  0  0  0  0  0  0
   -5.5795  -23.0151   23.6091 H   0  0  0  0  0  0  0  0  0  0  0  0
   -6.3701  -23.7985   25.9477 H   0  0  0  0  0  0  0  0  0  0  0  0
   -5.9818  -21.9107   27.6274 H   0  0  0  0  0  0  0  0  0  0  0  0
   -5.5498  -19.7798   26.4105 H   0  0  0  0  0  0  0  0  0  0  0  0
  1  2  2  0
  2  3  1  0
  3  4  1  0
  4  5  2  0
  5  6  1  0
  6  7  2  0
  7  8  1  0
  2  9  1  0
  9 10  1  0
 10 11  1  0
 11 12  2  0
 12 13  1  0
 13 14  1  0
 14 15  2  0
 15 16  1  0
 16 17  2  0
 17 18  1  0
 18 19  2  0
  8  4  1  0
 19 11  1  0
 18 13  1  0
  3 20  1  0
  3 21  1  0
  5 22  1  0
  6 23  1  0
  8 24  1  0
 10 25  1  0
 10 26  1  0
 12 27  1  0
 14 28  1  0
 15 29  1  0
 16 30  1  0
 17 31  1  0
M  END
>  <Energy>  (1306) 
1060.6179505415912

>  <compound_id>  (1306) 
36013

>  <target_id>  (1306) 
1

>  <reference_id>  (1306) 
45

>  <inspiration_ids>  (1306) 
[45, 122]

>  <energy_score>  (1306) 
975.3048114371782

>  <distance_score>  (1306) 
10.734697242245439

>  <path>  (1306) 
/opt/xchem-fragalysis-2/maxwin/BulkDock/SCRATCH/511013/C36013-P45/C36013-P45.minimised.mol

>  <scratch_subdir>  (1306) 
/opt/xchem-fragalysis-2/maxwin/BulkDock/SCRATCH/511013/C36013-P45

>  <fragmenstein_runtime>  (1306) 
10.824390649795532

>  <fragmenstein_outcome>  (1306) 
too moved

>  <fragmenstein_mode>  (1306) 
expansion

>  <fragmenstein_error>  (1306) 


$$$$
C36013-P122
     RDKit          3D

 31 33  0  0  0  0  0  0  0  0999 V2000
    1.2902  -14.2694   17.8760 O   0  0  0  0  0  0  0  0  0  0  0  0
    1.9084  -15.1433   18.5541 C   0  0  0  0  0  0  0  0  0  0  0  0
    3.4190  -15.0829   18.2112 C   0  0  0  0  0  0  0  0  0  0  0  0
    4.2373  -13.7418   17.8523 C   0  0  0  0  0  0  0  0  0  0  0  0
    4.3789  -12.9689   16.7062 C   0  0  0  0  0  0  0  0  0  0  0  0
    5.5429  -12.1838   16.9093 C   0  0  0  0  0  0  0  0  0  0  0  0
    6.1276  -12.4487   18.0799 N   0  0  0  0  0  0  0  0  0  0  0  0
    5.2483  -13.2855   18.6689 N   0  0  0  0  0  0  0  0  0  0  0  0
    0.8932  -16.1429   19.8663 O   0  0  0  0  0  0  0  0  0  0  0  0
   -0.5661  -17.0098   20.8141 C   0  0  0  0  0  0  0  0  0  0  0  0
   -1.0810  -18.6241   21.8355 C   0  0  0  0  0  0  0  0  0  0  0  0
   -1.7451  -20.0468   22.5740 C   0  0  0  0  0  0  0  0  0  0  0  0
   -2.8288  -20.7864   22.0942 N   0  0  0  0  0  0  0  0  0  0  0  0
   -3.9842  -20.7260   20.8935 C   0  0  0  0  0  0  0  0  0  0  0  0
   -5.2857  -20.8439   21.3198 C   0  0  0  0  0  0  0  0  0  0  0  0
   -5.5599  -20.6575   22.8328 C   0  0  0  0  0  0  0  0  0  0  0  0
   -4.5107  -20.4432   23.9331 C   0  0  0  0  0  0  0  0  0  0  0  0
   -2.8386  -20.5212   23.5113 C   0  0  0  0  0  0  0  0  0  0  0  0
   -1.5049  -19.3899   23.3725 N   0  0  0  0  0  0  0  0  0  0  0  0
    4.1810  -15.7414   18.5626 H   0  0  0  0  0  0  0  0  0  0  0  0
    3.2661  -15.2589   17.1281 H   0  0  0  0  0  0  0  0  0  0  0  0
    3.7801  -13.0207   15.8087 H   0  0  0  0  0  0  0  0  0  0  0  0
    5.9998  -11.4682   16.2388 H   0  0  0  0  0  0  0  0  0  0  0  0
    5.4075  -13.5868   19.6220 H   0  0  0  0  0  0  0  0  0  0  0  0
   -0.3056  -16.3430   21.6026 H   0  0  0  0  0  0  0  0  0  0  0  0
   -1.3960  -16.7550   20.1474 H   0  0  0  0  0  0  0  0  0  0  0  0
   -0.9896  -20.9691   23.1482 H   0  0  0  0  0  0  0  0  0  0  0  0
   -3.5892  -20.6597   19.8852 H   0  0  0  0  0  0  0  0  0  0  0  0
   -6.1284  -20.8607   20.6372 H   0  0  0  0  0  0  0  0  0  0  0  0
   -6.6394  -20.5627   22.8980 H   0  0  0  0  0  0  0  0  0  0  0  0
   -4.6594  -20.2452   24.9753 H   0  0  0  0  0  0  0  0  0  0  0  0
  1  2  2  0
  2  3  1  0
  3  4  1  0
  4  5  2  0
  5  6  1  0
  6  7  2  0
  7  8  1  0
  2  9  1  0
  9 10  1  0
 10 11  1  0
 11 12  2  0
 12 13  1  0
 13 14  1  0
 14 15  2  0
 15 16  1  0
 16 17  2  0
 17 18  1  0
 18 19  2  0
  8  4  1  0
 19 11  1  0
 18 13  1  0
  3 20  1  0
  3 21  1  0
  5 22  1  0
  6 23  1  0
  8 24  1  0
 10 25  1  0
 10 26  1  0
 12 27  1  0
 14 28  1  0
 15 29  1  0
 16 30  1  0
 17 31  1  0
M  END
>  <Energy>  (1307) 
1070.4586650327017

>  <compound_id>  (1307) 
36013

>  <target_id>  (1307) 
1

>  <reference_id>  (1307) 
122

>  <inspiration_ids>  (1307) 
[45, 122]

>  <energy_score>  (1307) 
985.1455259282891

>  <distance_score>  (1307) 
10.936416202308665

>  <path>  (1307) 
/opt/xchem-fragalysis-2/maxwin/BulkDock/SCRATCH/511013/C36013-P122/C36013-P122.minimised.mol

>  <scratch_subdir>  (1307) 
/opt/xchem-fragalysis-2/maxwin/BulkDock/SCRATCH/511013/C36013-P122

>  <fragmenstein_runtime>  (1307) 
17.56636095046997

>  <fragmenstein_outcome>  (1307) 
too moved

>  <fragmenstein_mode>  (1307) 
expansion

>  <fragmenstein_error>  (1307) 


$$$$
C36002-P45
     RDKit          3D

 37 39  0  0  0  0  0  0  0  0999 V2000
    4.5169  -13.4301   18.9530 O   0  0  0  0  0  0  0  0  0  0  0  0
    4.4382  -13.1720   20.0912 C   0  0  0  0  0  0  0  0  0  0  0  0
    3.1581  -13.8631   21.0657 N   0  0  0  0  0  0  0  0  0  0  0  0
    1.7569  -15.2107   20.6401 C   0  0  0  0  0  0  0  0  0  0  0  0
    0.2747  -16.7106   21.1593 C   0  0  0  0  0  0  0  0  0  0  0  0
   -0.7508  -18.3796   21.7653 N   0  0  0  0  0  0  0  0  0  0  0  0
   -1.6303  -19.7221   23.0900 C   0  0  0  0  0  0  0  0  0  0  0  0
   -3.3688  -20.3508   24.1251 C   0  0  0  0  0  0  0  0  0  0  0  0
   -4.7187  -20.5947   23.7924 N   0  0  0  0  0  0  0  0  0  0  0  0
   -5.0716  -21.6878   24.7439 C   0  0  0  0  0  0  0  0  0  0  0  0
   -5.6500  -23.2906   24.6479 C   0  0  0  0  0  0  0  0  0  0  0  0
   -6.0501  -23.9385   25.7880 C   0  0  0  0  0  0  0  0  0  0  0  0
   -6.0266  -23.3481   27.0671 C   0  0  0  0  0  0  0  0  0  0  0  0
   -5.4906  -22.1359   27.1657 C   0  0  0  0  0  0  0  0  0  0  0  0
   -4.8837  -21.3135   26.0040 N   0  0  0  0  0  0  0  0  0  0  0  0
   -4.3346  -20.1925   25.4514 C   0  0  0  0  0  0  0  0  0  0  0  0
   -6.1781  -19.0635   26.3073 Br  0  0  0  0  0  0  0  0  0  0  0  0
    5.7505  -12.2443   20.5377 C   0  0  0  0  0  0  0  0  0  0  0  0
    6.8802  -11.6917   21.2796 C   0  0  0  0  0  0  0  0  0  0  0  0
    7.7389  -10.8956   20.4825 C   0  0  0  0  0  0  0  0  0  0  0  0
    7.0427  -10.5978   19.4011 N   0  0  0  0  0  0  0  0  0  0  0  0
    6.0541  -11.5513   19.4209 N   0  0  0  0  0  0  0  0  0  0  0  0
    3.2043  -13.4629   21.9809 H   0  0  0  0  0  0  0  0  0  0  0  0
    2.1623  -15.1152   19.5544 H   0  0  0  0  0  0  0  0  0  0  0  0
    2.5800  -15.6741   20.6777 H   0  0  0  0  0  0  0  0  0  0  0  0
   -0.2367  -16.0325   21.7936 H   0  0  0  0  0  0  0  0  0  0  0  0
   -0.2740  -16.7180   20.2271 H   0  0  0  0  0  0  0  0  0  0  0  0
   -1.0694  -18.6959   20.8415 H   0  0  0  0  0  0  0  0  0  0  0  0
   -2.1499  -20.4433   22.4655 H   0  0  0  0  0  0  0  0  0  0  0  0
   -0.8356  -20.4168   23.3477 H   0  0  0  0  0  0  0  0  0  0  0  0
   -5.7270  -23.6013   23.6109 H   0  0  0  0  0  0  0  0  0  0  0  0
   -6.4266  -24.9488   25.8816 H   0  0  0  0  0  0  0  0  0  0  0  0
   -6.4409  -23.8682   27.9232 H   0  0  0  0  0  0  0  0  0  0  0  0
   -5.5303  -21.7761   28.1468 H   0  0  0  0  0  0  0  0  0  0  0  0
    7.2167  -11.7569   22.3034 H   0  0  0  0  0  0  0  0  0  0  0  0
    8.6719  -10.3973   20.7104 H   0  0  0  0  0  0  0  0  0  0  0  0
    5.3343  -11.5980   18.7110 H   0  0  0  0  0  0  0  0  0  0  0  0
  1  2  2  0
  2  3  1  0
  3  4  1  0
  4  5  1  0
  5  6  1  0
  6  7  1  0
  7  8  1  0
  8  9  1  0
  9 10  2  0
 10 11  1  0
 11 12  2  0
 12 13  1  0
 13 14  2  0
 14 15  1  0
 15 16  1  0
 16 17  1  0
  2 18  1  0
 18 19  2  0
 19 20  1  0
 20 21  2  0
 21 22  1  0
 16  8  2  0
 22 18  1  0
 15 10  1  0
  3 23  1  0
  4 24  1  0
  4 25  1  0
  5 26  1  0
  5 27  1  0
  6 28  1  0
  7 29  1  0
  7 30  1  0
 11 31  1  0
 12 32  1  0
 13 33  1  0
 14 34  1  0
 19 35  1  0
 20 36  1  0
 22 37  1  0
M  END
>  <Energy>  (1308) 
1198.7963510804402

>  <compound_id>  (1308) 
36002

>  <target_id>  (1308) 
1

>  <reference_id>  (1308) 
45

>  <inspiration_ids>  (1308) 
[45, 122]

>  <energy_score>  (1308) 
1141.6128585592523

>  <distance_score>  (1308) 
8.66988634560394

>  <path>  (1308) 
/opt/xchem-fragalysis-2/maxwin/BulkDock/SCRATCH/511013/C36002-P45/C36002-P45.minimised.mol

>  <scratch_subdir>  (1308) 
/opt/xchem-fragalysis-2/maxwin/BulkDock/SCRATCH/511013/C36002-P45

>  <fragmenstein_runtime>  (1308) 
17.696977138519287

>  <fragmenstein_outcome>  (1308) 
too moved

>  <fragmenstein_mode>  (1308) 
expansion

>  <fragmenstein_error>  (1308) 


$$$$
C36002-P122
     RDKit          3D

 37 39  0  0  0  0  0  0  0  0999 V2000
    2.7146  -11.7801   16.2178 O   0  0  0  0  0  0  0  0  0  0  0  0
    3.4049  -11.5238   17.1261 C   0  0  0  0  0  0  0  0  0  0  0  0
    3.5859  -12.6971   18.5166 N   0  0  0  0  0  0  0  0  0  0  0  0
    2.6287  -14.4407   18.9479 C   0  0  0  0  0  0  0  0  0  0  0  0
    1.5426  -15.0802   20.7530 C   0  0  0  0  0  0  0  0  0  0  0  0
   -0.0160  -14.9031   22.2202 N   0  0  0  0  0  0  0  0  0  0  0  0
   -1.2448  -15.2709   23.9217 C   0  0  0  0  0  0  0  0  0  0  0  0
   -2.2257  -16.7165   25.1349 C   0  0  0  0  0  0  0  0  0  0  0  0
   -2.7032  -16.6673   26.7670 N   0  0  0  0  0  0  0  0  0  0  0  0
   -3.2028  -17.7408   27.4748 C   0  0  0  0  0  0  0  0  0  0  0  0
   -4.9023  -18.0534   27.6313 C   0  0  0  0  0  0  0  0  0  0  0  0
   -5.6038  -19.1922   26.6416 C   0  0  0  0  0  0  0  0  0  0  0  0
   -4.4767  -20.0483   25.3977 C   0  0  0  0  0  0  0  0  0  0  0  0
   -2.9046  -19.5183   25.5628 C   0  0  0  0  0  0  0  0  0  0  0  0
   -2.3652  -18.7265   26.5854 N   0  0  0  0  0  0  0  0  0  0  0  0
   -1.3791  -17.9228   26.1797 C   0  0  0  0  0  0  0  0  0  0  0  0
   -0.6931  -17.5822   28.4458 Br  0  0  0  0  0  0  0  0  0  0  0  0
    3.9736   -9.8767   16.9592 C   0  0  0  0  0  0  0  0  0  0  0  0
    3.8904   -8.6525   17.6596 C   0  0  0  0  0  0  0  0  0  0  0  0
    4.4880   -7.6505   16.8715 C   0  0  0  0  0  0  0  0  0  0  0  0
    4.7656   -8.0968   15.6498 N   0  0  0  0  0  0  0  0  0  0  0  0
    4.1277   -9.2943   15.6308 N   0  0  0  0  0  0  0  0  0  0  0  0
    4.2812  -12.3395   19.1568 H   0  0  0  0  0  0  0  0  0  0  0  0
    3.3104  -15.1896   18.5424 H   0  0  0  0  0  0  0  0  0  0  0  0
    1.8890  -14.3668   18.1374 H   0  0  0  0  0  0  0  0  0  0  0  0
    2.5096  -14.7402   21.1557 H   0  0  0  0  0  0  0  0  0  0  0  0
    1.0521  -16.0256   20.4574 H   0  0  0  0  0  0  0  0  0  0  0  0
   -0.5030  -15.7733   21.8294 H   0  0  0  0  0  0  0  0  0  0  0  0
   -1.6299  -14.6267   24.7511 H   0  0  0  0  0  0  0  0  0  0  0  0
   -0.4576  -14.6547   24.3959 H   0  0  0  0  0  0  0  0  0  0  0  0
   -5.4458  -17.3009   28.1984 H   0  0  0  0  0  0  0  0  0  0  0  0
   -6.6495  -19.1931   26.5033 H   0  0  0  0  0  0  0  0  0  0  0  0
   -4.7164  -20.5894   24.5063 H   0  0  0  0  0  0  0  0  0  0  0  0
   -2.2957  -19.9763   24.7693 H   0  0  0  0  0  0  0  0  0  0  0  0
    3.4264   -8.4825   18.6075 H   0  0  0  0  0  0  0  0  0  0  0  0
    4.6847   -6.6181   17.1270 H   0  0  0  0  0  0  0  0  0  0  0  0
    4.0766   -9.8403   14.7776 H   0  0  0  0  0  0  0  0  0  0  0  0
  1  2  2  0
  2  3  1  0
  3  4  1  0
  4  5  1  0
  5  6  1  0
  6  7  1  0
  7  8  1  0
  8  9  1  0
  9 10  2  0
 10 11  1  0
 11 12  2  0
 12 13  1  0
 13 14  2  0
 14 15  1  0
 15 16  1  0
 16 17  1  0
  2 18  1  0
 18 19  2  0
 19 20  1  0
 20 21  2  0
 21 22  1  0
 16  8  2  0
 22 18  1  0
 15 10  1  0
  3 23  1  0
  4 24  1  0
  4 25  1  0
  5 26  1  0
  5 27  1  0
  6 28  1  0
  7 29  1  0
  7 30  1  0
 11 31  1  0
 12 32  1  0
 13 33  1  0
 14 34  1  0
 19 35  1  0
 20 36  1  0
 22 37  1  0
M  END
>  <Energy>  (1309) 
1428.504336809857

>  <compound_id>  (1309) 
36002

>  <target_id>  (1309) 
1

>  <reference_id>  (1309) 
122

>  <inspiration_ids>  (1309) 
[45, 122]

>  <energy_score>  (1309) 
1371.3208442886987

>  <distance_score>  (1309) 
9.898160253656918

>  <path>  (1309) 
/opt/xchem-fragalysis-2/maxwin/BulkDock/SCRATCH/511013/C36002-P122/C36002-P122.minimised.mol

>  <scratch_subdir>  (1309) 
/opt/xchem-fragalysis-2/maxwin/BulkDock/SCRATCH/511013/C36002-P122

>  <fragmenstein_runtime>  (1309) 
26.93786096572876

>  <fragmenstein_outcome>  (1309) 
too moved

>  <fragmenstein_mode>  (1309) 
expansion

>  <fragmenstein_error>  (1309) 


$$$$
C36014-P45
     RDKit          3D

 36 39  0  0  0  0  0  0  0  0999 V2000
   -0.0072  -14.3343   22.5789 O   0  0  0  0  0  0  0  0  0  0  0  0
    0.2188  -14.0010   23.6905 C   0  0  0  0  0  0  0  0  0  0  0  0
    1.8983  -13.0324   23.9457 N   0  0  0  0  0  0  0  0  0  0  0  0
    3.2393  -12.4273   22.6987 C   0  0  0  0  0  0  0  0  0  0  0  0
    3.5334  -13.1582   21.4475 C   0  0  0  0  0  0  0  0  0  0  0  0
    4.2800  -13.0481   20.2054 C   0  0  0  0  0  0  0  0  0  0  0  0
    5.5322  -12.8201   20.2872 C   0  0  0  0  0  0  0  0  0  0  0  0
    5.6395  -11.6444   20.8520 C   0  0  0  0  0  0  0  0  0  0  0  0
    6.7199  -11.0743   19.8134 C   0  0  0  0  0  0  0  0  0  0  0  0
    6.4376  -10.8614   18.5423 C   0  0  0  0  0  0  0  0  0  0  0  0
    7.9067  -10.6320   17.4331 C   0  0  0  0  0  0  0  0  0  0  0  0
    8.7621  -10.6572   18.3419 N   0  0  0  0  0  0  0  0  0  0  0  0
    7.7941  -10.2945   19.3383 N   0  0  0  0  0  0  0  0  0  0  0  0
    4.4218  -11.4025   22.1524 C   0  0  0  0  0  0  0  0  0  0  0  0
   -1.2959  -14.5148   24.8319 C   0  0  0  0  0  0  0  0  0  0  0  0
   -1.9951  -14.5366   26.1661 C   0  0  0  0  0  0  0  0  0  0  0  0
   -3.2574  -15.0747   26.3020 N   0  0  0  0  0  0  0  0  0  0  0  0
   -3.9243  -15.6466   27.3913 C   0  0  0  0  0  0  0  0  0  0  0  0
   -5.2176  -15.9900   27.2519 C   0  0  0  0  0  0  0  0  0  0  0  0
   -5.8922  -15.5875   26.0248 C   0  0  0  0  0  0  0  0  0  0  0  0
   -5.2056  -15.0263   25.0018 C   0  0  0  0  0  0  0  0  0  0  0  0
   -3.7651  -14.9535   25.0722 C   0  0  0  0  0  0  0  0  0  0  0  0
   -2.7095  -15.1765   24.2555 N   0  0  0  0  0  0  0  0  0  0  0  0
    1.9464  -12.7220   24.9133 H   0  0  0  0  0  0  0  0  0  0  0  0
    3.1789  -14.1837   21.5143 H   0  0  0  0  0  0  0  0  0  0  0  0
    4.0318  -13.5988   19.2812 H   0  0  0  0  0  0  0  0  0  0  0  0
    6.0031  -13.3121   19.4970 H   0  0  0  0  0  0  0  0  0  0  0  0
    5.7079  -11.6288   18.3990 H   0  0  0  0  0  0  0  0  0  0  0  0
    8.2020  -10.7656   16.4041 H   0  0  0  0  0  0  0  0  0  0  0  0
    7.6314   -9.3324   19.1441 H   0  0  0  0  0  0  0  0  0  0  0  0
    4.8679  -10.5841   22.7044 H   0  0  0  0  0  0  0  0  0  0  0  0
   -1.5524  -14.6057   27.1603 H   0  0  0  0  0  0  0  0  0  0  0  0
   -3.3584  -15.8040   28.2994 H   0  0  0  0  0  0  0  0  0  0  0  0
   -5.7940  -16.4583   28.0430 H   0  0  0  0  0  0  0  0  0  0  0  0
   -6.9688  -15.7178   25.9662 H   0  0  0  0  0  0  0  0  0  0  0  0
   -5.7055  -14.7255   24.0892 H   0  0  0  0  0  0  0  0  0  0  0  0
  1  2  2  0
  2  3  1  0
  3  4  1  0
  4  5  2  0
  5  6  1  0
  6  7  2  0
  7  8  1  0
  8  9  1  0
  9 10  2  0
 10 11  1  0
 11 12  2  0
 12 13  1  0
  8 14  2  0
  2 15  1  0
 15 16  2  0
 16 17  1  0
 17 18  1  0
 18 19  2  0
 19 20  1  0
 20 21  2  0
 21 22  1  0
 22 23  2  0
 14  4  1  0
 23 15  1  0
 13  9  1  0
 22 17  1  0
  3 24  1  0
  5 25  1  0
  6 26  1  0
  7 27  1  0
 10 28  1  0
 11 29  1  0
 13 30  1  0
 14 31  1  0
 16 32  1  0
 18 33  1  0
 19 34  1  0
 20 35  1  0
 21 36  1  0
M  END
>  <Energy>  (1310) 
873.9227227888972

>  <compound_id>  (1310) 
36014

>  <target_id>  (1310) 
1

>  <reference_id>  (1310) 
45

>  <inspiration_ids>  (1310) 
[45, 122]

>  <energy_score>  (1310) 
775.3397716861341

>  <distance_score>  (1310) 
11.675118963249774

>  <path>  (1310) 
/opt/xchem-fragalysis-2/maxwin/BulkDock/SCRATCH/511013/C36014-P45/C36014-P45.minimised.mol

>  <scratch_subdir>  (1310) 
/opt/xchem-fragalysis-2/maxwin/BulkDock/SCRATCH/511013/C36014-P45

>  <fragmenstein_runtime>  (1310) 
16.2600839138031

>  <fragmenstein_outcome>  (1310) 
too moved

>  <fragmenstein_mode>  (1310) 
expansion

>  <fragmenstein_error>  (1310) 


$$$$
C36014-P122
     RDKit          3D

 36 39  0  0  0  0  0  0  0  0999 V2000
    0.8604  -15.0854   22.0826 O   0  0  0  0  0  0  0  0  0  0  0  0
    1.1353  -15.3104   20.9239 C   0  0  0  0  0  0  0  0  0  0  0  0
    2.5884  -14.3688   20.0775 N   0  0  0  0  0  0  0  0  0  0  0  0
    3.9150  -12.9864   20.7704 C   0  0  0  0  0  0  0  0  0  0  0  0
    4.5027  -13.0751   19.5143 C   0  0  0  0  0  0  0  0  0  0  0  0
    5.7994  -12.6499   19.2700 C   0  0  0  0  0  0  0  0  0  0  0  0
    6.2810  -11.1949   19.0815 C   0  0  0  0  0  0  0  0  0  0  0  0
    6.6632  -10.4203   20.0205 C   0  0  0  0  0  0  0  0  0  0  0  0
    6.6989   -8.1880   19.8245 C   0  0  0  0  0  0  0  0  0  0  0  0
    6.9269   -6.9241   20.6852 C   0  0  0  0  0  0  0  0  0  0  0  0
    6.4278   -5.7680   20.0995 C   0  0  0  0  0  0  0  0  0  0  0  0
    6.0537   -6.0093   18.8667 N   0  0  0  0  0  0  0  0  0  0  0  0
    5.8745   -7.3206   18.8597 N   0  0  0  0  0  0  0  0  0  0  0  0
    5.2788  -11.5587   20.8514 C   0  0  0  0  0  0  0  0  0  0  0  0
   -0.1452  -16.4757   20.2237 C   0  0  0  0  0  0  0  0  0  0  0  0
   -0.9969  -17.4830   20.7269 C   0  0  0  0  0  0  0  0  0  0  0  0
   -2.1013  -17.8912   19.8005 N   0  0  0  0  0  0  0  0  0  0  0  0
   -2.8790  -19.0937   19.4925 C   0  0  0  0  0  0  0  0  0  0  0  0
   -3.8410  -19.1451   18.5688 C   0  0  0  0  0  0  0  0  0  0  0  0
   -3.9978  -17.9933   17.7512 C   0  0  0  0  0  0  0  0  0  0  0  0
   -3.2127  -16.9223   17.9450 C   0  0  0  0  0  0  0  0  0  0  0  0
   -2.2857  -16.7949   19.0554 C   0  0  0  0  0  0  0  0  0  0  0  0
   -1.4456  -15.8588   19.5036 N   0  0  0  0  0  0  0  0  0  0  0  0
    2.7249  -14.7436   19.1457 H   0  0  0  0  0  0  0  0  0  0  0  0
    4.0313  -13.5788   18.6799 H   0  0  0  0  0  0  0  0  0  0  0  0
    6.3026  -13.0510   20.1924 H   0  0  0  0  0  0  0  0  0  0  0  0
    6.6849  -10.8128   18.1980 H   0  0  0  0  0  0  0  0  0  0  0  0
    7.2839   -6.8485   21.7041 H   0  0  0  0  0  0  0  0  0  0  0  0
    6.3699   -4.7740   20.5164 H   0  0  0  0  0  0  0  0  0  0  0  0
    5.2852   -7.7420   18.1554 H   0  0  0  0  0  0  0  0  0  0  0  0
    5.0841  -11.0776   21.8493 H   0  0  0  0  0  0  0  0  0  0  0  0
   -0.8012  -18.1436   21.5376 H   0  0  0  0  0  0  0  0  0  0  0  0
   -2.6848  -20.0342   19.9883 H   0  0  0  0  0  0  0  0  0  0  0  0
   -4.3953  -20.0506   18.3517 H   0  0  0  0  0  0  0  0  0  0  0  0
   -4.6630  -18.0482   16.8955 H   0  0  0  0  0  0  0  0  0  0  0  0
   -3.2423  -16.1481   17.1846 H   0  0  0  0  0  0  0  0  0  0  0  0
  1  2  2  0
  2  3  1  0
  3  4  1  0
  4  5  2  0
  5  6  1  0
  6  7  2  0
  7  8  1  0
  8  9  1  0
  9 10  2  0
 10 11  1  0
 11 12  2  0
 12 13  1  0
  8 14  2  0
  2 15  1  0
 15 16  2  0
 16 17  1  0
 17 18  1  0
 18 19  2  0
 19 20  1  0
 20 21  2  0
 21 22  1  0
 22 23  2  0
 14  4  1  0
 23 15  1  0
 13  9  1  0
 22 17  1  0
  3 24  1  0
  5 25  1  0
  6 26  1  0
  7 27  1  0
 10 28  1  0
 11 29  1  0
 13 30  1  0
 14 31  1  0
 16 32  1  0
 18 33  1  0
 19 34  1  0
 20 35  1  0
 21 36  1  0
M  END
>  <Energy>  (1311) 
1176.2456696461304

>  <compound_id>  (1311) 
36014

>  <target_id>  (1311) 
1

>  <reference_id>  (1311) 
122

>  <inspiration_ids>  (1311) 
[45, 122]

>  <energy_score>  (1311) 
1077.6627185433701

>  <distance_score>  (1311) 
11.78328669853241

>  <path>  (1311) 
/opt/xchem-fragalysis-2/maxwin/BulkDock/SCRATCH/511013/C36014-P122/C36014-P122.minimised.mol

>  <scratch_subdir>  (1311) 
/opt/xchem-fragalysis-2/maxwin/BulkDock/SCRATCH/511013/C36014-P122

>  <fragmenstein_runtime>  (1311) 
25.63488459587097

>  <fragmenstein_outcome>  (1311) 
too moved

>  <fragmenstein_mode>  (1311) 
expansion

>  <fragmenstein_error>  (1311) 


$$$$
C36015-P45
     RDKit          3D

 27 30  0  0  0  0  0  0  0  0999 V2000
   -9.5771  -18.3795   22.3812 Br  0  0  0  0  0  0  0  0  0  0  0  0
   -9.0134  -16.6444   22.8207 C   0  0  0  0  0  0  0  0  0  0  0  0
   -8.7636  -16.3463   24.2255 C   0  0  0  0  0  0  0  0  0  0  0  0
   -8.2681  -15.1461   24.5765 C   0  0  0  0  0  0  0  0  0  0  0  0
   -8.0509  -14.1766   23.5947 N   0  0  0  0  0  0  0  0  0  0  0  0
   -7.5218  -12.9042   23.6957 C   0  0  0  0  0  0  0  0  0  0  0  0
   -7.4615  -12.3712   22.4094 C   0  0  0  0  0  0  0  0  0  0  0  0
   -6.7631  -11.0511   21.9800 C   0  0  0  0  0  0  0  0  0  0  0  0
   -6.6131  -10.0252   22.8381 N   0  0  0  0  0  0  0  0  0  0  0  0
   -5.5997   -9.2400   22.2680 O   0  0  0  0  0  0  0  0  0  0  0  0
   -5.1976   -9.8259   21.0820 C   0  0  0  0  0  0  0  0  0  0  0  0
   -4.0138   -9.3706   20.3478 C   0  0  0  0  0  0  0  0  0  0  0  0
   -3.0059   -8.4686   20.6745 C   0  0  0  0  0  0  0  0  0  0  0  0
   -2.1083   -8.4727   19.5818 C   0  0  0  0  0  0  0  0  0  0  0  0
   -2.5270   -9.2793   18.6031 N   0  0  0  0  0  0  0  0  0  0  0  0
   -3.6457   -9.8448   19.1145 N   0  0  0  0  0  0  0  0  0  0  0  0
   -5.9826  -10.8721   20.8017 N   0  0  0  0  0  0  0  0  0  0  0  0
   -8.0413  -13.3028   21.5326 N   0  0  0  0  0  0  0  0  0  0  0  0
   -8.3611  -14.3761   22.2537 C   0  0  0  0  0  0  0  0  0  0  0  0
   -8.8433  -15.6819   21.8860 C   0  0  0  0  0  0  0  0  0  0  0  0
   -9.0168  -17.0684   24.9839 H   0  0  0  0  0  0  0  0  0  0  0  0
   -8.0557  -14.8716   25.6020 H   0  0  0  0  0  0  0  0  0  0  0  0
   -7.1728  -12.5100   24.6385 H   0  0  0  0  0  0  0  0  0  0  0  0
   -2.9233   -7.8981   21.5883 H   0  0  0  0  0  0  0  0  0  0  0  0
   -1.1821   -7.9257   19.4571 H   0  0  0  0  0  0  0  0  0  0  0  0
   -4.1333  -10.5461   18.5667 H   0  0  0  0  0  0  0  0  0  0  0  0
   -9.0278  -15.8685   20.8340 H   0  0  0  0  0  0  0  0  0  0  0  0
  1  2  1  0
  2  3  1  0
  3  4  2  0
  4  5  1  0
  5  6  1  0
  6  7  2  0
  7  8  1  0
  8  9  2  0
  9 10  1  0
 10 11  1  0
 11 12  1  0
 12 13  2  0
 13 14  1  0
 14 15  2  0
 15 16  1  0
 11 17  2  0
  7 18  1  0
 18 19  2  0
 19 20  1  0
 20  2  2  0
 19  5  1  0
 17  8  1  0
 16 12  1  0
  3 21  1  0
  4 22  1  0
  6 23  1  0
 13 24  1  0
 14 25  1  0
 16 26  1  0
 20 27  1  0
M  END
>  <Energy>  (1312) 
60.643005074803348

>  <compound_id>  (1312) 
36015

>  <target_id>  (1312) 
1

>  <reference_id>  (1312) 
45

>  <inspiration_ids>  (1312) 
[45, 122]

>  <energy_score>  (1312) 
-22.0814538361592

>  <distance_score>  (1312) 
14.847111090991175

>  <path>  (1312) 
/opt/xchem-fragalysis-2/maxwin/BulkDock/SCRATCH/511013/C36015-P45/C36015-P45.minimised.mol

>  <scratch_subdir>  (1312) 
/opt/xchem-fragalysis-2/maxwin/BulkDock/SCRATCH/511013/C36015-P45

>  <fragmenstein_runtime>  (1312) 
9.960599660873413

>  <fragmenstein_outcome>  (1312) 
too moved

>  <fragmenstein_mode>  (1312) 
expansion

>  <fragmenstein_error>  (1312) 


$$$$
C36015-P122
     RDKit          3D

 27 30  0  0  0  0  0  0  0  0999 V2000
   -5.8946  -22.9287   26.6579 Br  0  0  0  0  0  0  0  0  0  0  0  0
   -5.1939  -22.9388   24.3758 C   0  0  0  0  0  0  0  0  0  0  0  0
   -4.2705  -24.6629   24.5121 C   0  0  0  0  0  0  0  0  0  0  0  0
   -2.6843  -25.0135   25.1179 C   0  0  0  0  0  0  0  0  0  0  0  0
   -1.5223  -23.4106   25.4473 N   0  0  0  0  0  0  0  0  0  0  0  0
    0.2415  -23.2758   24.9976 C   0  0  0  0  0  0  0  0  0  0  0  0
    0.4588  -22.4410   23.8528 C   0  0  0  0  0  0  0  0  0  0  0  0
    1.9030  -22.2972   23.2549 C   0  0  0  0  0  0  0  0  0  0  0  0
    2.7085  -23.3760   23.2928 N   0  0  0  0  0  0  0  0  0  0  0  0
    3.9669  -22.8992   22.9456 O   0  0  0  0  0  0  0  0  0  0  0  0
    3.8859  -21.5385   22.7084 C   0  0  0  0  0  0  0  0  0  0  0  0
    5.1187  -20.7933   22.4214 C   0  0  0  0  0  0  0  0  0  0  0  0
    6.4063  -20.9148   22.9366 C   0  0  0  0  0  0  0  0  0  0  0  0
    7.2046  -19.9285   22.3054 C   0  0  0  0  0  0  0  0  0  0  0  0
    6.5114  -19.2422   21.4034 N   0  0  0  0  0  0  0  0  0  0  0  0
    5.2683  -19.8022   21.4980 N   0  0  0  0  0  0  0  0  0  0  0  0
    2.6184  -21.1375   22.8792 N   0  0  0  0  0  0  0  0  0  0  0  0
   -0.9050  -21.6085   23.4931 N   0  0  0  0  0  0  0  0  0  0  0  0
   -2.0284  -21.7501   24.3785 C   0  0  0  0  0  0  0  0  0  0  0  0
   -4.0429  -21.4817   24.5553 C   0  0  0  0  0  0  0  0  0  0  0  0
   -4.6695  -25.3152   23.7317 H   0  0  0  0  0  0  0  0  0  0  0  0
   -2.1530  -25.9012   24.8019 H   0  0  0  0  0  0  0  0  0  0  0  0
    0.8246  -23.8255   25.7012 H   0  0  0  0  0  0  0  0  0  0  0  0
    6.7187  -21.6114   23.7009 H   0  0  0  0  0  0  0  0  0  0  0  0
    8.2494  -19.6992   22.4649 H   0  0  0  0  0  0  0  0  0  0  0  0
    4.5525  -19.4925   20.8533 H   0  0  0  0  0  0  0  0  0  0  0  0
   -4.3688  -20.4645   24.3129 H   0  0  0  0  0  0  0  0  0  0  0  0
  1  2  1  0
  2  3  1  0
  3  4  2  0
  4  5  1  0
  5  6  1  0
  6  7  2  0
  7  8  1  0
  8  9  2  0
  9 10  1  0
 10 11  1  0
 11 12  1  0
 12 13  2  0
 13 14  1  0
 14 15  2  0
 15 16  1  0
 11 17  2  0
  7 18  1  0
 18 19  2  0
 19 20  1  0
 20  2  2  0
 19  5  1  0
 17  8  1  0
 16 12  1  0
  3 21  1  0
  4 22  1  0
  6 23  1  0
 13 24  1  0
 14 25  1  0
 16 26  1  0
 20 27  1  0
M  END
>  <Energy>  (1313) 
817.90509806160435

>  <compound_id>  (1313) 
36015

>  <target_id>  (1313) 
1

>  <reference_id>  (1313) 
122

>  <inspiration_ids>  (1313) 
[45, 122]

>  <energy_score>  (1313) 
735.1806391506337

>  <distance_score>  (1313) 
13.635493649026555

>  <path>  (1313) 
/opt/xchem-fragalysis-2/maxwin/BulkDock/SCRATCH/511013/C36015-P122/C36015-P122.minimised.mol

>  <scratch_subdir>  (1313) 
/opt/xchem-fragalysis-2/maxwin/BulkDock/SCRATCH/511013/C36015-P122

>  <fragmenstein_runtime>  (1313) 
13.16059398651123

>  <fragmenstein_outcome>  (1313) 
too moved

>  <fragmenstein_mode>  (1313) 
expansion

>  <fragmenstein_error>  (1313) 


$$$$
C36016-P45
     RDKit          3D

 40 42  0  0  0  0  0  0  0  0999 V2000
   -7.4243  -24.7491   26.0663 C   0  0  0  0  0  0  0  0  0  0  0  0
   -6.2191  -23.8073   25.7663 C   0  0  0  0  0  0  0  0  0  0  0  0
   -5.8710  -23.5072   27.1033 C   0  0  0  0  0  0  0  0  0  0  0  0
   -5.4941  -22.2840   27.3636 C   0  0  0  0  0  0  0  0  0  0  0  0
   -4.9856  -21.3461   26.3507 C   0  0  0  0  0  0  0  0  0  0  0  0
   -5.0559  -20.1035   26.1352 N   0  0  0  0  0  0  0  0  0  0  0  0
   -4.6210  -20.1756   24.8451 C   0  0  0  0  0  0  0  0  0  0  0  0
   -3.2701  -20.5484   24.2886 C   0  0  0  0  0  0  0  0  0  0  0  0
   -1.6609  -19.9314   23.1040 C   0  0  0  0  0  0  0  0  0  0  0  0
   -0.9413  -18.5271   21.7461 N   0  0  0  0  0  0  0  0  0  0  0  0
    0.1708  -17.0508   20.8638 C   0  0  0  0  0  0  0  0  0  0  0  0
    1.6412  -15.5712   20.2756 C   0  0  0  0  0  0  0  0  0  0  0  0
    2.2009  -14.3528   18.6575 N   0  0  0  0  0  0  0  0  0  0  0  0
    3.6259  -13.1412   18.4386 C   0  0  0  0  0  0  0  0  0  0  0  0
    4.5320  -13.0109   19.2628 O   0  0  0  0  0  0  0  0  0  0  0  0
    3.7804  -11.7752   17.0602 C   0  0  0  0  0  0  0  0  0  0  0  0
    3.6709  -10.1992   17.0659 C   0  0  0  0  0  0  0  0  0  0  0  0
    4.0536   -9.5348   15.7816 C   0  0  0  0  0  0  0  0  0  0  0  0
    4.0561  -10.4669   14.8384 N   0  0  0  0  0  0  0  0  0  0  0  0
    3.7121  -11.6185   15.5545 N   0  0  0  0  0  0  0  0  0  0  0  0
   -4.6901  -21.5844   24.9463 N   0  0  0  0  0  0  0  0  0  0  0  0
   -5.5382  -23.1844   24.6769 C   0  0  0  0  0  0  0  0  0  0  0  0
   -8.2092  -24.7795   25.3099 H   0  0  0  0  0  0  0  0  0  0  0  0
   -7.9992  -24.4071   26.9430 H   0  0  0  0  0  0  0  0  0  0  0  0
   -7.0836  -25.7645   26.3060 H   0  0  0  0  0  0  0  0  0  0  0  0
   -6.0396  -24.1991   27.9237 H   0  0  0  0  0  0  0  0  0  0  0  0
   -5.3809  -22.1211   28.4078 H   0  0  0  0  0  0  0  0  0  0  0  0
   -5.4009  -20.7763   23.7617 H   0  0  0  0  0  0  0  0  0  0  0  0
   -0.8116  -20.5674   23.3490 H   0  0  0  0  0  0  0  0  0  0  0  0
   -2.1816  -20.6833   22.5096 H   0  0  0  0  0  0  0  0  0  0  0  0
   -1.2504  -18.8996   20.8365 H   0  0  0  0  0  0  0  0  0  0  0  0
   -0.1458  -16.3836   21.6372 H   0  0  0  0  0  0  0  0  0  0  0  0
   -0.6136  -16.8725   20.1331 H   0  0  0  0  0  0  0  0  0  0  0  0
    2.4763  -15.1722   20.7766 H   0  0  0  0  0  0  0  0  0  0  0  0
    1.2096  -15.0490   21.0757 H   0  0  0  0  0  0  0  0  0  0  0  0
    1.6252  -14.3456   17.8162 H   0  0  0  0  0  0  0  0  0  0  0  0
    3.3252   -9.5214   17.8351 H   0  0  0  0  0  0  0  0  0  0  0  0
    4.1635   -8.4836   15.5597 H   0  0  0  0  0  0  0  0  0  0  0  0
    3.2797  -12.3132   14.9830 H   0  0  0  0  0  0  0  0  0  0  0  0
   -5.6960  -23.3893   23.6175 H   0  0  0  0  0  0  0  0  0  0  0  0
  1  2  1  0
  2  3  1  0
  3  4  2  0
  4  5  1  0
  5  6  2  0
  6  7  1  0
  7  8  2  0
  8  9  1  0
  9 10  1  0
 10 11  1  0
 11 12  1  0
 12 13  1  0
 13 14  1  0
 14 15  2  0
 14 16  1  0
 16 17  2  0
 17 18  1  0
 18 19  2  0
 19 20  1  0
  8 21  1  0
 21 22  1  0
 22  2  2  0
 21  5  1  0
 20 16  1  0
  1 23  1  0
  1 24  1  0
  1 25  1  0
  3 26  1  0
  4 27  1  0
  7 28  1  0
  9 29  1  0
  9 30  1  0
 10 31  1  0
 11 32  1  0
 11 33  1  0
 12 34  1  0
 12 35  1  0
 13 36  1  0
 17 37  1  0
 18 38  1  0
 20 39  1  0
 22 40  1  0
M  END
>  <Energy>  (1314) 
1432.3056950344553

>  <compound_id>  (1314) 
36016

>  <target_id>  (1314) 
1

>  <reference_id>  (1314) 
45

>  <inspiration_ids>  (1314) 
[45, 122]

>  <energy_score>  (1314) 
1407.3566882081907

>  <distance_score>  (1314) 
8.836772551314898

>  <path>  (1314) 
/opt/xchem-fragalysis-2/maxwin/BulkDock/SCRATCH/511013/C36016-P45/C36016-P45.minimised.mol

>  <scratch_subdir>  (1314) 
/opt/xchem-fragalysis-2/maxwin/BulkDock/SCRATCH/511013/C36016-P45

>  <fragmenstein_runtime>  (1314) 
18.675745964050293

>  <fragmenstein_outcome>  (1314) 
too moved

>  <fragmenstein_mode>  (1314) 
expansion

>  <fragmenstein_error>  (1314) 


$$$$
C36016-P122
     RDKit          3D

 40 42  0  0  0  0  0  0  0  0999 V2000
   -5.5738  -23.1332   24.0244 C   0  0  0  0  0  0  0  0  0  0  0  0
   -4.6601  -21.4598   24.5591 C   0  0  0  0  0  0  0  0  0  0  0  0
   -4.8523  -21.2865   25.8812 C   0  0  0  0  0  0  0  0  0  0  0  0
   -4.6876  -20.0760   25.5077 C   0  0  0  0  0  0  0  0  0  0  0  0
   -2.9604  -19.5566   25.4085 C   0  0  0  0  0  0  0  0  0  0  0  0
   -2.1048  -19.1801   26.2745 N   0  0  0  0  0  0  0  0  0  0  0  0
   -1.7916  -18.5679   25.1738 C   0  0  0  0  0  0  0  0  0  0  0  0
   -1.2958  -19.1741   23.2842 C   0  0  0  0  0  0  0  0  0  0  0  0
   -0.5073  -18.1037   21.5101 C   0  0  0  0  0  0  0  0  0  0  0  0
    0.3030  -16.6157   20.2342 N   0  0  0  0  0  0  0  0  0  0  0  0
    1.4634  -15.5675   18.7828 C   0  0  0  0  0  0  0  0  0  0  0  0
    1.1404  -13.9486   17.4343 C   0  0  0  0  0  0  0  0  0  0  0  0
    1.9126  -12.6408   16.0556 N   0  0  0  0  0  0  0  0  0  0  0  0
    2.8066  -11.8688   15.8894 C   0  0  0  0  0  0  0  0  0  0  0  0
    3.5066  -11.8418   17.3579 O   0  0  0  0  0  0  0  0  0  0  0  0
    3.6261  -10.9995   14.7380 C   0  0  0  0  0  0  0  0  0  0  0  0
    3.8401  -11.1631   13.3781 C   0  0  0  0  0  0  0  0  0  0  0  0
    4.6053  -10.0407   12.9696 C   0  0  0  0  0  0  0  0  0  0  0  0
    4.8441   -9.1887   13.9663 N   0  0  0  0  0  0  0  0  0  0  0  0
    4.2460   -9.7930   15.0125 N   0  0  0  0  0  0  0  0  0  0  0  0
   -2.2324  -20.3236   24.0641 N   0  0  0  0  0  0  0  0  0  0  0  0
   -3.3175  -20.9084   23.7626 C   0  0  0  0  0  0  0  0  0  0  0  0
   -4.9826  -24.0268   23.7798 H   0  0  0  0  0  0  0  0  0  0  0  0
   -6.1261  -23.5491   24.8857 H   0  0  0  0  0  0  0  0  0  0  0  0
   -6.2096  -22.9288   23.1397 H   0  0  0  0  0  0  0  0  0  0  0  0
   -5.3410  -21.9069   26.6390 H   0  0  0  0  0  0  0  0  0  0  0  0
   -5.3713  -19.6772   26.2834 H   0  0  0  0  0  0  0  0  0  0  0  0
   -1.9496  -17.4988   25.3404 H   0  0  0  0  0  0  0  0  0  0  0  0
   -0.3378  -17.1739   21.9579 H   0  0  0  0  0  0  0  0  0  0  0  0
   -1.4623  -18.0509   20.9569 H   0  0  0  0  0  0  0  0  0  0  0  0
   -0.6288  -16.2336   20.0289 H   0  0  0  0  0  0  0  0  0  0  0  0
    2.3700  -15.9796   18.1792 H   0  0  0  0  0  0  0  0  0  0  0  0
    2.2473  -15.0003   19.4610 H   0  0  0  0  0  0  0  0  0  0  0  0
    0.2057  -13.4791   17.7661 H   0  0  0  0  0  0  0  0  0  0  0  0
    0.8101  -14.5070   16.6013 H   0  0  0  0  0  0  0  0  0  0  0  0
    1.1085  -13.1227   15.8166 H   0  0  0  0  0  0  0  0  0  0  0  0
    3.4919  -11.9797   12.7651 H   0  0  0  0  0  0  0  0  0  0  0  0
    4.9810   -9.8111   11.9808 H   0  0  0  0  0  0  0  0  0  0  0  0
    4.3741   -9.4369   15.9550 H   0  0  0  0  0  0  0  0  0  0  0  0
   -3.0552  -20.9626   22.6982 H   0  0  0  0  0  0  0  0  0  0  0  0
  1  2  1  0
  2  3  1  0
  3  4  2  0
  4  5  1  0
  5  6  2  0
  6  7  1  0
  7  8  2  0
  8  9  1  0
  9 10  1  0
 10 11  1  0
 11 12  1  0
 12 13  1  0
 13 14  1  0
 14 15  2  0
 14 16  1  0
 16 17  2  0
 17 18  1  0
 18 19  2  0
 19 20  1  0
  8 21  1  0
 21 22  1  0
 22  2  2  0
 21  5  1  0
 20 16  1  0
  1 23  1  0
  1 24  1  0
  1 25  1  0
  3 26  1  0
  4 27  1  0
  7 28  1  0
  9 29  1  0
  9 30  1  0
 10 31  1  0
 11 32  1  0
 11 33  1  0
 12 34  1  0
 12 35  1  0
 13 36  1  0
 17 37  1  0
 18 38  1  0
 20 39  1  0
 22 40  1  0
M  END
>  <Energy>  (1315) 
1673.2665565332918

>  <compound_id>  (1315) 
36016

>  <target_id>  (1315) 
1

>  <reference_id>  (1315) 
122

>  <inspiration_ids>  (1315) 
[45, 122]

>  <energy_score>  (1315) 
1648.3175497070488

>  <distance_score>  (1315) 
9.670747456789382

>  <path>  (1315) 
/opt/xchem-fragalysis-2/maxwin/BulkDock/SCRATCH/511013/C36016-P122/C36016-P122.minimised.mol

>  <scratch_subdir>  (1315) 
/opt/xchem-fragalysis-2/maxwin/BulkDock/SCRATCH/511013/C36016-P122

>  <fragmenstein_runtime>  (1315) 
28.208415269851685

>  <fragmenstein_outcome>  (1315) 
too moved

>  <fragmenstein_mode>  (1315) 
expansion

>  <fragmenstein_error>  (1315) 


$$$$
C36017-P45
     RDKit          3D

 32 34  0  0  0  0  0  0  0  0999 V2000
   -1.4674  -20.2578   23.0587 C   0  0  0  0  0  0  0  0  0  0  0  0
   -1.1970  -18.9329   21.7951 C   0  0  0  0  0  0  0  0  0  0  0  0
   -1.9088  -18.7797   20.3527 C   0  0  0  0  0  0  0  0  0  0  0  0
   -1.6525  -17.5216   20.1997 N   0  0  0  0  0  0  0  0  0  0  0  0
   -2.2365  -16.5206   19.4501 C   0  0  0  0  0  0  0  0  0  0  0  0
   -1.4238  -15.4570   19.1642 C   0  0  0  0  0  0  0  0  0  0  0  0
   -1.6223  -14.1893   18.0066 N   0  0  0  0  0  0  0  0  0  0  0  0
   -0.5466  -13.4266   17.0999 C   0  0  0  0  0  0  0  0  0  0  0  0
    0.6527  -13.6236   16.9615 O   0  0  0  0  0  0  0  0  0  0  0  0
   -1.1479  -12.1792   16.3502 C   0  0  0  0  0  0  0  0  0  0  0  0
   -0.0371  -11.1600   15.9064 C   0  0  0  0  0  0  0  0  0  0  0  0
    1.1556  -11.3072   15.2065 C   0  0  0  0  0  0  0  0  0  0  0  0
    1.7859  -10.0453   15.2234 C   0  0  0  0  0  0  0  0  0  0  0  0
    1.0444   -9.1314   15.8487 N   0  0  0  0  0  0  0  0  0  0  0  0
   -0.0473   -9.8219   16.2439 N   0  0  0  0  0  0  0  0  0  0  0  0
    0.1249  -16.0880   19.8567 C   0  0  0  0  0  0  0  0  0  0  0  0
    0.1308  -16.3627   21.0999 C   0  0  0  0  0  0  0  0  0  0  0  0
   -0.5203  -17.4811   20.9517 C   0  0  0  0  0  0  0  0  0  0  0  0
   -0.1235  -18.3242   21.7616 N   0  0  0  0  0  0  0  0  0  0  0  0
   -0.6006  -20.8978   23.2542 H   0  0  0  0  0  0  0  0  0  0  0  0
   -2.2250  -20.8792   22.6133 H   0  0  0  0  0  0  0  0  0  0  0  0
   -2.0234  -20.2240   23.9584 H   0  0  0  0  0  0  0  0  0  0  0  0
   -2.7040  -19.3331   19.8646 H   0  0  0  0  0  0  0  0  0  0  0  0
   -3.1950  -16.8048   19.0539 H   0  0  0  0  0  0  0  0  0  0  0  0
   -2.5276  -13.8247   17.8202 H   0  0  0  0  0  0  0  0  0  0  0  0
   -1.6724  -12.5374   15.4589 H   0  0  0  0  0  0  0  0  0  0  0  0
   -1.8561  -11.6750   17.0158 H   0  0  0  0  0  0  0  0  0  0  0  0
    1.5425  -12.2273   14.7894 H   0  0  0  0  0  0  0  0  0  0  0  0
    2.7443   -9.7630   14.8076 H   0  0  0  0  0  0  0  0  0  0  0  0
   -0.7526   -9.3214   16.7730 H   0  0  0  0  0  0  0  0  0  0  0  0
    0.7412  -16.8791   19.4226 H   0  0  0  0  0  0  0  0  0  0  0  0
   -0.2273  -15.7507   21.8884 H   0  0  0  0  0  0  0  0  0  0  0  0
  1  2  1  0
  2  3  2  0
  3  4  1  0
  4  5  1  0
  5  6  2  0
  6  7  1  0
  7  8  1  0
  8  9  2  0
  8 10  1  0
 10 11  1  0
 11 12  2  0
 12 13  1  0
 13 14  2  0
 14 15  1  0
  6 16  1  0
 16 17  2  0
 17 18  1  0
 18 19  2  0
 19  2  1  0
 18  4  1  0
 15 11  1  0
  1 20  1  0
  1 21  1  0
  1 22  1  0
  3 23  1  0
  5 24  1  0
  7 25  1  0
 10 26  1  0
 10 27  1  0
 12 28  1  0
 13 29  1  0
 15 30  1  0
 16 31  1  0
 17 32  1  0
M  END
>  <Energy>  (1316) 
354.82319298886574

>  <compound_id>  (1316) 
36017

>  <target_id>  (1316) 
1

>  <reference_id>  (1316) 
45

>  <inspiration_ids>  (1316) 
[45, 122]

>  <energy_score>  (1316) 
275.48114977575597

>  <distance_score>  (1316) 
13.97214227668753

>  <path>  (1316) 
/opt/xchem-fragalysis-2/maxwin/BulkDock/SCRATCH/511013/C36017-P45/C36017-P45.minimised.mol

>  <scratch_subdir>  (1316) 
/opt/xchem-fragalysis-2/maxwin/BulkDock/SCRATCH/511013/C36017-P45

>  <fragmenstein_runtime>  (1316) 
25.278019666671753

>  <fragmenstein_outcome>  (1316) 
too moved

>  <fragmenstein_mode>  (1316) 
expansion

>  <fragmenstein_error>  (1316) 


$$$$
C36017-P122
     RDKit          3D

 32 34  0  0  0  0  0  0  0  0999 V2000
   -5.3490  -23.0045   27.9565 C   0  0  0  0  0  0  0  0  0  0  0  0
   -5.0586  -21.4299   28.8264 C   0  0  0  0  0  0  0  0  0  0  0  0
   -5.1117  -19.8475   30.3114 C   0  0  0  0  0  0  0  0  0  0  0  0
   -4.9193  -18.7759   28.2828 N   0  0  0  0  0  0  0  0  0  0  0  0
   -3.5063  -17.5360   27.3012 C   0  0  0  0  0  0  0  0  0  0  0  0
   -2.5727  -17.2681   25.6248 C   0  0  0  0  0  0  0  0  0  0  0  0
   -1.5205  -15.9698   24.3536 N   0  0  0  0  0  0  0  0  0  0  0  0
   -0.5376  -16.2672   22.4421 C   0  0  0  0  0  0  0  0  0  0  0  0
   -0.5337  -17.3509   21.6508 O   0  0  0  0  0  0  0  0  0  0  0  0
    0.5818  -15.0863   21.8080 C   0  0  0  0  0  0  0  0  0  0  0  0
    2.2450  -14.6536   20.6099 C   0  0  0  0  0  0  0  0  0  0  0  0
    3.4351  -13.4387   20.8769 C   0  0  0  0  0  0  0  0  0  0  0  0
    4.3151  -13.1451   19.5161 C   0  0  0  0  0  0  0  0  0  0  0  0
    3.7979  -13.8201   18.4520 N   0  0  0  0  0  0  0  0  0  0  0  0
    2.6622  -14.6392   18.9574 N   0  0  0  0  0  0  0  0  0  0  0  0
   -2.7259  -19.2340   25.6076 C   0  0  0  0  0  0  0  0  0  0  0  0
   -4.3281  -20.0074   25.4175 C   0  0  0  0  0  0  0  0  0  0  0  0
   -5.5328  -19.7734   26.8289 C   0  0  0  0  0  0  0  0  0  0  0  0
   -5.8173  -20.9563   27.4385 N   0  0  0  0  0  0  0  0  0  0  0  0
   -4.6325  -23.7236   28.3582 H   0  0  0  0  0  0  0  0  0  0  0  0
   -5.2069  -22.8695   26.9103 H   0  0  0  0  0  0  0  0  0  0  0  0
   -6.4124  -23.1795   28.0262 H   0  0  0  0  0  0  0  0  0  0  0  0
   -6.0283  -19.8101   30.9691 H   0  0  0  0  0  0  0  0  0  0  0  0
   -3.5247  -16.5624   27.8270 H   0  0  0  0  0  0  0  0  0  0  0  0
   -1.4125  -15.0193   24.6761 H   0  0  0  0  0  0  0  0  0  0  0  0
   -0.0228  -14.2737   22.2689 H   0  0  0  0  0  0  0  0  0  0  0  0
    0.5583  -15.8797   20.9483 H   0  0  0  0  0  0  0  0  0  0  0  0
    3.5228  -12.8724   21.7866 H   0  0  0  0  0  0  0  0  0  0  0  0
    5.1476  -12.4628   19.4275 H   0  0  0  0  0  0  0  0  0  0  0  0
    2.1589  -15.1421   18.2627 H   0  0  0  0  0  0  0  0  0  0  0  0
   -2.2079  -19.8113   24.9045 H   0  0  0  0  0  0  0  0  0  0  0  0
   -4.5427  -20.9491   24.9367 H   0  0  0  0  0  0  0  0  0  0  0  0
  1  2  1  0
  2  3  2  0
  3  4  1  0
  4  5  1  0
  5  6  2  0
  6  7  1  0
  7  8  1  0
  8  9  2  0
  8 10  1  0
 10 11  1  0
 11 12  2  0
 12 13  1  0
 13 14  2  0
 14 15  1  0
  6 16  1  0
 16 17  2  0
 17 18  1  0
 18 19  2  0
 19  2  1  0
 18  4  1  0
 15 11  1  0
  1 20  1  0
  1 21  1  0
  1 22  1  0
  3 23  1  0
  5 24  1  0
  7 25  1  0
 10 26  1  0
 10 27  1  0
 12 28  1  0
 13 29  1  0
 15 30  1  0
 16 31  1  0
 17 32  1  0
M  END
>  <Energy>  (1317) 
2462.4642402870245

>  <compound_id>  (1317) 
36017

>  <target_id>  (1317) 
1

>  <reference_id>  (1317) 
122

>  <inspiration_ids>  (1317) 
[45, 122]

>  <energy_score>  (1317) 
2383.1221970738734

>  <distance_score>  (1317) 
11.877639364505866

>  <path>  (1317) 
/opt/xchem-fragalysis-2/maxwin/BulkDock/SCRATCH/511013/C36017-P122/C36017-P122.minimised.mol

>  <scratch_subdir>  (1317) 
/opt/xchem-fragalysis-2/maxwin/BulkDock/SCRATCH/511013/C36017-P122

>  <fragmenstein_runtime>  (1317) 
13.506707429885864

>  <fragmenstein_outcome>  (1317) 
too moved

>  <fragmenstein_mode>  (1317) 
expansion

>  <fragmenstein_error>  (1317) 


$$$$
C36018-P45
     RDKit          3D

 40 43  0  0  0  0  0  0  0  0999 V2000
   -4.7695  -19.4987   18.9560 C   0  0  0  0  0  0  0  0  0  0  0  0
   -4.0917  -18.2400   18.7121 C   0  0  0  0  0  0  0  0  0  0  0  0
   -2.8876  -17.9290   19.2290 C   0  0  0  0  0  0  0  0  0  0  0  0
   -2.1725  -18.8180   20.0209 N   0  0  0  0  0  0  0  0  0  0  0  0
   -1.0461  -18.3348   21.1756 C   0  0  0  0  0  0  0  0  0  0  0  0
   -0.0776  -16.7080   21.2820 C   0  0  0  0  0  0  0  0  0  0  0  0
    1.3633  -15.6735   20.6695 N   0  0  0  0  0  0  0  0  0  0  0  0
    0.9790  -16.0191   19.3415 C   0  0  0  0  0  0  0  0  0  0  0  0
    2.2792  -14.9568   18.2914 C   0  0  0  0  0  0  0  0  0  0  0  0
    3.6889  -14.0539   18.4976 C   0  0  0  0  0  0  0  0  0  0  0  0
    4.2347  -13.3834   19.7796 C   0  0  0  0  0  0  0  0  0  0  0  0
    5.6657  -12.3876   20.2366 C   0  0  0  0  0  0  0  0  0  0  0  0
    6.8141  -11.9224   20.9715 C   0  0  0  0  0  0  0  0  0  0  0  0
    7.6165  -10.9774   20.2743 C   0  0  0  0  0  0  0  0  0  0  0  0
    6.8658  -10.5840   19.2610 N   0  0  0  0  0  0  0  0  0  0  0  0
    5.8936  -11.5499   19.2449 N   0  0  0  0  0  0  0  0  0  0  0  0
    2.7254  -14.3021   20.7154 C   0  0  0  0  0  0  0  0  0  0  0  0
   -1.3492  -19.4091   22.4014 C   0  0  0  0  0  0  0  0  0  0  0  0
   -2.6386  -20.6311   21.8696 N   0  0  0  0  0  0  0  0  0  0  0  0
   -3.0250  -20.2512   20.4535 C   0  0  0  0  0  0  0  0  0  0  0  0
   -4.3003  -20.4420   19.7826 C   0  0  0  0  0  0  0  0  0  0  0  0
   -5.7336  -19.6372   18.4736 H   0  0  0  0  0  0  0  0  0  0  0  0
   -4.6436  -17.5031   18.1340 H   0  0  0  0  0  0  0  0  0  0  0  0
   -2.4705  -16.9371   19.1871 H   0  0  0  0  0  0  0  0  0  0  0  0
   -0.8635  -16.3533   20.6157 H   0  0  0  0  0  0  0  0  0  0  0  0
    0.5565  -17.5208   20.9936 H   0  0  0  0  0  0  0  0  0  0  0  0
   -0.0790  -15.6559   19.3419 H   0  0  0  0  0  0  0  0  0  0  0  0
    0.9679  -17.1442   19.1173 H   0  0  0  0  0  0  0  0  0  0  0  0
    2.6419  -15.5980   17.4925 H   0  0  0  0  0  0  0  0  0  0  0  0
    1.6080  -14.2765   17.7477 H   0  0  0  0  0  0  0  0  0  0  0  0
    4.4332  -14.6964   18.0337 H   0  0  0  0  0  0  0  0  0  0  0  0
    3.5755  -13.0848   18.0407 H   0  0  0  0  0  0  0  0  0  0  0  0
    5.1888  -13.9531   19.6000 H   0  0  0  0  0  0  0  0  0  0  0  0
    7.2189  -12.0338   21.9446 H   0  0  0  0  0  0  0  0  0  0  0  0
    8.5376  -10.4744   20.5371 H   0  0  0  0  0  0  0  0  0  0  0  0
    5.1003  -11.4746   18.6237 H   0  0  0  0  0  0  0  0  0  0  0  0
    3.2077  -13.4374   21.3536 H   0  0  0  0  0  0  0  0  0  0  0  0
    3.0936  -14.6623   21.7145 H   0  0  0  0  0  0  0  0  0  0  0  0
   -0.8881  -19.6904   23.3156 H   0  0  0  0  0  0  0  0  0  0  0  0
   -4.8989  -21.3213   19.9808 H   0  0  0  0  0  0  0  0  0  0  0  0
  1  2  1  0
  2  3  2  0
  3  4  1  0
  4  5  1  0
  5  6  1  0
  6  7  1  0
  7  8  1  0
  8  9  1  0
  9 10  1  0
 10 11  1  0
 11 12  1  0
 12 13  2  0
 13 14  1  0
 14 15  2  0
 15 16  1  0
 11 17  1  0
  5 18  2  0
 18 19  1  0
 19 20  2  0
 20 21  1  0
 21  1  2  0
 20  4  1  0
 17  7  1  0
 16 12  1  0
  1 22  1  0
  2 23  1  0
  3 24  1  0
  6 25  1  0
  6 26  1  0
  8 27  1  0
  8 28  1  0
  9 29  1  0
  9 30  1  0
 10 31  1  0
 10 32  1  0
 11 33  1  0
 13 34  1  0
 14 35  1  0
 16 36  1  0
 17 37  1  0
 17 38  1  0
 18 39  1  0
 21 40  1  0
M  END
>  <Energy>  (1318) 
889.31590251902514

>  <compound_id>  (1318) 
36018

>  <target_id>  (1318) 
1

>  <reference_id>  (1318) 
45

>  <inspiration_ids>  (1318) 
[45, 122]

>  <energy_score>  (1318) 
813.0998067184769

>  <distance_score>  (1318) 
11.56075020912816

>  <path>  (1318) 
/opt/xchem-fragalysis-2/maxwin/BulkDock/SCRATCH/511013/C36018-P45/C36018-P45.minimised.mol

>  <scratch_subdir>  (1318) 
/opt/xchem-fragalysis-2/maxwin/BulkDock/SCRATCH/511013/C36018-P45

>  <fragmenstein_runtime>  (1318) 
15.283692121505737

>  <fragmenstein_outcome>  (1318) 
too moved

>  <fragmenstein_mode>  (1318) 
expansion

>  <fragmenstein_error>  (1318) 


$$$$
C36018-P122
     RDKit          3D

 40 43  0  0  0  0  0  0  0  0999 V2000
    1.0742  -25.0496   20.2047 C   0  0  0  0  0  0  0  0  0  0  0  0
    1.6909  -25.2502   21.4420 C   0  0  0  0  0  0  0  0  0  0  0  0
    1.6691  -24.2388   22.3265 C   0  0  0  0  0  0  0  0  0  0  0  0
    0.9131  -22.5329   22.2329 N   0  0  0  0  0  0  0  0  0  0  0  0
    1.5496  -20.5730   22.5291 C   0  0  0  0  0  0  0  0  0  0  0  0
    3.1237  -19.0751   23.0878 C   0  0  0  0  0  0  0  0  0  0  0  0
    3.4980  -16.9599   23.4573 N   0  0  0  0  0  0  0  0  0  0  0  0
    4.6085  -15.6004   23.3222 C   0  0  0  0  0  0  0  0  0  0  0  0
    5.0513  -14.4533   21.4618 C   0  0  0  0  0  0  0  0  0  0  0  0
    3.7546  -13.2394   21.1409 C   0  0  0  0  0  0  0  0  0  0  0  0
    3.3853  -12.8762   22.6434 C   0  0  0  0  0  0  0  0  0  0  0  0
    4.5808  -11.3227   22.2183 C   0  0  0  0  0  0  0  0  0  0  0  0
    5.6887  -10.5970   23.0274 C   0  0  0  0  0  0  0  0  0  0  0  0
    7.0334  -10.8071   22.5501 C   0  0  0  0  0  0  0  0  0  0  0  0
    7.0607  -11.3886   21.3634 N   0  0  0  0  0  0  0  0  0  0  0  0
    5.7575  -11.6397   21.0077 N   0  0  0  0  0  0  0  0  0  0  0  0
    3.1132  -14.8913   23.3386 C   0  0  0  0  0  0  0  0  0  0  0  0
    0.0501  -21.1961   23.2041 C   0  0  0  0  0  0  0  0  0  0  0  0
   -0.4961  -22.3012   22.3556 N   0  0  0  0  0  0  0  0  0  0  0  0
    0.2493  -22.8663   21.0676 C   0  0  0  0  0  0  0  0  0  0  0  0
    0.4153  -23.9087   20.0468 C   0  0  0  0  0  0  0  0  0  0  0  0
    1.1316  -25.8030   19.4281 H   0  0  0  0  0  0  0  0  0  0  0  0
    2.1988  -26.1846   21.6537 H   0  0  0  0  0  0  0  0  0  0  0  0
    2.2460  -24.5094   23.2317 H   0  0  0  0  0  0  0  0  0  0  0  0
    3.2712  -19.3060   24.1510 H   0  0  0  0  0  0  0  0  0  0  0  0
    3.9119  -19.3116   22.4091 H   0  0  0  0  0  0  0  0  0  0  0  0
    4.7812  -15.1291   24.3904 H   0  0  0  0  0  0  0  0  0  0  0  0
    5.4705  -16.2414   23.8176 H   0  0  0  0  0  0  0  0  0  0  0  0
    3.6374  -14.5627   21.6840 H   0  0  0  0  0  0  0  0  0  0  0  0
    5.3087  -14.9950   22.8596 H   0  0  0  0  0  0  0  0  0  0  0  0
    4.1552  -12.6977   20.3174 H   0  0  0  0  0  0  0  0  0  0  0  0
    2.9317  -13.7535   20.6290 H   0  0  0  0  0  0  0  0  0  0  0  0
    2.6124  -12.2549   23.1009 H   0  0  0  0  0  0  0  0  0  0  0  0
    5.5296   -9.7939   23.7249 H   0  0  0  0  0  0  0  0  0  0  0  0
    7.9540  -10.4240   22.9733 H   0  0  0  0  0  0  0  0  0  0  0  0
    5.5749  -11.9868   20.0668 H   0  0  0  0  0  0  0  0  0  0  0  0
    2.0322  -14.7934   23.3751 H   0  0  0  0  0  0  0  0  0  0  0  0
    3.4292  -14.4144   24.3148 H   0  0  0  0  0  0  0  0  0  0  0  0
   -0.8077  -20.6105   23.4817 H   0  0  0  0  0  0  0  0  0  0  0  0
   -0.0822  -23.8385   19.0832 H   0  0  0  0  0  0  0  0  0  0  0  0
  1  2  1  0
  2  3  2  0
  3  4  1  0
  4  5  1  0
  5  6  1  0
  6  7  1  0
  7  8  1  0
  8  9  1  0
  9 10  1  0
 10 11  1  0
 11 12  1  0
 12 13  2  0
 13 14  1  0
 14 15  2  0
 15 16  1  0
 11 17  1  0
  5 18  2  0
 18 19  1  0
 19 20  2  0
 20 21  1  0
 21  1  2  0
 20  4  1  0
 17  7  1  0
 16 12  1  0
  1 22  1  0
  2 23  1  0
  3 24  1  0
  6 25  1  0
  6 26  1  0
  8 27  1  0
  8 28  1  0
  9 29  1  0
  9 30  1  0
 10 31  1  0
 10 32  1  0
 11 33  1  0
 13 34  1  0
 14 35  1  0
 16 36  1  0
 17 37  1  0
 17 38  1  0
 18 39  1  0
 21 40  1  0
M  END
>  <Energy>  (1319) 
2213.4258074593727

>  <compound_id>  (1319) 
36018

>  <target_id>  (1319) 
1

>  <reference_id>  (1319) 
122

>  <inspiration_ids>  (1319) 
[45, 122]

>  <energy_score>  (1319) 
2137.2097116588957

>  <distance_score>  (1319) 
11.449893279121397

>  <path>  (1319) 
/opt/xchem-fragalysis-2/maxwin/BulkDock/SCRATCH/511013/C36018-P122/C36018-P122.minimised.mol

>  <scratch_subdir>  (1319) 
/opt/xchem-fragalysis-2/maxwin/BulkDock/SCRATCH/511013/C36018-P122

>  <fragmenstein_runtime>  (1319) 
23.796913623809814

>  <fragmenstein_outcome>  (1319) 
too moved

>  <fragmenstein_mode>  (1319) 
expansion

>  <fragmenstein_error>  (1319) 


$$$$
C36019-P45
     RDKit          3D

 41 44  0  0  0  0  0  0  0  0999 V2000
    1.8018  -19.2249   24.7523 O   0  0  0  0  0  0  0  0  0  0  0  0
    0.6148  -18.9620   24.7192 C   0  0  0  0  0  0  0  0  0  0  0  0
   -0.5530  -19.2555   26.4107 N   0  0  0  0  0  0  0  0  0  0  0  0
   -0.1661  -20.1425   28.0689 C   0  0  0  0  0  0  0  0  0  0  0  0
   -0.0471  -21.9631   28.5328 C   0  0  0  0  0  0  0  0  0  0  0  0
   -1.1974  -23.5175   28.5379 N   0  0  0  0  0  0  0  0  0  0  0  0
   -2.2068  -24.8282   27.4707 C   0  0  0  0  0  0  0  0  0  0  0  0
   -3.3555  -25.5882   27.4091 C   0  0  0  0  0  0  0  0  0  0  0  0
   -4.4026  -24.8228   27.8302 C   0  0  0  0  0  0  0  0  0  0  0  0
   -3.8646  -23.6132   27.8315 C   0  0  0  0  0  0  0  0  0  0  0  0
   -1.9514  -23.1265   27.6243 C   0  0  0  0  0  0  0  0  0  0  0  0
   -1.2798  -21.5682   28.2585 N   0  0  0  0  0  0  0  0  0  0  0  0
   -0.1291  -18.5246   22.8386 N   0  0  0  0  0  0  0  0  0  0  0  0
    0.5696  -18.5700   21.3562 C   0  0  0  0  0  0  0  0  0  0  0  0
    0.3040  -17.5721   19.8041 C   0  0  0  0  0  0  0  0  0  0  0  0
    0.6958  -16.1198   19.9097 C   0  0  0  0  0  0  0  0  0  0  0  0
    2.3467  -14.9391   19.6903 C   0  0  0  0  0  0  0  0  0  0  0  0
    2.8519  -14.7039   18.4201 C   0  0  0  0  0  0  0  0  0  0  0  0
    4.0430  -14.0022   18.6038 C   0  0  0  0  0  0  0  0  0  0  0  0
    4.3074  -13.2085   19.6716 N   0  0  0  0  0  0  0  0  0  0  0  0
    3.1622  -13.7417   20.5724 N   0  0  0  0  0  0  0  0  0  0  0  0
   -0.8259  -16.3601   20.4890 C   0  0  0  0  0  0  0  0  0  0  0  0
   -0.2854  -16.8107   21.8804 C   0  0  0  0  0  0  0  0  0  0  0  0
   -1.5212  -19.0700   26.1866 H   0  0  0  0  0  0  0  0  0  0  0  0
    0.5728  -22.2536   29.3780 H   0  0  0  0  0  0  0  0  0  0  0  0
   -1.7877  -25.0858   26.4320 H   0  0  0  0  0  0  0  0  0  0  0  0
   -3.5768  -26.2803   26.6024 H   0  0  0  0  0  0  0  0  0  0  0  0
   -5.4531  -25.0468   27.8150 H   0  0  0  0  0  0  0  0  0  0  0  0
   -4.6552  -22.8495   27.9338 H   0  0  0  0  0  0  0  0  0  0  0  0
    1.4814  -19.3050   21.3387 H   0  0  0  0  0  0  0  0  0  0  0  0
    1.2488  -17.8575   21.4239 H   0  0  0  0  0  0  0  0  0  0  0  0
   -0.6495  -18.0141   19.3826 H   0  0  0  0  0  0  0  0  0  0  0  0
    0.8956  -17.8116   18.8437 H   0  0  0  0  0  0  0  0  0  0  0  0
    1.2042  -15.8717   20.7673 H   0  0  0  0  0  0  0  0  0  0  0  0
    2.6185  -15.2549   17.5370 H   0  0  0  0  0  0  0  0  0  0  0  0
    4.8159  -14.4621   18.0623 H   0  0  0  0  0  0  0  0  0  0  0  0
    3.1281  -13.5939   21.5697 H   0  0  0  0  0  0  0  0  0  0  0  0
   -1.5462  -15.5225   20.3628 H   0  0  0  0  0  0  0  0  0  0  0  0
   -1.6433  -17.0581   20.1856 H   0  0  0  0  0  0  0  0  0  0  0  0
   -0.5115  -15.7926   22.2964 H   0  0  0  0  0  0  0  0  0  0  0  0
    0.4975  -16.1866   21.9806 H   0  0  0  0  0  0  0  0  0  0  0  0
  1  2  2  0
  2  3  1  0
  3  4  1  0
  4  5  2  0
  5  6  1  0
  6  7  1  0
  7  8  2  0
  8  9  1  0
  9 10  2  0
 10 11  1  0
 11 12  2  0
  2 13  1  0
 13 14  1  0
 14 15  1  0
 15 16  1  0
 16 17  1  0
 17 18  2  0
 18 19  1  0
 19 20  2  0
 20 21  1  0
 16 22  1  0
 22 23  1  0
 12  4  1  0
 23 13  1  0
 11  6  1  0
 21 17  1  0
  3 24  1  0
  5 25  1  0
  7 26  1  0
  8 27  1  0
  9 28  1  0
 10 29  1  0
 14 30  1  0
 14 31  1  0
 15 32  1  0
 15 33  1  0
 16 34  1  0
 18 35  1  0
 19 36  1  0
 21 37  1  0
 22 38  1  0
 22 39  1  0
 23 40  1  0
 23 41  1  0
M  END
>  <Energy>  (1320) 
2139.4784971695599

>  <compound_id>  (1320) 
36019

>  <target_id>  (1320) 
1

>  <reference_id>  (1320) 
45

>  <inspiration_ids>  (1320) 
[45, 122]

>  <energy_score>  (1320) 
2160.227304933638

>  <distance_score>  (1320) 
10.889325474234886

>  <path>  (1320) 
/opt/xchem-fragalysis-2/maxwin/BulkDock/SCRATCH/511013/C36019-P45/C36019-P45.minimised.mol

>  <scratch_subdir>  (1320) 
/opt/xchem-fragalysis-2/maxwin/BulkDock/SCRATCH/511013/C36019-P45

>  <fragmenstein_runtime>  (1320) 
19.681216955184937

>  <fragmenstein_outcome>  (1320) 
too moved

>  <fragmenstein_mode>  (1320) 
expansion

>  <fragmenstein_error>  (1320) 


$$$$
C36019-P122
     RDKit          3D

 41 44  0  0  0  0  0  0  0  0999 V2000
   -0.7163  -19.0087   23.6387 O   0  0  0  0  0  0  0  0  0  0  0  0
   -1.1992  -18.9953   22.6438 C   0  0  0  0  0  0  0  0  0  0  0  0
   -2.7317  -20.3580   22.7224 N   0  0  0  0  0  0  0  0  0  0  0  0
   -3.6324  -21.3567   24.2784 C   0  0  0  0  0  0  0  0  0  0  0  0
   -5.2361  -22.5226   24.2793 C   0  0  0  0  0  0  0  0  0  0  0  0
   -5.7942  -23.7267   25.4106 N   0  0  0  0  0  0  0  0  0  0  0  0
   -6.2419  -25.3828   25.2631 C   0  0  0  0  0  0  0  0  0  0  0  0
   -6.7708  -26.8510   26.7138 C   0  0  0  0  0  0  0  0  0  0  0  0
   -7.0573  -25.5707   28.3460 C   0  0  0  0  0  0  0  0  0  0  0  0
   -6.2606  -23.8850   28.0837 C   0  0  0  0  0  0  0  0  0  0  0  0
   -5.5734  -22.8912   26.6395 C   0  0  0  0  0  0  0  0  0  0  0  0
   -4.7843  -21.4547   25.8873 N   0  0  0  0  0  0  0  0  0  0  0  0
   -0.6070  -17.1706   21.6132 N   0  0  0  0  0  0  0  0  0  0  0  0
    0.4744  -15.4838   22.1309 C   0  0  0  0  0  0  0  0  0  0  0  0
    2.1727  -14.4640   23.1475 C   0  0  0  0  0  0  0  0  0  0  0  0
    3.0426  -12.9274   21.9378 C   0  0  0  0  0  0  0  0  0  0  0  0
    3.1593  -10.7643   22.5968 C   0  0  0  0  0  0  0  0  0  0  0  0
    2.8747   -8.8130   22.8415 C   0  0  0  0  0  0  0  0  0  0  0  0
    1.7645   -7.8565   22.6627 C   0  0  0  0  0  0  0  0  0  0  0  0
    1.0363   -8.5333   21.8460 N   0  0  0  0  0  0  0  0  0  0  0  0
    1.9388   -9.5789   21.5335 N   0  0  0  0  0  0  0  0  0  0  0  0
    2.1093  -14.6910   20.7429 C   0  0  0  0  0  0  0  0  0  0  0  0
    0.8513  -16.6143   20.4629 C   0  0  0  0  0  0  0  0  0  0  0  0
   -3.1408  -20.4513   21.7637 H   0  0  0  0  0  0  0  0  0  0  0  0
   -5.7239  -22.9663   23.3701 H   0  0  0  0  0  0  0  0  0  0  0  0
   -6.6072  -26.8057   26.1765 H   0  0  0  0  0  0  0  0  0  0  0  0
   -7.8467  -27.4390   26.8054 H   0  0  0  0  0  0  0  0  0  0  0  0
   -8.1261  -25.6451   28.7100 H   0  0  0  0  0  0  0  0  0  0  0  0
   -6.9766  -23.0349   28.2013 H   0  0  0  0  0  0  0  0  0  0  0  0
    0.0234  -14.4489   22.3085 H   0  0  0  0  0  0  0  0  0  0  0  0
   -0.6205  -15.1743   22.3353 H   0  0  0  0  0  0  0  0  0  0  0  0
    1.9212  -13.6768   23.9215 H   0  0  0  0  0  0  0  0  0  0  0  0
    3.1030  -15.0297   23.3572 H   0  0  0  0  0  0  0  0  0  0  0  0
    3.9413  -12.9809   21.3007 H   0  0  0  0  0  0  0  0  0  0  0  0
    3.8068   -8.1565   22.9670 H   0  0  0  0  0  0  0  0  0  0  0  0
    1.6207   -6.8199   22.9305 H   0  0  0  0  0  0  0  0  0  0  0  0
    1.5110  -10.0574   20.7519 H   0  0  0  0  0  0  0  0  0  0  0  0
    2.4793  -14.5683   19.7015 H   0  0  0  0  0  0  0  0  0  0  0  0
    2.8897  -14.9823   21.3027 H   0  0  0  0  0  0  0  0  0  0  0  0
    0.7384  -17.1004   19.4923 H   0  0  0  0  0  0  0  0  0  0  0  0
    0.0343  -16.0709   20.0164 H   0  0  0  0  0  0  0  0  0  0  0  0
  1  2  2  0
  2  3  1  0
  3  4  1  0
  4  5  2  0
  5  6  1  0
  6  7  1  0
  7  8  2  0
  8  9  1  0
  9 10  2  0
 10 11  1  0
 11 12  2  0
  2 13  1  0
 13 14  1  0
 14 15  1  0
 15 16  1  0
 16 17  1  0
 17 18  2  0
 18 19  1  0
 19 20  2  0
 20 21  1  0
 16 22  1  0
 22 23  1  0
 12  4  1  0
 23 13  1  0
 11  6  1  0
 21 17  1  0
  3 24  1  0
  5 25  1  0
  7 26  1  0
  8 27  1  0
  9 28  1  0
 10 29  1  0
 14 30  1  0
 14 31  1  0
 15 32  1  0
 15 33  1  0
 16 34  1  0
 18 35  1  0
 19 36  1  0
 21 37  1  0
 22 38  1  0
 22 39  1  0
 23 40  1  0
 23 41  1  0
M  END
>  <Energy>  (1321) 
4113.1825781045163

>  <compound_id>  (1321) 
36019

>  <target_id>  (1321) 
1

>  <reference_id>  (1321) 
122

>  <inspiration_ids>  (1321) 
[45, 122]

>  <energy_score>  (1321) 
4133.931385868568

>  <distance_score>  (1321) 
9.379177878289038

>  <path>  (1321) 
/opt/xchem-fragalysis-2/maxwin/BulkDock/SCRATCH/511013/C36019-P122/C36019-P122.minimised.mol

>  <scratch_subdir>  (1321) 
/opt/xchem-fragalysis-2/maxwin/BulkDock/SCRATCH/511013/C36019-P122

>  <fragmenstein_runtime>  (1321) 
20.393773317337036

>  <fragmenstein_outcome>  (1321) 
too moved

>  <fragmenstein_mode>  (1321) 
expansion

>  <fragmenstein_error>  (1321) 


$$$$
C36020-P45
     RDKit          3D

 31 33  0  0  0  0  0  0  0  0999 V2000
    1.4378  -12.1050   23.4444 O   0  0  0  0  0  0  0  0  0  0  0  0
    2.3624  -12.8516   24.2787 S   0  0  0  0  0  0  0  0  0  0  0  0
    3.0874  -14.0356   23.7891 O   0  0  0  0  0  0  0  0  0  0  0  0
    0.9701  -13.5502   26.1771 C   0  0  0  0  0  0  0  0  0  0  0  0
   -0.8675  -14.3731   27.1632 C   0  0  0  0  0  0  0  0  0  0  0  0
   -1.6792  -14.5965   28.5863 C   0  0  0  0  0  0  0  0  0  0  0  0
   -2.8153  -15.3239   28.4517 N   0  0  0  0  0  0  0  0  0  0  0  0
   -3.8555  -15.6675   29.3177 C   0  0  0  0  0  0  0  0  0  0  0  0
   -4.7867  -16.5399   28.8823 C   0  0  0  0  0  0  0  0  0  0  0  0
   -4.5012  -17.2606   27.6496 C   0  0  0  0  0  0  0  0  0  0  0  0
   -3.3756  -16.9927   26.9695 C   0  0  0  0  0  0  0  0  0  0  0  0
   -2.7366  -15.7549   27.1852 C   0  0  0  0  0  0  0  0  0  0  0  0
   -2.1116  -14.8321   26.4176 N   0  0  0  0  0  0  0  0  0  0  0  0
    3.6859  -11.8802   22.7454 C   0  0  0  0  0  0  0  0  0  0  0  0
    5.1217  -10.6527   22.3859 C   0  0  0  0  0  0  0  0  0  0  0  0
    5.7063   -9.4644   22.8579 C   0  0  0  0  0  0  0  0  0  0  0  0
    6.8063   -9.1428   22.0262 C   0  0  0  0  0  0  0  0  0  0  0  0
    6.9704  -10.0262   21.0564 N   0  0  0  0  0  0  0  0  0  0  0  0
    5.9575  -10.8915   21.2355 N   0  0  0  0  0  0  0  0  0  0  0  0
    1.7581  -13.9358   26.8141 H   0  0  0  0  0  0  0  0  0  0  0  0
    0.7645  -14.0017   25.1433 H   0  0  0  0  0  0  0  0  0  0  0  0
   -1.4677  -14.2342   29.5906 H   0  0  0  0  0  0  0  0  0  0  0  0
   -3.8976  -15.1643   30.2740 H   0  0  0  0  0  0  0  0  0  0  0  0
   -5.6583  -16.8127   29.4675 H   0  0  0  0  0  0  0  0  0  0  0  0
   -5.1183  -18.1005   27.3824 H   0  0  0  0  0  0  0  0  0  0  0  0
   -2.9055  -17.6718   26.2759 H   0  0  0  0  0  0  0  0  0  0  0  0
    3.1679  -10.9697   22.8285 H   0  0  0  0  0  0  0  0  0  0  0  0
    3.6346  -12.4912   21.8507 H   0  0  0  0  0  0  0  0  0  0  0  0
    5.4631   -8.8450   23.6978 H   0  0  0  0  0  0  0  0  0  0  0  0
    7.4876   -8.3053   22.1051 H   0  0  0  0  0  0  0  0  0  0  0  0
    5.8242  -11.6270   20.5420 H   0  0  0  0  0  0  0  0  0  0  0  0
  1  2  2  0
  2  3  2  0
  2  4  1  0
  4  5  1  0
  5  6  2  0
  6  7  1  0
  7  8  1  0
  8  9  2  0
  9 10  1  0
 10 11  2  0
 11 12  1  0
 12 13  2  0
  2 14  1  0
 14 15  1  0
 15 16  2  0
 16 17  1  0
 17 18  2  0
 18 19  1  0
 13  5  1  0
 19 15  1  0
 12  7  1  0
  4 20  1  0
  4 21  1  0
  6 22  1  0
  8 23  1  0
  9 24  1  0
 10 25  1  0
 11 26  1  0
 14 27  1  0
 14 28  1  0
 16 29  1  0
 17 30  1  0
 19 31  1  0
M  END
>  <Energy>  (1322) 
818.12958794096903

>  <compound_id>  (1322) 
36020

>  <target_id>  (1322) 
1

>  <reference_id>  (1322) 
45

>  <inspiration_ids>  (1322) 
[45, 122]

>  <energy_score>  (1322) 
710.4299987411283

>  <distance_score>  (1322) 
11.915965197146749

>  <path>  (1322) 
/opt/xchem-fragalysis-2/maxwin/BulkDock/SCRATCH/511013/C36020-P45/C36020-P45.minimised.mol

>  <scratch_subdir>  (1322) 
/opt/xchem-fragalysis-2/maxwin/BulkDock/SCRATCH/511013/C36020-P45

>  <fragmenstein_runtime>  (1322) 
11.621289491653442

>  <fragmenstein_outcome>  (1322) 
too moved

>  <fragmenstein_mode>  (1322) 
expansion

>  <fragmenstein_error>  (1322) 


$$$$
C36020-P122
     RDKit          3D

 31 33  0  0  0  0  0  0  0  0999 V2000
   -0.8479   -9.3077   21.7804 O   0  0  0  0  0  0  0  0  0  0  0  0
   -1.2343   -7.9534   22.1295 S   0  0  0  0  0  0  0  0  0  0  0  0
   -0.7130   -7.2993   23.3201 O   0  0  0  0  0  0  0  0  0  0  0  0
   -3.0628   -7.9664   22.2775 C   0  0  0  0  0  0  0  0  0  0  0  0
   -3.8144   -8.9651   23.2268 C   0  0  0  0  0  0  0  0  0  0  0  0
   -5.0885   -9.4922   23.0175 C   0  0  0  0  0  0  0  0  0  0  0  0
   -5.4416  -10.2312   24.1353 N   0  0  0  0  0  0  0  0  0  0  0  0
   -6.6062  -10.9648   24.4077 C   0  0  0  0  0  0  0  0  0  0  0  0
   -6.7885  -11.4953   25.6310 C   0  0  0  0  0  0  0  0  0  0  0  0
   -5.7540  -11.2856   26.6378 C   0  0  0  0  0  0  0  0  0  0  0  0
   -4.5986  -10.6479   26.3391 C   0  0  0  0  0  0  0  0  0  0  0  0
   -4.3969  -10.0788   25.0369 C   0  0  0  0  0  0  0  0  0  0  0  0
   -3.4081   -9.3614   24.5038 N   0  0  0  0  0  0  0  0  0  0  0  0
   -0.7424   -6.8843   20.7006 C   0  0  0  0  0  0  0  0  0  0  0  0
    0.7585   -6.6972   20.5257 C   0  0  0  0  0  0  0  0  0  0  0  0
    1.5572   -5.5629   20.5394 C   0  0  0  0  0  0  0  0  0  0  0  0
    2.8516   -6.0012   20.2002 C   0  0  0  0  0  0  0  0  0  0  0  0
    2.8902   -7.3146   19.9818 N   0  0  0  0  0  0  0  0  0  0  0  0
    1.6146   -7.7253   20.1953 N   0  0  0  0  0  0  0  0  0  0  0  0
   -3.3479   -6.9496   22.5691 H   0  0  0  0  0  0  0  0  0  0  0  0
   -3.4241   -8.1495   21.2584 H   0  0  0  0  0  0  0  0  0  0  0  0
   -5.7634   -9.4205   22.1777 H   0  0  0  0  0  0  0  0  0  0  0  0
   -7.3246  -11.0586   23.6044 H   0  0  0  0  0  0  0  0  0  0  0  0
   -7.6725  -12.0679   25.8874 H   0  0  0  0  0  0  0  0  0  0  0  0
   -5.9198  -11.6971   27.6287 H   0  0  0  0  0  0  0  0  0  0  0  0
   -3.8192  -10.5160   27.0799 H   0  0  0  0  0  0  0  0  0  0  0  0
   -1.1725   -7.3459   19.8061 H   0  0  0  0  0  0  0  0  0  0  0  0
   -1.2223   -5.9156   20.8737 H   0  0  0  0  0  0  0  0  0  0  0  0
    1.2413   -4.5510   20.7492 H   0  0  0  0  0  0  0  0  0  0  0  0
    3.7587   -5.4200   20.0980 H   0  0  0  0  0  0  0  0  0  0  0  0
    1.3862   -8.7162   20.0849 H   0  0  0  0  0  0  0  0  0  0  0  0
  1  2  2  0
  2  3  2  0
  2  4  1  0
  4  5  1  0
  5  6  2  0
  6  7  1  0
  7  8  1  0
  8  9  2  0
  9 10  1  0
 10 11  2  0
 11 12  1  0
 12 13  2  0
  2 14  1  0
 14 15  1  0
 15 16  2  0
 16 17  1  0
 17 18  2  0
 18 19  1  0
 13  5  1  0
 19 15  1  0
 12  7  1  0
  4 20  1  0
  4 21  1  0
  6 22  1  0
  8 23  1  0
  9 24  1  0
 10 25  1  0
 11 26  1  0
 14 27  1  0
 14 28  1  0
 16 29  1  0
 17 30  1  0
 19 31  1  0
M  END
>  <Energy>  (1323) 
94.960049443862118

>  <compound_id>  (1323) 
36020

>  <target_id>  (1323) 
1

>  <reference_id>  (1323) 
122

>  <inspiration_ids>  (1323) 
[45, 122]

>  <energy_score>  (1323) 
-12.739539755957253

>  <distance_score>  (1323) 
15.350680160778436

>  <path>  (1323) 
/opt/xchem-fragalysis-2/maxwin/BulkDock/SCRATCH/511013/C36020-P122/C36020-P122.minimised.mol

>  <scratch_subdir>  (1323) 
/opt/xchem-fragalysis-2/maxwin/BulkDock/SCRATCH/511013/C36020-P122

>  <fragmenstein_runtime>  (1323) 
14.27786135673523

>  <fragmenstein_outcome>  (1323) 
too moved

>  <fragmenstein_mode>  (1323) 
expansion

>  <fragmenstein_error>  (1323) 


$$$$
C36004-P45
     RDKit          3D

 38 40  0  0  0  0  0  0  0  0999 V2000
   -5.1796  -25.2577   26.5661 C   0  0  0  0  0  0  0  0  0  0  0  0
   -4.3881  -24.4906   25.5082 C   0  0  0  0  0  0  0  0  0  0  0  0
   -2.4943  -24.9929   25.5556 C   0  0  0  0  0  0  0  0  0  0  0  0
   -1.4437  -23.4577   25.7153 C   0  0  0  0  0  0  0  0  0  0  0  0
   -1.8922  -21.7273   24.6407 N   0  0  0  0  0  0  0  0  0  0  0  0
   -1.4174  -20.6080   23.2671 C   0  0  0  0  0  0  0  0  0  0  0  0
   -0.3452  -19.0875   22.9340 C   0  0  0  0  0  0  0  0  0  0  0  0
    0.3388  -18.8706   23.9491 O   0  0  0  0  0  0  0  0  0  0  0  0
    0.1140  -17.8612   21.4069 O   0  0  0  0  0  0  0  0  0  0  0  0
    0.8828  -16.2815   20.2171 C   0  0  0  0  0  0  0  0  0  0  0  0
    2.3117  -15.0923   18.8574 C   0  0  0  0  0  0  0  0  0  0  0  0
    3.4672  -13.3729   18.4543 N   0  0  0  0  0  0  0  0  0  0  0  0
    3.2747  -11.8984   17.1315 C   0  0  0  0  0  0  0  0  0  0  0  0
    2.3916  -12.0396   16.3245 O   0  0  0  0  0  0  0  0  0  0  0  0
    3.8950  -10.4523   16.9275 C   0  0  0  0  0  0  0  0  0  0  0  0
    4.0963   -9.8057   15.5456 C   0  0  0  0  0  0  0  0  0  0  0  0
    4.4032   -8.4425   15.7156 C   0  0  0  0  0  0  0  0  0  0  0  0
    4.2614   -8.0889   16.9859 N   0  0  0  0  0  0  0  0  0  0  0  0
    3.6758   -9.1909   17.5240 N   0  0  0  0  0  0  0  0  0  0  0  0
   -2.7110  -20.6247   23.0438 C   0  0  0  0  0  0  0  0  0  0  0  0
   -3.8490  -20.3690   24.0608 N   0  0  0  0  0  0  0  0  0  0  0  0
   -3.8681  -21.4571   24.7542 C   0  0  0  0  0  0  0  0  0  0  0  0
   -5.0296  -23.1465   24.5899 C   0  0  0  0  0  0  0  0  0  0  0  0
   -6.2380  -24.9853   26.5451 H   0  0  0  0  0  0  0  0  0  0  0  0
   -4.7899  -25.0024   27.5566 H   0  0  0  0  0  0  0  0  0  0  0  0
   -5.0821  -26.3388   26.4366 H   0  0  0  0  0  0  0  0  0  0  0  0
   -2.4463  -25.6905   26.3960 H   0  0  0  0  0  0  0  0  0  0  0  0
   -1.6272  -23.5811   26.8911 H   0  0  0  0  0  0  0  0  0  0  0  0
   -0.1410  -16.1651   19.8917 H   0  0  0  0  0  0  0  0  0  0  0  0
    0.9004  -15.6966   21.0952 H   0  0  0  0  0  0  0  0  0  0  0  0
    1.6892  -14.6777   18.0511 H   0  0  0  0  0  0  0  0  0  0  0  0
    2.4839  -14.6338   19.8317 H   0  0  0  0  0  0  0  0  0  0  0  0
    4.2875  -13.1878   19.0249 H   0  0  0  0  0  0  0  0  0  0  0  0
    4.0893  -10.3899   14.6336 H   0  0  0  0  0  0  0  0  0  0  0  0
    4.7119   -7.7254   14.9749 H   0  0  0  0  0  0  0  0  0  0  0  0
    3.0872   -9.0877   18.3242 H   0  0  0  0  0  0  0  0  0  0  0  0
   -2.9872  -20.7922   22.0023 H   0  0  0  0  0  0  0  0  0  0  0  0
   -5.9867  -23.1438   25.1129 H   0  0  0  0  0  0  0  0  0  0  0  0
  1  2  1  0
  2  3  1  0
  3  4  2  0
  4  5  1  0
  5  6  1  0
  6  7  1  0
  7  8  2  0
  7  9  1  0
  9 10  1  0
 10 11  1  0
 11 12  1  0
 12 13  1  0
 13 14  2  0
 13 15  1  0
 15 16  2  0
 16 17  1  0
 17 18  2  0
 18 19  1  0
  6 20  2  0
 20 21  1  0
 21 22  2  0
 22 23  1  0
 23  2  2  0
 22  5  1  0
 19 15  1  0
  1 24  1  0
  1 25  1  0
  1 26  1  0
  3 27  1  0
  4 28  1  0
 10 29  1  0
 10 30  1  0
 11 31  1  0
 11 32  1  0
 12 33  1  0
 16 34  1  0
 17 35  1  0
 19 36  1  0
 20 37  1  0
 23 38  1  0
M  END
>  <Energy>  (1324) 
1874.3684942618838

>  <compound_id>  (1324) 
36004

>  <target_id>  (1324) 
1

>  <reference_id>  (1324) 
45

>  <inspiration_ids>  (1324) 
[45, 122]

>  <energy_score>  (1324) 
1865.594450060286

>  <distance_score>  (1324) 
8.441282930427926

>  <path>  (1324) 
/opt/xchem-fragalysis-2/maxwin/BulkDock/SCRATCH/511013/C36004-P45/C36004-P45.minimised.mol

>  <scratch_subdir>  (1324) 
/opt/xchem-fragalysis-2/maxwin/BulkDock/SCRATCH/511013/C36004-P45

>  <fragmenstein_runtime>  (1324) 
17.05155897140503

>  <fragmenstein_outcome>  (1324) 
too moved

>  <fragmenstein_mode>  (1324) 
expansion

>  <fragmenstein_error>  (1324) 


$$$$
C36004-P122
     RDKit          3D

 38 40  0  0  0  0  0  0  0  0999 V2000
   -6.9921  -22.9989   21.5307 C   0  0  0  0  0  0  0  0  0  0  0  0
   -5.5660  -22.7764   21.9161 C   0  0  0  0  0  0  0  0  0  0  0  0
   -4.6698  -24.3068   22.2615 C   0  0  0  0  0  0  0  0  0  0  0  0
   -3.0709  -24.3064   22.6446 C   0  0  0  0  0  0  0  0  0  0  0  0
   -1.9599  -22.3513   22.8198 N   0  0  0  0  0  0  0  0  0  0  0  0
   -2.6695  -20.9116   21.9368 C   0  0  0  0  0  0  0  0  0  0  0  0
   -2.9218  -20.7215   20.2067 C   0  0  0  0  0  0  0  0  0  0  0  0
   -3.7433  -19.9373   19.7292 O   0  0  0  0  0  0  0  0  0  0  0  0
   -2.2143  -21.5838   19.3684 O   0  0  0  0  0  0  0  0  0  0  0  0
   -2.3106  -21.2892   17.9290 C   0  0  0  0  0  0  0  0  0  0  0  0
   -1.0906  -21.8341   17.1272 C   0  0  0  0  0  0  0  0  0  0  0  0
   -0.1568  -20.8594   16.5295 N   0  0  0  0  0  0  0  0  0  0  0  0
   -0.0583  -20.3449   15.1839 C   0  0  0  0  0  0  0  0  0  0  0  0
   -0.7588  -20.5186   14.2307 O   0  0  0  0  0  0  0  0  0  0  0  0
    1.1563  -19.5265   14.9403 C   0  0  0  0  0  0  0  0  0  0  0  0
    2.3508  -19.3171   15.6121 C   0  0  0  0  0  0  0  0  0  0  0  0
    3.1311  -18.4826   14.7819 C   0  0  0  0  0  0  0  0  0  0  0  0
    2.4988  -18.1499   13.6638 N   0  0  0  0  0  0  0  0  0  0  0  0
    1.2912  -18.7310   13.8117 N   0  0  0  0  0  0  0  0  0  0  0  0
   -1.9207  -20.4106   23.1434 C   0  0  0  0  0  0  0  0  0  0  0  0
   -2.8821  -20.5393   23.9695 N   0  0  0  0  0  0  0  0  0  0  0  0
   -3.3008  -20.9816   22.8699 C   0  0  0  0  0  0  0  0  0  0  0  0
   -5.0265  -21.3485   22.0392 C   0  0  0  0  0  0  0  0  0  0  0  0
   -7.0607  -23.6044   20.6269 H   0  0  0  0  0  0  0  0  0  0  0  0
   -7.4892  -22.0479   21.3099 H   0  0  0  0  0  0  0  0  0  0  0  0
   -7.5390  -23.4523   22.3538 H   0  0  0  0  0  0  0  0  0  0  0  0
   -5.2439  -25.2226   22.2042 H   0  0  0  0  0  0  0  0  0  0  0  0
   -2.6882  -25.3607   22.8316 H   0  0  0  0  0  0  0  0  0  0  0  0
   -2.4295  -20.2147   17.7495 H   0  0  0  0  0  0  0  0  0  0  0  0
   -3.2135  -21.8057   17.5848 H   0  0  0  0  0  0  0  0  0  0  0  0
   -0.4895  -22.5026   17.7519 H   0  0  0  0  0  0  0  0  0  0  0  0
   -1.4782  -22.4136   16.2817 H   0  0  0  0  0  0  0  0  0  0  0  0
    0.6598  -20.5689   17.0553 H   0  0  0  0  0  0  0  0  0  0  0  0
    2.6363  -19.7639   16.5532 H   0  0  0  0  0  0  0  0  0  0  0  0
    4.1374  -18.1220   14.9186 H   0  0  0  0  0  0  0  0  0  0  0  0
    0.5935  -18.6031   13.0855 H   0  0  0  0  0  0  0  0  0  0  0  0
   -1.1885  -19.6644   23.2688 H   0  0  0  0  0  0  0  0  0  0  0  0
   -5.6961  -20.4968   21.9040 H   0  0  0  0  0  0  0  0  0  0  0  0
  1  2  1  0
  2  3  1  0
  3  4  2  0
  4  5  1  0
  5  6  1  0
  6  7  1  0
  7  8  2  0
  7  9  1  0
  9 10  1  0
 10 11  1  0
 11 12  1  0
 12 13  1  0
 13 14  2  0
 13 15  1  0
 15 16  2  0
 16 17  1  0
 17 18  2  0
 18 19  1  0
  6 20  2  0
 20 21  1  0
 21 22  2  0
 22 23  1  0
 23  2  2  0
 22  5  1  0
 19 15  1  0
  1 24  1  0
  1 25  1  0
  1 26  1  0
  3 27  1  0
  4 28  1  0
 10 29  1  0
 10 30  1  0
 11 31  1  0
 11 32  1  0
 12 33  1  0
 16 34  1  0
 17 35  1  0
 19 36  1  0
 20 37  1  0
 23 38  1  0
M  END
>  <Energy>  (1325) 
946.99038152368325

>  <compound_id>  (1325) 
36004

>  <target_id>  (1325) 
1

>  <reference_id>  (1325) 
122

>  <inspiration_ids>  (1325) 
[45, 122]

>  <energy_score>  (1325) 
938.2163373220577

>  <distance_score>  (1325) 
13.301022728792992

>  <path>  (1325) 
/opt/xchem-fragalysis-2/maxwin/BulkDock/SCRATCH/511013/C36004-P122/C36004-P122.minimised.mol

>  <scratch_subdir>  (1325) 
/opt/xchem-fragalysis-2/maxwin/BulkDock/SCRATCH/511013/C36004-P122

>  <fragmenstein_runtime>  (1325) 
40.294129371643066

>  <fragmenstein_outcome>  (1325) 
too moved

>  <fragmenstein_mode>  (1325) 
expansion

>  <fragmenstein_error>  (1325) 


$$$$
C36021-P45
     RDKit          3D

 39 42  0  0  0  0  0  0  0  0999 V2000
   -3.8872  -16.3241   14.8109 O   0  0  0  0  0  0  0  0  0  0  0  0
   -3.7614  -16.0631   15.9896 C   0  0  0  0  0  0  0  0  0  0  0  0
   -4.7204  -16.7805   16.9426 C   0  0  0  0  0  0  0  0  0  0  0  0
   -6.0376  -16.4008   17.1763 C   0  0  0  0  0  0  0  0  0  0  0  0
   -6.6788  -17.1692   18.1156 N   0  0  0  0  0  0  0  0  0  0  0  0
   -5.8369  -18.1343   18.4013 C   0  0  0  0  0  0  0  0  0  0  0  0
   -5.9978  -19.2495   19.2809 C   0  0  0  0  0  0  0  0  0  0  0  0
   -5.0687  -20.2193   19.3135 C   0  0  0  0  0  0  0  0  0  0  0  0
   -3.8871  -20.1400   18.4775 C   0  0  0  0  0  0  0  0  0  0  0  0
   -3.7040  -19.0659   17.6817 C   0  0  0  0  0  0  0  0  0  0  0  0
   -4.6481  -18.0216   17.6486 N   0  0  0  0  0  0  0  0  0  0  0  0
   -2.6777  -15.1619   16.7293 N   0  0  0  0  0  0  0  0  0  0  0  0
   -3.1038  -13.9050   16.8101 C   0  0  0  0  0  0  0  0  0  0  0  0
   -2.2356  -12.8554   17.5957 C   0  0  0  0  0  0  0  0  0  0  0  0
   -0.7403  -13.2540   17.6533 C   0  0  0  0  0  0  0  0  0  0  0  0
    0.6733  -13.9916   16.5681 C   0  0  0  0  0  0  0  0  0  0  0  0
    1.6804  -12.9765   15.0330 C   0  0  0  0  0  0  0  0  0  0  0  0
    3.0166  -12.2820   14.4801 C   0  0  0  0  0  0  0  0  0  0  0  0
    2.9111  -11.9295   13.1162 C   0  0  0  0  0  0  0  0  0  0  0  0
    1.7401  -12.2857   12.6246 N   0  0  0  0  0  0  0  0  0  0  0  0
    1.0119  -12.7380   13.6640 N   0  0  0  0  0  0  0  0  0  0  0  0
   -1.3042  -14.3916   16.1304 C   0  0  0  0  0  0  0  0  0  0  0  0
   -6.5401  -15.5512   16.7310 H   0  0  0  0  0  0  0  0  0  0  0  0
   -6.8781  -19.2894   19.9120 H   0  0  0  0  0  0  0  0  0  0  0  0
   -5.1840  -21.0648   19.9820 H   0  0  0  0  0  0  0  0  0  0  0  0
   -3.1718  -20.9556   18.5033 H   0  0  0  0  0  0  0  0  0  0  0  0
   -2.8538  -19.0014   17.0184 H   0  0  0  0  0  0  0  0  0  0  0  0
   -4.2008  -13.9555   16.9010 H   0  0  0  0  0  0  0  0  0  0  0  0
   -3.3232  -13.9590   15.7858 H   0  0  0  0  0  0  0  0  0  0  0  0
   -2.4220  -11.7882   17.4681 H   0  0  0  0  0  0  0  0  0  0  0  0
   -2.4923  -12.7438   18.6458 H   0  0  0  0  0  0  0  0  0  0  0  0
   -1.1003  -14.1211   18.2162 H   0  0  0  0  0  0  0  0  0  0  0  0
   -0.4839  -12.4293   18.2481 H   0  0  0  0  0  0  0  0  0  0  0  0
    1.3619  -14.3643   17.3261 H   0  0  0  0  0  0  0  0  0  0  0  0
    3.7911  -11.8778   15.1259 H   0  0  0  0  0  0  0  0  0  0  0  0
    3.6267  -11.4067   12.4962 H   0  0  0  0  0  0  0  0  0  0  0  0
    0.0473  -13.0100   13.5258 H   0  0  0  0  0  0  0  0  0  0  0  0
   -1.4952  -14.3729   15.0673 H   0  0  0  0  0  0  0  0  0  0  0  0
   -1.1510  -15.3444   16.2488 H   0  0  0  0  0  0  0  0  0  0  0  0
  1  2  2  0
  2  3  1  0
  3  4  2  0
  4  5  1  0
  5  6  2  0
  6  7  1  0
  7  8  2  0
  8  9  1  0
  9 10  2  0
 10 11  1  0
  2 12  1  0
 12 13  1  0
 13 14  1  0
 14 15  1  0
 15 16  1  0
 16 17  1  0
 17 18  2  0
 18 19  1  0
 19 20  2  0
 20 21  1  0
 16 22  1  0
 11  3  1  0
 22 12  1  0
 11  6  1  0
 21 17  1  0
  4 23  1  0
  7 24  1  0
  8 25  1  0
  9 26  1  0
 10 27  1  0
 13 28  1  0
 13 29  1  0
 14 30  1  0
 14 31  1  0
 15 32  1  0
 15 33  1  0
 16 34  1  0
 18 35  1  0
 19 36  1  0
 21 37  1  0
 22 38  1  0
 22 39  1  0
M  END
>  <Energy>  (1326) 
567.96674197271693

>  <compound_id>  (1326) 
36021

>  <target_id>  (1326) 
1

>  <reference_id>  (1326) 
45

>  <inspiration_ids>  (1326) 
[45, 122]

>  <energy_score>  (1326) 
516.3122507642154

>  <distance_score>  (1326) 
13.340275631461415

>  <path>  (1326) 
/opt/xchem-fragalysis-2/maxwin/BulkDock/SCRATCH/511013/C36021-P45/C36021-P45.minimised.mol

>  <scratch_subdir>  (1326) 
/opt/xchem-fragalysis-2/maxwin/BulkDock/SCRATCH/511013/C36021-P45

>  <fragmenstein_runtime>  (1326) 
28.83969211578369

>  <fragmenstein_outcome>  (1326) 
too moved

>  <fragmenstein_mode>  (1326) 
expansion

>  <fragmenstein_error>  (1326) 


$$$$
C36021-P122
     RDKit          3D

 39 42  0  0  0  0  0  0  0  0999 V2000
   -0.6140  -17.4816   20.4852 O   0  0  0  0  0  0  0  0  0  0  0  0
   -0.3388  -17.2103   21.6577 C   0  0  0  0  0  0  0  0  0  0  0  0
   -1.2116  -18.9059   23.0250 C   0  0  0  0  0  0  0  0  0  0  0  0
   -1.8430  -20.4035   23.1697 C   0  0  0  0  0  0  0  0  0  0  0  0
   -3.3123  -20.7224   23.8404 N   0  0  0  0  0  0  0  0  0  0  0  0
   -3.9706  -20.2690   24.9721 C   0  0  0  0  0  0  0  0  0  0  0  0
   -4.5474  -21.6686   26.3329 C   0  0  0  0  0  0  0  0  0  0  0  0
   -3.4762  -23.0006   27.2250 C   0  0  0  0  0  0  0  0  0  0  0  0
   -1.6007  -21.7905   27.7462 C   0  0  0  0  0  0  0  0  0  0  0  0
   -1.6682  -20.1192   26.8227 C   0  0  0  0  0  0  0  0  0  0  0  0
   -2.1169  -19.5820   24.9199 N   0  0  0  0  0  0  0  0  0  0  0  0
    0.9116  -15.3590   21.6534 N   0  0  0  0  0  0  0  0  0  0  0  0
   -0.2748  -13.7737   21.8596 C   0  0  0  0  0  0  0  0  0  0  0  0
   -0.9981  -12.0864   20.6046 C   0  0  0  0  0  0  0  0  0  0  0  0
    0.9244  -10.9980   20.5039 C   0  0  0  0  0  0  0  0  0  0  0  0
    2.5586  -11.8150   18.8198 C   0  0  0  0  0  0  0  0  0  0  0  0
    2.4879   -9.9265   18.0764 C   0  0  0  0  0  0  0  0  0  0  0  0
    1.7572   -8.7079   18.1606 C   0  0  0  0  0  0  0  0  0  0  0  0
    2.4421   -7.7051   17.4151 C   0  0  0  0  0  0  0  0  0  0  0  0
    3.5977   -8.1387   16.9287 N   0  0  0  0  0  0  0  0  0  0  0  0
    3.6121   -9.4366   17.3077 N   0  0  0  0  0  0  0  0  0  0  0  0
    1.9715  -13.9846   20.0031 C   0  0  0  0  0  0  0  0  0  0  0  0
   -1.2228  -21.3015   23.1878 H   0  0  0  0  0  0  0  0  0  0  0  0
   -5.5229  -22.1438   26.3881 H   0  0  0  0  0  0  0  0  0  0  0  0
   -3.9553  -23.7444   27.8923 H   0  0  0  0  0  0  0  0  0  0  0  0
   -1.0358  -21.9368   28.6919 H   0  0  0  0  0  0  0  0  0  0  0  0
   -0.9324  -19.3825   27.1788 H   0  0  0  0  0  0  0  0  0  0  0  0
   -1.0523  -14.6702   22.0447 H   0  0  0  0  0  0  0  0  0  0  0  0
   -0.1850  -13.6280   22.9507 H   0  0  0  0  0  0  0  0  0  0  0  0
   -1.4712  -12.1781   19.6171 H   0  0  0  0  0  0  0  0  0  0  0  0
   -1.5849  -11.3929   21.2199 H   0  0  0  0  0  0  0  0  0  0  0  0
    0.9180   -9.8065   20.6397 H   0  0  0  0  0  0  0  0  0  0  0  0
    0.9104  -10.9625   21.6625 H   0  0  0  0  0  0  0  0  0  0  0  0
    3.6362  -12.3350   18.6060 H   0  0  0  0  0  0  0  0  0  0  0  0
    0.8410   -8.5046   18.6937 H   0  0  0  0  0  0  0  0  0  0  0  0
    2.1512   -6.6749   17.2606 H   0  0  0  0  0  0  0  0  0  0  0  0
    4.3450  -10.0458   16.9718 H   0  0  0  0  0  0  0  0  0  0  0  0
    2.8642  -13.8821   20.6934 H   0  0  0  0  0  0  0  0  0  0  0  0
    2.4118  -14.7166   19.2436 H   0  0  0  0  0  0  0  0  0  0  0  0
  1  2  2  0
  2  3  1  0
  3  4  2  0
  4  5  1  0
  5  6  2  0
  6  7  1  0
  7  8  2  0
  8  9  1  0
  9 10  2  0
 10 11  1  0
  2 12  1  0
 12 13  1  0
 13 14  1  0
 14 15  1  0
 15 16  1  0
 16 17  1  0
 17 18  2  0
 18 19  1  0
 19 20  2  0
 20 21  1  0
 16 22  1  0
 11  3  1  0
 22 12  1  0
 11  6  1  0
 21 17  1  0
  4 23  1  0
  7 24  1  0
  8 25  1  0
  9 26  1  0
 10 27  1  0
 13 28  1  0
 13 29  1  0
 14 30  1  0
 14 31  1  0
 15 32  1  0
 15 33  1  0
 16 34  1  0
 18 35  1  0
 19 36  1  0
 21 37  1  0
 22 38  1  0
 22 39  1  0
M  END
>  <Energy>  (1327) 
4215.4086922951074

>  <compound_id>  (1327) 
36021

>  <target_id>  (1327) 
1

>  <reference_id>  (1327) 
122

>  <inspiration_ids>  (1327) 
[45, 122]

>  <energy_score>  (1327) 
4163.754201086611

>  <distance_score>  (1327) 
9.693359919919043

>  <path>  (1327) 
/opt/xchem-fragalysis-2/maxwin/BulkDock/SCRATCH/511013/C36021-P122/C36021-P122.minimised.mol

>  <scratch_subdir>  (1327) 
/opt/xchem-fragalysis-2/maxwin/BulkDock/SCRATCH/511013/C36021-P122

>  <fragmenstein_runtime>  (1327) 
18.55049705505371

>  <fragmenstein_outcome>  (1327) 
too moved

>  <fragmenstein_mode>  (1327) 
expansion

>  <fragmenstein_error>  (1327) 


$$$$
C36022-P45
     RDKit          3D

 33 35  0  0  0  0  0  0  0  0999 V2000
   -2.8511  -15.4018   19.0946 C   0  0  0  0  0  0  0  0  0  0  0  0
   -2.7528  -16.8644   18.8976 C   0  0  0  0  0  0  0  0  0  0  0  0
   -3.6431  -17.6859   19.5760 N   0  0  0  0  0  0  0  0  0  0  0  0
   -3.4606  -18.8857   19.0818 C   0  0  0  0  0  0  0  0  0  0  0  0
   -4.1714  -20.1031   19.3206 C   0  0  0  0  0  0  0  0  0  0  0  0
   -3.8578  -21.2169   18.6357 C   0  0  0  0  0  0  0  0  0  0  0  0
   -2.7991  -21.2032   17.6461 C   0  0  0  0  0  0  0  0  0  0  0  0
   -2.1453  -20.0525   17.3903 C   0  0  0  0  0  0  0  0  0  0  0  0
   -2.4492  -18.8853   18.1108 N   0  0  0  0  0  0  0  0  0  0  0  0
   -1.9199  -17.5697   18.0265 C   0  0  0  0  0  0  0  0  0  0  0  0
   -0.8053  -17.1178   17.0314 C   0  0  0  0  0  0  0  0  0  0  0  0
   -0.0543  -15.8199   17.3023 N   0  0  0  0  0  0  0  0  0  0  0  0
    0.9822  -15.4932   16.2523 C   0  0  0  0  0  0  0  0  0  0  0  0
    1.8532  -14.2463   16.3993 C   0  0  0  0  0  0  0  0  0  0  0  0
    3.0117  -13.9667   17.1116 C   0  0  0  0  0  0  0  0  0  0  0  0
    3.4846  -12.7226   16.6354 C   0  0  0  0  0  0  0  0  0  0  0  0
    2.6838  -12.2221   15.6953 N   0  0  0  0  0  0  0  0  0  0  0  0
    1.7143  -13.1509   15.5705 N   0  0  0  0  0  0  0  0  0  0  0  0
   -3.9002  -15.1076   19.2000 H   0  0  0  0  0  0  0  0  0  0  0  0
   -2.3184  -15.1044   19.9945 H   0  0  0  0  0  0  0  0  0  0  0  0
   -2.4475  -14.8467   18.2440 H   0  0  0  0  0  0  0  0  0  0  0  0
   -4.9831  -20.0985   20.0357 H   0  0  0  0  0  0  0  0  0  0  0  0
   -4.4039  -22.1413   18.7916 H   0  0  0  0  0  0  0  0  0  0  0  0
   -2.5643  -22.1200   17.1169 H   0  0  0  0  0  0  0  0  0  0  0  0
   -1.3557  -19.9868   16.6544 H   0  0  0  0  0  0  0  0  0  0  0  0
   -1.2838  -17.0269   16.0488 H   0  0  0  0  0  0  0  0  0  0  0  0
   -0.0618  -17.9214   16.9752 H   0  0  0  0  0  0  0  0  0  0  0  0
    0.4403  -15.9831   18.1772 H   0  0  0  0  0  0  0  0  0  0  0  0
    0.4569  -15.4243   15.2912 H   0  0  0  0  0  0  0  0  0  0  0  0
    1.6619  -16.3515   16.1775 H   0  0  0  0  0  0  0  0  0  0  0  0
    3.4812  -14.5851   17.8636 H   0  0  0  0  0  0  0  0  0  0  0  0
    4.3649  -12.1704   16.9409 H   0  0  0  0  0  0  0  0  0  0  0  0
    0.9905  -12.9912   14.8778 H   0  0  0  0  0  0  0  0  0  0  0  0
  1  2  1  0
  2  3  1  0
  3  4  2  0
  4  5  1  0
  5  6  2  0
  6  7  1  0
  7  8  2  0
  8  9  1  0
  9 10  1  0
 10 11  1  0
 11 12  1  0
 12 13  1  0
 13 14  1  0
 14 15  2  0
 15 16  1  0
 16 17  2  0
 17 18  1  0
 10  2  2  0
 18 14  1  0
  9  4  1  0
  1 19  1  0
  1 20  1  0
  1 21  1  0
  5 22  1  0
  6 23  1  0
  7 24  1  0
  8 25  1  0
 11 26  1  0
 11 27  1  0
 12 28  1  0
 13 29  1  0
 13 30  1  0
 15 31  1  0
 16 32  1  0
 18 33  1  0
M  END
>  <Energy>  (1328) 
10.63853476155413

>  <compound_id>  (1328) 
36022

>  <target_id>  (1328) 
1

>  <reference_id>  (1328) 
45

>  <inspiration_ids>  (1328) 
[45, 122]

>  <energy_score>  (1328) 
-13.89177305172825

>  <distance_score>  (1328) 
13.255348597783232

>  <path>  (1328) 
/opt/xchem-fragalysis-2/maxwin/BulkDock/SCRATCH/511013/C36022-P45/C36022-P45.minimised.mol

>  <scratch_subdir>  (1328) 
/opt/xchem-fragalysis-2/maxwin/BulkDock/SCRATCH/511013/C36022-P45

>  <fragmenstein_runtime>  (1328) 
15.87346887588501

>  <fragmenstein_outcome>  (1328) 
too moved

>  <fragmenstein_mode>  (1328) 
expansion

>  <fragmenstein_error>  (1328) 


$$$$
C36022-P122
     RDKit          3D

 33 35  0  0  0  0  0  0  0  0999 V2000
   -2.2387  -19.8541   24.2774 C   0  0  0  0  0  0  0  0  0  0  0  0
   -1.6988  -18.6529   25.7523 C   0  0  0  0  0  0  0  0  0  0  0  0
   -2.4300  -18.5828   26.7983 N   0  0  0  0  0  0  0  0  0  0  0  0
   -2.7344  -19.8267   26.4827 C   0  0  0  0  0  0  0  0  0  0  0  0
   -4.3716  -21.1366   26.2045 C   0  0  0  0  0  0  0  0  0  0  0  0
   -4.2700  -22.7481   27.1049 C   0  0  0  0  0  0  0  0  0  0  0  0
   -2.2508  -23.2862   27.4285 C   0  0  0  0  0  0  0  0  0  0  0  0
   -1.1435  -21.9358   28.0331 C   0  0  0  0  0  0  0  0  0  0  0  0
   -1.2087  -20.1865   27.2363 N   0  0  0  0  0  0  0  0  0  0  0  0
   -0.2103  -18.8069   26.2958 C   0  0  0  0  0  0  0  0  0  0  0  0
    1.3406  -18.6120   24.8369 C   0  0  0  0  0  0  0  0  0  0  0  0
    3.2265  -17.9459   24.7762 N   0  0  0  0  0  0  0  0  0  0  0  0
    4.3827  -16.3696   24.2772 C   0  0  0  0  0  0  0  0  0  0  0  0
    5.4434  -15.1105   25.3163 C   0  0  0  0  0  0  0  0  0  0  0  0
    7.1681  -15.0272   25.9510 C   0  0  0  0  0  0  0  0  0  0  0  0
    7.3264  -13.5296   26.2666 C   0  0  0  0  0  0  0  0  0  0  0  0
    6.1816  -12.8841   25.9744 N   0  0  0  0  0  0  0  0  0  0  0  0
    5.0816  -13.8186   25.7272 N   0  0  0  0  0  0  0  0  0  0  0  0
   -1.5639  -19.6540   23.4172 H   0  0  0  0  0  0  0  0  0  0  0  0
   -3.2967  -19.9755   24.3281 H   0  0  0  0  0  0  0  0  0  0  0  0
   -2.0012  -20.9288   24.1532 H   0  0  0  0  0  0  0  0  0  0  0  0
   -5.1148  -20.5015   25.8089 H   0  0  0  0  0  0  0  0  0  0  0  0
   -5.1132  -23.3602   27.3486 H   0  0  0  0  0  0  0  0  0  0  0  0
   -2.2210  -24.3505   27.3882 H   0  0  0  0  0  0  0  0  0  0  0  0
   -0.1680  -22.2245   28.4091 H   0  0  0  0  0  0  0  0  0  0  0  0
    1.3523  -19.5435   24.3822 H   0  0  0  0  0  0  0  0  0  0  0  0
    2.2119  -18.1120   25.7940 H   0  0  0  0  0  0  0  0  0  0  0  0
    3.4748  -18.4885   23.9291 H   0  0  0  0  0  0  0  0  0  0  0  0
    3.8827  -15.7448   23.5348 H   0  0  0  0  0  0  0  0  0  0  0  0
    5.3637  -16.6892   23.9941 H   0  0  0  0  0  0  0  0  0  0  0  0
    8.0329  -15.6259   25.7875 H   0  0  0  0  0  0  0  0  0  0  0  0
    8.2342  -13.0098   26.5423 H   0  0  0  0  0  0  0  0  0  0  0  0
    4.1351  -13.4656   25.6950 H   0  0  0  0  0  0  0  0  0  0  0  0
  1  2  1  0
  2  3  1  0
  3  4  2  0
  4  5  1  0
  5  6  2  0
  6  7  1  0
  7  8  2  0
  8  9  1  0
  9 10  1  0
 10 11  1  0
 11 12  1  0
 12 13  1  0
 13 14  1  0
 14 15  2  0
 15 16  1  0
 16 17  2  0
 17 18  1  0
 10  2  2  0
 18 14  1  0
  9  4  1  0
  1 19  1  0
  1 20  1  0
  1 21  1  0
  5 22  1  0
  6 23  1  0
  7 24  1  0
  8 25  1  0
 11 26  1  0
 11 27  1  0
 12 28  1  0
 13 29  1  0
 13 30  1  0
 15 31  1  0
 16 32  1  0
 18 33  1  0
M  END
>  <Energy>  (1329) 
1519.169161973479

>  <compound_id>  (1329) 
36022

>  <target_id>  (1329) 
1

>  <reference_id>  (1329) 
122

>  <inspiration_ids>  (1329) 
[45, 122]

>  <energy_score>  (1329) 
1494.6388541602482

>  <distance_score>  (1329) 
12.028589643816424

>  <path>  (1329) 
/opt/xchem-fragalysis-2/maxwin/BulkDock/SCRATCH/511013/C36022-P122/C36022-P122.minimised.mol

>  <scratch_subdir>  (1329) 
/opt/xchem-fragalysis-2/maxwin/BulkDock/SCRATCH/511013/C36022-P122

>  <fragmenstein_runtime>  (1329) 
17.209421396255493

>  <fragmenstein_outcome>  (1329) 
too moved

>  <fragmenstein_mode>  (1329) 
expansion

>  <fragmenstein_error>  (1329) 


$$$$
C36023-P45
     RDKit          3D

 35 37  0  0  0  0  0  0  0  0999 V2000
   -4.2594  -26.5565   26.5929 C   0  0  0  0  0  0  0  0  0  0  0  0
   -3.5469  -26.7072   25.3354 O   0  0  0  0  0  0  0  0  0  0  0  0
   -2.4084  -26.0245   25.1118 C   0  0  0  0  0  0  0  0  0  0  0  0
   -1.9306  -25.4896   26.0873 O   0  0  0  0  0  0  0  0  0  0  0  0
   -1.6938  -25.7614   23.5786 C   0  0  0  0  0  0  0  0  0  0  0  0
    0.1952  -24.9650   23.8854 C   0  0  0  0  0  0  0  0  0  0  0  0
    0.5694  -23.2564   23.6816 C   0  0  0  0  0  0  0  0  0  0  0  0
   -0.4155  -21.6922   23.3732 N   0  0  0  0  0  0  0  0  0  0  0  0
   -0.8076  -19.7740   23.0276 C   0  0  0  0  0  0  0  0  0  0  0  0
   -0.4011  -18.6751   21.4415 N   0  0  0  0  0  0  0  0  0  0  0  0
   -0.0252  -16.9980   21.2439 C   0  0  0  0  0  0  0  0  0  0  0  0
   -0.0319  -16.1313   22.0405 O   0  0  0  0  0  0  0  0  0  0  0  0
    0.6457  -16.3553   19.6789 C   0  0  0  0  0  0  0  0  0  0  0  0
    2.0878  -15.3163   18.5885 C   0  0  0  0  0  0  0  0  0  0  0  0
    2.8064  -15.4276   17.3615 C   0  0  0  0  0  0  0  0  0  0  0  0
    4.2566  -14.9460   17.5958 C   0  0  0  0  0  0  0  0  0  0  0  0
    4.0840  -13.9815   18.4700 N   0  0  0  0  0  0  0  0  0  0  0  0
    2.9585  -14.4591   19.1120 N   0  0  0  0  0  0  0  0  0  0  0  0
   -1.9533  -20.3922   23.4251 C   0  0  0  0  0  0  0  0  0  0  0  0
   -2.2788  -21.1484   22.5065 N   0  0  0  0  0  0  0  0  0  0  0  0
   -1.7044  -22.4411   22.9765 C   0  0  0  0  0  0  0  0  0  0  0  0
   -2.8323  -24.4404   22.9529 C   0  0  0  0  0  0  0  0  0  0  0  0
   -4.3468  -27.5380   27.0675 H   0  0  0  0  0  0  0  0  0  0  0  0
   -3.7939  -25.8438   27.2750 H   0  0  0  0  0  0  0  0  0  0  0  0
   -5.2728  -26.2015   26.3918 H   0  0  0  0  0  0  0  0  0  0  0  0
    0.9843  -25.6755   23.5952 H   0  0  0  0  0  0  0  0  0  0  0  0
    1.5999  -23.1097   23.3936 H   0  0  0  0  0  0  0  0  0  0  0  0
   -0.3850  -19.1234   20.5687 H   0  0  0  0  0  0  0  0  0  0  0  0
   -0.3258  -15.8036   19.5714 H   0  0  0  0  0  0  0  0  0  0  0  0
    1.2177  -15.8135   20.4606 H   0  0  0  0  0  0  0  0  0  0  0  0
    2.5624  -15.9602   16.4360 H   0  0  0  0  0  0  0  0  0  0  0  0
    5.1253  -15.0197   16.9506 H   0  0  0  0  0  0  0  0  0  0  0  0
    3.0049  -14.3022   20.1160 H   0  0  0  0  0  0  0  0  0  0  0  0
   -2.4215  -20.5188   24.3450 H   0  0  0  0  0  0  0  0  0  0  0  0
   -3.6632  -24.7524   22.2522 H   0  0  0  0  0  0  0  0  0  0  0  0
  1  2  1  0
  2  3  1  0
  3  4  2  0
  3  5  1  0
  5  6  1  0
  6  7  2  0
  7  8  1  0
  8  9  1  0
  9 10  1  0
 10 11  1  0
 11 12  2  0
 11 13  1  0
 13 14  1  0
 14 15  2  0
 15 16  1  0
 16 17  2  0
 17 18  1  0
  9 19  2  0
 19 20  1  0
 20 21  2  0
 21 22  1  0
 22  5  2  0
 21  8  1  0
 18 14  1  0
  1 23  1  0
  1 24  1  0
  1 25  1  0
  6 26  1  0
  7 27  1  0
 10 28  1  0
 13 29  1  0
 13 30  1  0
 15 31  1  0
 16 32  1  0
 18 33  1  0
 19 34  1  0
 22 35  1  0
M  END
>  <Energy>  (1330) 
1555.8104570834321

>  <compound_id>  (1330) 
36023

>  <target_id>  (1330) 
1

>  <reference_id>  (1330) 
45

>  <inspiration_ids>  (1330) 
[45, 122]

>  <energy_score>  (1330) 
1448.5818883304523

>  <distance_score>  (1330) 
11.545408082084224

>  <path>  (1330) 
/opt/xchem-fragalysis-2/maxwin/BulkDock/SCRATCH/511013/C36023-P45/C36023-P45.minimised.mol

>  <scratch_subdir>  (1330) 
/opt/xchem-fragalysis-2/maxwin/BulkDock/SCRATCH/511013/C36023-P45

>  <fragmenstein_runtime>  (1330) 
13.001617670059204

>  <fragmenstein_outcome>  (1330) 
too moved

>  <fragmenstein_mode>  (1330) 
expansion

>  <fragmenstein_error>  (1330) 


$$$$
C36023-P122
     RDKit          3D

 35 37  0  0  0  0  0  0  0  0999 V2000
   -7.5329  -30.2527   21.2225 C   0  0  0  0  0  0  0  0  0  0  0  0
   -7.1677  -28.8962   20.9646 O   0  0  0  0  0  0  0  0  0  0  0  0
   -6.3636  -28.2982   21.9963 C   0  0  0  0  0  0  0  0  0  0  0  0
   -5.9834  -29.0287   22.9430 O   0  0  0  0  0  0  0  0  0  0  0  0
   -5.8053  -26.3459   21.7210 C   0  0  0  0  0  0  0  0  0  0  0  0
   -5.7759  -25.0919   22.5612 C   0  0  0  0  0  0  0  0  0  0  0  0
   -5.9273  -23.8215   22.0435 C   0  0  0  0  0  0  0  0  0  0  0  0
   -5.9276  -23.5260   20.6627 N   0  0  0  0  0  0  0  0  0  0  0  0
   -5.9157  -22.3567   19.7698 C   0  0  0  0  0  0  0  0  0  0  0  0
   -5.0889  -21.1840   19.6835 N   0  0  0  0  0  0  0  0  0  0  0  0
   -5.0008  -20.1160   18.6179 C   0  0  0  0  0  0  0  0  0  0  0  0
   -5.6613  -19.9447   17.6249 O   0  0  0  0  0  0  0  0  0  0  0  0
   -3.7471  -19.1700   18.8578 C   0  0  0  0  0  0  0  0  0  0  0  0
   -3.6173  -17.6514   18.6071 C   0  0  0  0  0  0  0  0  0  0  0  0
   -3.9927  -16.8028   17.5765 C   0  0  0  0  0  0  0  0  0  0  0  0
   -3.4131  -15.5420   17.8555 C   0  0  0  0  0  0  0  0  0  0  0  0
   -2.7125  -15.5580   18.9859 N   0  0  0  0  0  0  0  0  0  0  0  0
   -2.7817  -16.8488   19.3801 N   0  0  0  0  0  0  0  0  0  0  0  0
   -6.5380  -22.8891   18.6514 C   0  0  0  0  0  0  0  0  0  0  0  0
   -6.4562  -24.2601   18.6459 N   0  0  0  0  0  0  0  0  0  0  0  0
   -5.9547  -24.6081   19.8105 C   0  0  0  0  0  0  0  0  0  0  0  0
   -5.7724  -25.9300   20.3368 C   0  0  0  0  0  0  0  0  0  0  0  0
   -6.6443  -30.8905   21.2418 H   0  0  0  0  0  0  0  0  0  0  0  0
   -8.1821  -30.5875   20.4089 H   0  0  0  0  0  0  0  0  0  0  0  0
   -8.0897  -30.3300   22.1614 H   0  0  0  0  0  0  0  0  0  0  0  0
   -5.6607  -25.1365   23.6254 H   0  0  0  0  0  0  0  0  0  0  0  0
   -6.0485  -22.9655   22.6845 H   0  0  0  0  0  0  0  0  0  0  0  0
   -4.4313  -20.9748   20.4179 H   0  0  0  0  0  0  0  0  0  0  0  0
   -3.2880  -19.4376   19.7926 H   0  0  0  0  0  0  0  0  0  0  0  0
   -3.0423  -19.5815   18.1185 H   0  0  0  0  0  0  0  0  0  0  0  0
   -4.5955  -17.0719   16.7193 H   0  0  0  0  0  0  0  0  0  0  0  0
   -3.4835  -14.6259   17.2838 H   0  0  0  0  0  0  0  0  0  0  0  0
   -2.2304  -17.1163   20.1922 H   0  0  0  0  0  0  0  0  0  0  0  0
   -6.8110  -22.3649   17.7424 H   0  0  0  0  0  0  0  0  0  0  0  0
   -5.9237  -26.6821   19.5522 H   0  0  0  0  0  0  0  0  0  0  0  0
  1  2  1  0
  2  3  1  0
  3  4  2  0
  3  5  1  0
  5  6  1  0
  6  7  2  0
  7  8  1  0
  8  9  1  0
  9 10  1  0
 10 11  1  0
 11 12  2  0
 11 13  1  0
 13 14  1  0
 14 15  2  0
 15 16  1  0
 16 17  2  0
 17 18  1  0
  9 19  2  0
 19 20  1  0
 20 21  2  0
 21 22  1  0
 22  5  2  0
 21  8  1  0
 18 14  1  0
  1 23  1  0
  1 24  1  0
  1 25  1  0
  6 26  1  0
  7 27  1  0
 10 28  1  0
 13 29  1  0
 13 30  1  0
 15 31  1  0
 16 32  1  0
 18 33  1  0
 19 34  1  0
 22 35  1  0
M  END
>  <Energy>  (1331) 
246.6404749377501

>  <compound_id>  (1331) 
36023

>  <target_id>  (1331) 
1

>  <reference_id>  (1331) 
122

>  <inspiration_ids>  (1331) 
[45, 122]

>  <energy_score>  (1331) 
139.41190618476605

>  <distance_score>  (1331) 
14.208428022309624

>  <path>  (1331) 
/opt/xchem-fragalysis-2/maxwin/BulkDock/SCRATCH/511013/C36023-P122/C36023-P122.minimised.mol

>  <scratch_subdir>  (1331) 
/opt/xchem-fragalysis-2/maxwin/BulkDock/SCRATCH/511013/C36023-P122

>  <fragmenstein_runtime>  (1331) 
26.806375980377197

>  <fragmenstein_outcome>  (1331) 
too moved

>  <fragmenstein_mode>  (1331) 
expansion

>  <fragmenstein_error>  (1331) 


$$$$
C36024-P45
     RDKit          3D

 30 33  0  0  0  0  0  0  0  0999 V2000
    3.6516  -22.4800   27.3987 C   0  0  0  0  0  0  0  0  0  0  0  0
    2.7530  -21.4260   27.9685 C   0  0  0  0  0  0  0  0  0  0  0  0
    1.4893  -21.8652   28.5565 C   0  0  0  0  0  0  0  0  0  0  0  0
    0.6205  -20.9809   29.0774 C   0  0  0  0  0  0  0  0  0  0  0  0
    0.9274  -19.5931   29.0598 C   0  0  0  0  0  0  0  0  0  0  0  0
    0.2136  -18.5796   29.4892 N   0  0  0  0  0  0  0  0  0  0  0  0
    1.0401  -17.4999   29.3465 C   0  0  0  0  0  0  0  0  0  0  0  0
    2.2693  -17.8151   28.7706 C   0  0  0  0  0  0  0  0  0  0  0  0
    3.3999  -16.6590   28.5289 C   0  0  0  0  0  0  0  0  0  0  0  0
    3.0860  -15.4270   28.9695 N   0  0  0  0  0  0  0  0  0  0  0  0
    4.1031  -14.6110   28.5235 O   0  0  0  0  0  0  0  0  0  0  0  0
    5.0298  -15.3864   27.8661 C   0  0  0  0  0  0  0  0  0  0  0  0
    6.2289  -14.7547   27.3317 C   0  0  0  0  0  0  0  0  0  0  0  0
    7.5355  -15.1630   27.1339 C   0  0  0  0  0  0  0  0  0  0  0  0
    8.2389  -14.0235   26.6621 C   0  0  0  0  0  0  0  0  0  0  0  0
    7.4232  -12.9817   26.4791 N   0  0  0  0  0  0  0  0  0  0  0  0
    6.2478  -13.4239   26.9753 N   0  0  0  0  0  0  0  0  0  0  0  0
    4.6533  -16.6763   27.8838 N   0  0  0  0  0  0  0  0  0  0  0  0
    2.1733  -19.1857   28.5393 N   0  0  0  0  0  0  0  0  0  0  0  0
    3.0581  -20.1079   27.9764 C   0  0  0  0  0  0  0  0  0  0  0  0
    3.9929  -23.1587   28.1875 H   0  0  0  0  0  0  0  0  0  0  0  0
    4.5380  -22.0434   26.9260 H   0  0  0  0  0  0  0  0  0  0  0  0
    3.1279  -23.0706   26.6399 H   0  0  0  0  0  0  0  0  0  0  0  0
    1.2471  -22.9253   28.5432 H   0  0  0  0  0  0  0  0  0  0  0  0
   -0.3293  -21.2899   29.5000 H   0  0  0  0  0  0  0  0  0  0  0  0
    0.7130  -16.5179   29.6677 H   0  0  0  0  0  0  0  0  0  0  0  0
    7.9379  -16.1473   27.3295 H   0  0  0  0  0  0  0  0  0  0  0  0
    9.2870  -13.9375   26.4026 H   0  0  0  0  0  0  0  0  0  0  0  0
    5.4582  -12.7869   26.9767 H   0  0  0  0  0  0  0  0  0  0  0  0
    3.9809  -19.7079   27.5737 H   0  0  0  0  0  0  0  0  0  0  0  0
  1  2  1  0
  2  3  1  0
  3  4  2  0
  4  5  1  0
  5  6  2  0
  6  7  1  0
  7  8  2  0
  8  9  1  0
  9 10  2  0
 10 11  1  0
 11 12  1  0
 12 13  1  0
 13 14  2  0
 14 15  1  0
 15 16  2  0
 16 17  1  0
 12 18  2  0
  8 19  1  0
 19 20  1  0
 20  2  2  0
 19  5  1  0
 18  9  1  0
 17 13  1  0
  1 21  1  0
  1 22  1  0
  1 23  1  0
  3 24  1  0
  4 25  1  0
  7 26  1  0
 14 27  1  0
 15 28  1  0
 17 29  1  0
 20 30  1  0
M  END
>  <Energy>  (1332) 
32.500852854754854

>  <compound_id>  (1332) 
36024

>  <target_id>  (1332) 
1

>  <reference_id>  (1332) 
45

>  <inspiration_ids>  (1332) 
[45, 122]

>  <energy_score>  (1332) 
-36.722240923862046

>  <distance_score>  (1332) 
13.855464821578526

>  <path>  (1332) 
/opt/xchem-fragalysis-2/maxwin/BulkDock/SCRATCH/511013/C36024-P45/C36024-P45.minimised.mol

>  <scratch_subdir>  (1332) 
/opt/xchem-fragalysis-2/maxwin/BulkDock/SCRATCH/511013/C36024-P45

>  <fragmenstein_runtime>  (1332) 
18.936522006988525

>  <fragmenstein_outcome>  (1332) 
too moved

>  <fragmenstein_mode>  (1332) 
expansion

>  <fragmenstein_error>  (1332) 


$$$$
C36024-P122
     RDKit          3D

 30 33  0  0  0  0  0  0  0  0999 V2000
    2.8205  -23.1193   27.7696 C   0  0  0  0  0  0  0  0  0  0  0  0
    2.2384  -21.8015   28.1670 C   0  0  0  0  0  0  0  0  0  0  0  0
    0.9096  -21.8001   28.7707 C   0  0  0  0  0  0  0  0  0  0  0  0
    0.2852  -20.6493   29.0809 C   0  0  0  0  0  0  0  0  0  0  0  0
    0.9478  -19.4038   28.8648 C   0  0  0  0  0  0  0  0  0  0  0  0
    0.5355  -18.1751   29.0839 N   0  0  0  0  0  0  0  0  0  0  0  0
    1.6189  -17.3775   28.7923 C   0  0  0  0  0  0  0  0  0  0  0  0
    2.7076  -18.0973   28.3411 C   0  0  0  0  0  0  0  0  0  0  0  0
    4.1371  -17.4459   27.9425 C   0  0  0  0  0  0  0  0  0  0  0  0
    5.2195  -18.1956   27.7069 N   0  0  0  0  0  0  0  0  0  0  0  0
    6.2264  -17.2695   27.4081 O   0  0  0  0  0  0  0  0  0  0  0  0
    5.6844  -16.0012   27.4514 C   0  0  0  0  0  0  0  0  0  0  0  0
    6.4700  -14.8152   27.1443 C   0  0  0  0  0  0  0  0  0  0  0  0
    7.8414  -14.6185   27.0290 C   0  0  0  0  0  0  0  0  0  0  0  0
    8.0176  -13.2835   26.5987 C   0  0  0  0  0  0  0  0  0  0  0  0
    6.8447  -12.6777   26.4073 N   0  0  0  0  0  0  0  0  0  0  0  0
    5.9375  -13.5922   26.8431 N   0  0  0  0  0  0  0  0  0  0  0  0
    4.4086  -16.0644   27.8289 N   0  0  0  0  0  0  0  0  0  0  0  0
    2.2631  -19.4251   28.3653 N   0  0  0  0  0  0  0  0  0  0  0  0
    2.8795  -20.6251   27.9968 C   0  0  0  0  0  0  0  0  0  0  0  0
    2.8473  -23.8075   28.6209 H   0  0  0  0  0  0  0  0  0  0  0  0
    2.2184  -23.5669   26.9752 H   0  0  0  0  0  0  0  0  0  0  0  0
    3.8436  -23.0155   27.3929 H   0  0  0  0  0  0  0  0  0  0  0  0
    0.4193  -22.7559   28.9387 H   0  0  0  0  0  0  0  0  0  0  0  0
   -0.7109  -20.6412   29.5099 H   0  0  0  0  0  0  0  0  0  0  0  0
    1.5718  -16.3049   28.9354 H   0  0  0  0  0  0  0  0  0  0  0  0
    8.6126  -15.3569   27.2027 H   0  0  0  0  0  0  0  0  0  0  0  0
    8.9379  -12.7552   26.3825 H   0  0  0  0  0  0  0  0  0  0  0  0
    4.9496  -13.3504   26.8137 H   0  0  0  0  0  0  0  0  0  0  0  0
    3.8715  -20.5545   27.5687 H   0  0  0  0  0  0  0  0  0  0  0  0
  1  2  1  0
  2  3  1  0
  3  4  2  0
  4  5  1  0
  5  6  2  0
  6  7  1  0
  7  8  2  0
  8  9  1  0
  9 10  2  0
 10 11  1  0
 11 12  1  0
 12 13  1  0
 13 14  2  0
 14 15  1  0
 15 16  2  0
 16 17  1  0
 12 18  2  0
  8 19  1  0
 19 20  1  0
 20  2  2  0
 19  5  1  0
 18  9  1  0
 17 13  1  0
  1 21  1  0
  1 22  1  0
  1 23  1  0
  3 24  1  0
  4 25  1  0
  7 26  1  0
 14 27  1  0
 15 28  1  0
 17 29  1  0
 20 30  1  0
M  END
>  <Energy>  (1333) 
22.06805458646971

>  <compound_id>  (1333) 
36024

>  <target_id>  (1333) 
1

>  <reference_id>  (1333) 
122

>  <inspiration_ids>  (1333) 
[45, 122]

>  <energy_score>  (1333) 
-47.15503919214211

>  <distance_score>  (1333) 
13.709408452233799

>  <path>  (1333) 
/opt/xchem-fragalysis-2/maxwin/BulkDock/SCRATCH/511013/C36024-P122/C36024-P122.minimised.mol

>  <scratch_subdir>  (1333) 
/opt/xchem-fragalysis-2/maxwin/BulkDock/SCRATCH/511013/C36024-P122

>  <fragmenstein_runtime>  (1333) 
15.647194623947144

>  <fragmenstein_outcome>  (1333) 
too moved

>  <fragmenstein_mode>  (1333) 
expansion

>  <fragmenstein_error>  (1333) 


$$$$
C36025-P45
     RDKit          3D

 30 32  0  0  0  0  0  0  0  0999 V2000
    1.9557  -11.7668   12.5541 O   0  0  0  0  0  0  0  0  0  0  0  0
    1.5368  -11.1568   13.7941 S   0  0  0  0  0  0  0  0  0  0  0  0
    0.5947  -10.0617   13.8397 O   0  0  0  0  0  0  0  0  0  0  0  0
    0.8528  -12.4455   14.7558 N   0  0  0  0  0  0  0  0  0  0  0  0
   -0.2886  -13.2132   14.0542 C   0  0  0  0  0  0  0  0  0  0  0  0
   -1.4024  -13.6830   14.9886 C   0  0  0  0  0  0  0  0  0  0  0  0
   -1.8994  -13.0667   16.1214 C   0  0  0  0  0  0  0  0  0  0  0  0
   -3.0699  -13.6249   16.5360 N   0  0  0  0  0  0  0  0  0  0  0  0
   -3.3115  -14.6410   15.7445 C   0  0  0  0  0  0  0  0  0  0  0  0
   -4.3749  -15.6046   15.7632 C   0  0  0  0  0  0  0  0  0  0  0  0
   -4.3712  -16.6228   14.8830 C   0  0  0  0  0  0  0  0  0  0  0  0
   -3.3170  -16.7266   13.8783 C   0  0  0  0  0  0  0  0  0  0  0  0
   -3.3899  -18.1448   12.6721 Br  0  0  0  0  0  0  0  0  0  0  0  0
   -2.3402  -15.7920   13.8303 C   0  0  0  0  0  0  0  0  0  0  0  0
   -2.3093  -14.7545   14.7739 N   0  0  0  0  0  0  0  0  0  0  0  0
    3.0376  -10.4450   14.4554 C   0  0  0  0  0  0  0  0  0  0  0  0
    4.3768  -10.8094   14.4628 C   0  0  0  0  0  0  0  0  0  0  0  0
    5.0787   -9.7098   14.9946 C   0  0  0  0  0  0  0  0  0  0  0  0
    4.2656   -8.7033   15.3151 N   0  0  0  0  0  0  0  0  0  0  0  0
    3.0431   -9.1640   14.9616 N   0  0  0  0  0  0  0  0  0  0  0  0
    1.5833  -13.1329   14.9815 H   0  0  0  0  0  0  0  0  0  0  0  0
    0.1609  -14.0734   13.5469 H   0  0  0  0  0  0  0  0  0  0  0  0
   -0.7490  -12.5618   13.3026 H   0  0  0  0  0  0  0  0  0  0  0  0
   -1.5106  -12.1821   16.6087 H   0  0  0  0  0  0  0  0  0  0  0  0
   -5.1547  -15.5045   16.5075 H   0  0  0  0  0  0  0  0  0  0  0  0
   -5.1558  -17.3716   14.9016 H   0  0  0  0  0  0  0  0  0  0  0  0
   -1.5395  -15.8203   13.1045 H   0  0  0  0  0  0  0  0  0  0  0  0
    4.7932  -11.7322   14.0816 H   0  0  0  0  0  0  0  0  0  0  0  0
    6.1446   -9.6099   15.1428 H   0  0  0  0  0  0  0  0  0  0  0  0
    2.2390   -8.5496   15.0597 H   0  0  0  0  0  0  0  0  0  0  0  0
  1  2  2  0
  2  3  2  0
  2  4  1  0
  4  5  1  0
  5  6  1  0
  6  7  2  0
  7  8  1  0
  8  9  2  0
  9 10  1  0
 10 11  2  0
 11 12  1  0
 12 13  1  0
 12 14  2  0
 14 15  1  0
  2 16  1  0
 16 17  2  0
 17 18  1  0
 18 19  2  0
 19 20  1  0
 15  6  1  0
 20 16  1  0
 15  9  1  0
  4 21  1  0
  5 22  1  0
  5 23  1  0
  7 24  1  0
 10 25  1  0
 11 26  1  0
 14 27  1  0
 17 28  1  0
 18 29  1  0
 20 30  1  0
M  END
>  <Energy>  (1334) 
-100.00663457255769

>  <compound_id>  (1334) 
36025

>  <target_id>  (1334) 
1

>  <reference_id>  (1334) 
45

>  <inspiration_ids>  (1334) 
[45, 122]

>  <energy_score>  (1334) 
-30.475653881403332

>  <distance_score>  (1334) 
15.300459767019634

>  <path>  (1334) 
/opt/xchem-fragalysis-2/maxwin/BulkDock/SCRATCH/511013/C36025-P45/C36025-P45.minimised.mol

>  <scratch_subdir>  (1334) 
/opt/xchem-fragalysis-2/maxwin/BulkDock/SCRATCH/511013/C36025-P45

>  <fragmenstein_runtime>  (1334) 
12.087822914123535

>  <fragmenstein_outcome>  (1334) 
too moved

>  <fragmenstein_mode>  (1334) 
expansion

>  <fragmenstein_error>  (1334) 


$$$$
C36025-P122
     RDKit          3D

 30 32  0  0  0  0  0  0  0  0999 V2000
    2.1371  -13.0207   24.3358 O   0  0  0  0  0  0  0  0  0  0  0  0
    1.4601  -13.3531   25.6516 S   0  0  0  0  0  0  0  0  0  0  0  0
    1.0991  -12.1943   26.4483 O   0  0  0  0  0  0  0  0  0  0  0  0
   -0.3575  -14.3258   24.6028 N   0  0  0  0  0  0  0  0  0  0  0  0
   -2.0520  -14.3635   25.5796 C   0  0  0  0  0  0  0  0  0  0  0  0
   -2.6841  -15.0096   27.0512 C   0  0  0  0  0  0  0  0  0  0  0  0
   -2.1132  -15.2284   28.3113 C   0  0  0  0  0  0  0  0  0  0  0  0
   -3.0029  -15.2734   29.3462 N   0  0  0  0  0  0  0  0  0  0  0  0
   -4.1750  -15.3088   28.7837 C   0  0  0  0  0  0  0  0  0  0  0  0
   -5.4312  -15.6910   29.3500 C   0  0  0  0  0  0  0  0  0  0  0  0
   -6.0673  -16.7211   28.7564 C   0  0  0  0  0  0  0  0  0  0  0  0
   -5.5112  -17.2094   27.4654 C   0  0  0  0  0  0  0  0  0  0  0  0
   -5.6578  -19.5269   26.7143 Br  0  0  0  0  0  0  0  0  0  0  0  0
   -5.0344  -16.1229   26.7207 C   0  0  0  0  0  0  0  0  0  0  0  0
   -4.0611  -15.3511   27.3922 N   0  0  0  0  0  0  0  0  0  0  0  0
    3.4329  -14.2226   26.4599 C   0  0  0  0  0  0  0  0  0  0  0  0
    4.5412  -14.7778   25.7661 C   0  0  0  0  0  0  0  0  0  0  0  0
    5.5646  -14.9620   26.7083 C   0  0  0  0  0  0  0  0  0  0  0  0
    5.2458  -14.4644   27.8938 N   0  0  0  0  0  0  0  0  0  0  0  0
    3.9705  -14.0548   27.7481 N   0  0  0  0  0  0  0  0  0  0  0  0
   -0.3658  -13.6458   23.8553 H   0  0  0  0  0  0  0  0  0  0  0  0
   -2.4850  -13.3601   25.5026 H   0  0  0  0  0  0  0  0  0  0  0  0
   -2.5908  -15.0708   24.9186 H   0  0  0  0  0  0  0  0  0  0  0  0
   -1.0846  -15.2746   28.5984 H   0  0  0  0  0  0  0  0  0  0  0  0
   -5.7526  -15.2721   30.2956 H   0  0  0  0  0  0  0  0  0  0  0  0
   -6.9955  -17.1019   29.1627 H   0  0  0  0  0  0  0  0  0  0  0  0
   -5.0270  -15.9858   25.6568 H   0  0  0  0  0  0  0  0  0  0  0  0
    4.5523  -15.0623   24.7271 H   0  0  0  0  0  0  0  0  0  0  0  0
    6.5361  -15.4256   26.5839 H   0  0  0  0  0  0  0  0  0  0  0  0
    3.6106  -13.4844   28.5002 H   0  0  0  0  0  0  0  0  0  0  0  0
  1  2  2  0
  2  3  2  0
  2  4  1  0
  4  5  1  0
  5  6  1  0
  6  7  2  0
  7  8  1  0
  8  9  2  0
  9 10  1  0
 10 11  2  0
 11 12  1  0
 12 13  1  0
 12 14  2  0
 14 15  1  0
  2 16  1  0
 16 17  2  0
 17 18  1  0
 18 19  2  0
 19 20  1  0
 15  6  1  0
 20 16  1  0
 15  9  1  0
  4 21  1  0
  5 22  1  0
  5 23  1  0
  7 24  1  0
 10 25  1  0
 11 26  1  0
 14 27  1  0
 17 28  1  0
 18 29  1  0
 20 30  1  0
M  END
>  <Energy>  (1335) 
281.05260218498961

>  <compound_id>  (1335) 
36025

>  <target_id>  (1335) 
1

>  <reference_id>  (1335) 
122

>  <inspiration_ids>  (1335) 
[45, 122]

>  <energy_score>  (1335) 
350.5835828761459

>  <distance_score>  (1335) 
14.404103982891636

>  <path>  (1335) 
/opt/xchem-fragalysis-2/maxwin/BulkDock/SCRATCH/511013/C36025-P122/C36025-P122.minimised.mol

>  <scratch_subdir>  (1335) 
/opt/xchem-fragalysis-2/maxwin/BulkDock/SCRATCH/511013/C36025-P122

>  <fragmenstein_runtime>  (1335) 
15.402900695800781

>  <fragmenstein_outcome>  (1335) 
too moved

>  <fragmenstein_mode>  (1335) 
expansion

>  <fragmenstein_error>  (1335) 


$$$$
C36006-P45
     RDKit          3D

 41 43  0  0  0  0  0  0  0  0999 V2000
   -5.8558  -18.3765   17.3135 C   0  0  0  0  0  0  0  0  0  0  0  0
   -4.6393  -18.5121   18.1880 C   0  0  0  0  0  0  0  0  0  0  0  0
   -4.3066  -19.7342   18.6553 C   0  0  0  0  0  0  0  0  0  0  0  0
   -3.0782  -19.9151   19.3799 C   0  0  0  0  0  0  0  0  0  0  0  0
   -2.3663  -18.8262   19.7350 C   0  0  0  0  0  0  0  0  0  0  0  0
   -2.6808  -17.5622   19.3522 N   0  0  0  0  0  0  0  0  0  0  0  0
   -1.8947  -16.3527   19.5483 C   0  0  0  0  0  0  0  0  0  0  0  0
   -1.9429  -15.5449   18.3769 C   0  0  0  0  0  0  0  0  0  0  0  0
   -1.2801  -13.9182   17.5229 C   0  0  0  0  0  0  0  0  0  0  0  0
    0.6840  -13.7626   17.0724 C   0  0  0  0  0  0  0  0  0  0  0  0
    1.7041  -12.7649   15.7567 N   0  0  0  0  0  0  0  0  0  0  0  0
    3.1050  -11.6887   15.9484 C   0  0  0  0  0  0  0  0  0  0  0  0
    3.6047  -11.3333   16.9799 O   0  0  0  0  0  0  0  0  0  0  0  0
    3.7697  -11.2947   14.4328 C   0  0  0  0  0  0  0  0  0  0  0  0
    3.7779   -9.8485   13.8232 C   0  0  0  0  0  0  0  0  0  0  0  0
    4.2569   -8.7289   14.6770 C   0  0  0  0  0  0  0  0  0  0  0  0
    3.6305   -7.8892   15.5789 C   0  0  0  0  0  0  0  0  0  0  0  0
    4.6624   -7.2481   16.2647 C   0  0  0  0  0  0  0  0  0  0  0  0
    5.8394   -7.4995   15.7006 N   0  0  0  0  0  0  0  0  0  0  0  0
    5.5603   -8.3321   14.6763 N   0  0  0  0  0  0  0  0  0  0  0  0
   -3.2689  -16.4764   17.6581 N   0  0  0  0  0  0  0  0  0  0  0  0
   -3.6992  -17.4432   18.4379 C   0  0  0  0  0  0  0  0  0  0  0  0
   -6.7165  -18.0533   17.9061 H   0  0  0  0  0  0  0  0  0  0  0  0
   -6.1190  -19.3243   16.8307 H   0  0  0  0  0  0  0  0  0  0  0  0
   -5.6824  -17.6462   16.5163 H   0  0  0  0  0  0  0  0  0  0  0  0
   -4.9225  -20.6094   18.4742 H   0  0  0  0  0  0  0  0  0  0  0  0
   -2.7934  -20.9175   19.6664 H   0  0  0  0  0  0  0  0  0  0  0  0
   -1.5100  -18.7881   20.3689 H   0  0  0  0  0  0  0  0  0  0  0  0
   -1.1743  -16.3801   20.3421 H   0  0  0  0  0  0  0  0  0  0  0  0
   -1.8181  -14.0346   16.5683 H   0  0  0  0  0  0  0  0  0  0  0  0
   -1.6550  -13.0448   18.0643 H   0  0  0  0  0  0  0  0  0  0  0  0
    0.6622  -14.5825   16.3801 H   0  0  0  0  0  0  0  0  0  0  0  0
    1.3983  -14.0763   17.8310 H   0  0  0  0  0  0  0  0  0  0  0  0
    1.4527  -12.8230   14.7872 H   0  0  0  0  0  0  0  0  0  0  0  0
    4.8099  -11.6322   14.4656 H   0  0  0  0  0  0  0  0  0  0  0  0
    3.3025  -11.9649   13.6963 H   0  0  0  0  0  0  0  0  0  0  0  0
    4.3991   -9.8891   12.9174 H   0  0  0  0  0  0  0  0  0  0  0  0
    2.7762   -9.6025   13.4526 H   0  0  0  0  0  0  0  0  0  0  0  0
    2.5779   -7.8279   15.8100 H   0  0  0  0  0  0  0  0  0  0  0  0
    4.6009   -6.5821   17.1155 H   0  0  0  0  0  0  0  0  0  0  0  0
    6.3295   -8.6929   14.1117 H   0  0  0  0  0  0  0  0  0  0  0  0
  1  2  1  0
  2  3  2  0
  3  4  1  0
  4  5  2  0
  5  6  1  0
  6  7  1  0
  7  8  2  0
  8  9  1  0
  9 10  1  0
 10 11  1  0
 11 12  1  0
 12 13  2  0
 12 14  1  0
 14 15  1  0
 15 16  1  0
 16 17  2  0
 17 18  1  0
 18 19  2  0
 19 20  1  0
  8 21  1  0
 21 22  2  0
 22  2  1  0
 22  6  1  0
 20 16  1  0
  1 23  1  0
  1 24  1  0
  1 25  1  0
  3 26  1  0
  4 27  1  0
  5 28  1  0
  7 29  1  0
  9 30  1  0
  9 31  1  0
 10 32  1  0
 10 33  1  0
 11 34  1  0
 14 35  1  0
 14 36  1  0
 15 37  1  0
 15 38  1  0
 17 39  1  0
 18 40  1  0
 20 41  1  0
M  END
>  <Energy>  (1336) 
328.66477508822368

>  <compound_id>  (1336) 
36006

>  <target_id>  (1336) 
1

>  <reference_id>  (1336) 
45

>  <inspiration_ids>  (1336) 
[45, 122]

>  <energy_score>  (1336) 
284.22665322433556

>  <distance_score>  (1336) 
11.809108766466883

>  <path>  (1336) 
/opt/xchem-fragalysis-2/maxwin/BulkDock/SCRATCH/511013/C36006-P45/C36006-P45.minimised.mol

>  <scratch_subdir>  (1336) 
/opt/xchem-fragalysis-2/maxwin/BulkDock/SCRATCH/511013/C36006-P45

>  <fragmenstein_runtime>  (1336) 
21.95410680770874

>  <fragmenstein_outcome>  (1336) 
too moved

>  <fragmenstein_mode>  (1336) 
expansion

>  <fragmenstein_error>  (1336) 


$$$$
C36006-P122
     RDKit          3D

 41 43  0  0  0  0  0  0  0  0999 V2000
   -2.7948  -27.9727   28.2757 C   0  0  0  0  0  0  0  0  0  0  0  0
   -3.0793  -26.8494   27.3254 C   0  0  0  0  0  0  0  0  0  0  0  0
   -3.5479  -28.0282   26.1947 C   0  0  0  0  0  0  0  0  0  0  0  0
   -3.1482  -27.1962   24.5225 C   0  0  0  0  0  0  0  0  0  0  0  0
   -2.1631  -26.1401   24.4896 C   0  0  0  0  0  0  0  0  0  0  0  0
   -1.4670  -25.1881   25.7925 N   0  0  0  0  0  0  0  0  0  0  0  0
    0.0399  -23.9465   25.8597 C   0  0  0  0  0  0  0  0  0  0  0  0
    0.2202  -23.1737   27.5285 C   0  0  0  0  0  0  0  0  0  0  0  0
    0.9349  -21.9370   28.1799 C   0  0  0  0  0  0  0  0  0  0  0  0
    2.4408  -21.5792   27.8016 C   0  0  0  0  0  0  0  0  0  0  0  0
    2.9067  -20.1213   27.6954 N   0  0  0  0  0  0  0  0  0  0  0  0
    4.2092  -19.5476   27.2786 C   0  0  0  0  0  0  0  0  0  0  0  0
    5.1957  -20.0819   26.8451 O   0  0  0  0  0  0  0  0  0  0  0  0
    4.3144  -17.9258   27.3957 C   0  0  0  0  0  0  0  0  0  0  0  0
    5.7657  -17.3329   27.0408 C   0  0  0  0  0  0  0  0  0  0  0  0
    6.1526  -15.8537   27.0347 C   0  0  0  0  0  0  0  0  0  0  0  0
    7.3897  -15.2980   27.3604 C   0  0  0  0  0  0  0  0  0  0  0  0
    7.3305  -13.9388   27.0184 C   0  0  0  0  0  0  0  0  0  0  0  0
    6.1624  -13.6440   26.4517 N   0  0  0  0  0  0  0  0  0  0  0  0
    5.4325  -14.7883   26.5605 N   0  0  0  0  0  0  0  0  0  0  0  0
   -1.6845  -23.6687   27.6972 N   0  0  0  0  0  0  0  0  0  0  0  0
   -2.3459  -25.1633   26.9993 C   0  0  0  0  0  0  0  0  0  0  0  0
   -2.2351  -28.1769   29.1604 H   0  0  0  0  0  0  0  0  0  0  0  0
   -2.0410  -28.5857   27.8867 H   0  0  0  0  0  0  0  0  0  0  0  0
   -3.7586  -28.3597   28.5200 H   0  0  0  0  0  0  0  0  0  0  0  0
   -4.5032  -28.4956   26.2507 H   0  0  0  0  0  0  0  0  0  0  0  0
   -3.4406  -27.7424   23.6493 H   0  0  0  0  0  0  0  0  0  0  0  0
   -1.6142  -26.1069   23.5580 H   0  0  0  0  0  0  0  0  0  0  0  0
    0.6484  -23.8684   24.9549 H   0  0  0  0  0  0  0  0  0  0  0  0
    0.9214  -22.1411   29.2593 H   0  0  0  0  0  0  0  0  0  0  0  0
    0.3132  -21.0445   28.0615 H   0  0  0  0  0  0  0  0  0  0  0  0
    3.0887  -22.0132   28.5735 H   0  0  0  0  0  0  0  0  0  0  0  0
    2.7427  -22.0717   26.8738 H   0  0  0  0  0  0  0  0  0  0  0  0
    2.3306  -19.3859   28.0909 H   0  0  0  0  0  0  0  0  0  0  0  0
    3.5783  -17.5187   26.7047 H   0  0  0  0  0  0  0  0  0  0  0  0
    4.0448  -17.6399   28.4174 H   0  0  0  0  0  0  0  0  0  0  0  0
    6.4331  -17.8038   27.7793 H   0  0  0  0  0  0  0  0  0  0  0  0
    6.1142  -17.7393   26.0903 H   0  0  0  0  0  0  0  0  0  0  0  0
    8.2391  -15.8341   27.7620 H   0  0  0  0  0  0  0  0  0  0  0  0
    8.0933  -13.1764   27.1100 H   0  0  0  0  0  0  0  0  0  0  0  0
    4.4812  -14.7665   26.2104 H   0  0  0  0  0  0  0  0  0  0  0  0
  1  2  1  0
  2  3  2  0
  3  4  1  0
  4  5  2  0
  5  6  1  0
  6  7  1  0
  7  8  2  0
  8  9  1  0
  9 10  1  0
 10 11  1  0
 11 12  1  0
 12 13  2  0
 12 14  1  0
 14 15  1  0
 15 16  1  0
 16 17  2  0
 17 18  1  0
 18 19  2  0
 19 20  1  0
  8 21  1  0
 21 22  2  0
 22  2  1  0
 22  6  1  0
 20 16  1  0
  1 23  1  0
  1 24  1  0
  1 25  1  0
  3 26  1  0
  4 27  1  0
  5 28  1  0
  7 29  1  0
  9 30  1  0
  9 31  1  0
 10 32  1  0
 10 33  1  0
 11 34  1  0
 14 35  1  0
 14 36  1  0
 15 37  1  0
 15 38  1  0
 17 39  1  0
 18 40  1  0
 20 41  1  0
M  END
>  <Energy>  (1337) 
726.03207317340537

>  <compound_id>  (1337) 
36006

>  <target_id>  (1337) 
1

>  <reference_id>  (1337) 
122

>  <inspiration_ids>  (1337) 
[45, 122]

>  <energy_score>  (1337) 
681.5939513095177

>  <distance_score>  (1337) 
11.715354502949753

>  <path>  (1337) 
/opt/xchem-fragalysis-2/maxwin/BulkDock/SCRATCH/511013/C36006-P122/C36006-P122.minimised.mol

>  <scratch_subdir>  (1337) 
/opt/xchem-fragalysis-2/maxwin/BulkDock/SCRATCH/511013/C36006-P122

>  <fragmenstein_runtime>  (1337) 
27.164365768432617

>  <fragmenstein_outcome>  (1337) 
too moved

>  <fragmenstein_mode>  (1337) 
expansion

>  <fragmenstein_error>  (1337) 


$$$$
C36026-P45
     RDKit          3D

 42 44  0  0  0  0  0  0  0  0999 V2000
    2.7895  -14.8052   21.4037 C   0  0  0  0  0  0  0  0  0  0  0  0
    3.1893  -15.5665   23.3262 C   0  0  0  0  0  0  0  0  0  0  0  0
    2.9648  -17.6626   24.0657 C   0  0  0  0  0  0  0  0  0  0  0  0
    2.1728  -19.5433   24.5135 N   0  0  0  0  0  0  0  0  0  0  0  0
    0.4235  -20.5897   23.9604 C   0  0  0  0  0  0  0  0  0  0  0  0
   -0.5087  -20.1246   23.2713 O   0  0  0  0  0  0  0  0  0  0  0  0
   -0.1440  -22.6583   24.7204 C   0  0  0  0  0  0  0  0  0  0  0  0
    0.2061  -24.0868   25.5244 C   0  0  0  0  0  0  0  0  0  0  0  0
   -1.2059  -25.5530   25.7849 C   0  0  0  0  0  0  0  0  0  0  0  0
   -1.9945  -26.0749   24.8263 C   0  0  0  0  0  0  0  0  0  0  0  0
   -2.5834  -25.1773   25.6479 C   0  0  0  0  0  0  0  0  0  0  0  0
   -3.7319  -25.3744   26.4624 N   0  0  0  0  0  0  0  0  0  0  0  0
   -3.7389  -24.4902   27.5746 C   0  0  0  0  0  0  0  0  0  0  0  0
   -2.2314  -23.8851   27.6221 C   0  0  0  0  0  0  0  0  0  0  0  0
   -1.3940  -23.6594   25.9737 N   0  0  0  0  0  0  0  0  0  0  0  0
    3.3433  -13.7029   23.4337 N   0  0  0  0  0  0  0  0  0  0  0  0
    3.9360  -12.5055   22.1695 C   0  0  0  0  0  0  0  0  0  0  0  0
    4.2369  -12.7416   20.9924 O   0  0  0  0  0  0  0  0  0  0  0  0
    4.2659  -11.1332   22.4786 C   0  0  0  0  0  0  0  0  0  0  0  0
    5.9650  -10.5299   23.0473 C   0  0  0  0  0  0  0  0  0  0  0  0
    6.4452   -9.4063   23.7593 C   0  0  0  0  0  0  0  0  0  0  0  0
    7.8408   -9.3364   23.5465 C   0  0  0  0  0  0  0  0  0  0  0  0
    8.2579  -10.2729   22.7053 N   0  0  0  0  0  0  0  0  0  0  0  0
    7.1423  -10.9313   22.3661 N   0  0  0  0  0  0  0  0  0  0  0  0
    3.0690  -13.9042   20.9814 H   0  0  0  0  0  0  0  0  0  0  0  0
    1.6755  -14.9401   21.0624 H   0  0  0  0  0  0  0  0  0  0  0  0
    2.5488  -15.3428   20.4716 H   0  0  0  0  0  0  0  0  0  0  0  0
    4.2627  -15.6176   23.5265 H   0  0  0  0  0  0  0  0  0  0  0  0
    2.5489  -17.6649   25.0735 H   0  0  0  0  0  0  0  0  0  0  0  0
    3.8252  -17.7016   24.7225 H   0  0  0  0  0  0  0  0  0  0  0  0
    2.8428  -20.1755   25.0148 H   0  0  0  0  0  0  0  0  0  0  0  0
    1.0057  -23.9790   26.2661 H   0  0  0  0  0  0  0  0  0  0  0  0
   -1.1487  -26.3039   26.4716 H   0  0  0  0  0  0  0  0  0  0  0  0
   -2.4828  -27.0165   24.7745 H   0  0  0  0  0  0  0  0  0  0  0  0
   -4.5530  -24.3303   28.2652 H   0  0  0  0  0  0  0  0  0  0  0  0
   -2.1125  -24.9328   27.5987 H   0  0  0  0  0  0  0  0  0  0  0  0
    3.2550  -13.2366   24.3339 H   0  0  0  0  0  0  0  0  0  0  0  0
    4.8174  -11.0147   21.5699 H   0  0  0  0  0  0  0  0  0  0  0  0
    3.4177  -10.6110   22.8131 H   0  0  0  0  0  0  0  0  0  0  0  0
    5.8831   -8.6543   24.2928 H   0  0  0  0  0  0  0  0  0  0  0  0
    8.5501   -8.6162   23.9356 H   0  0  0  0  0  0  0  0  0  0  0  0
    7.2004  -11.5815   21.5876 H   0  0  0  0  0  0  0  0  0  0  0  0
  1  2  1  0
  2  3  1  0
  3  4  1  0
  4  5  1  0
  5  6  2  0
  5  7  1  0
  7  8  2  0
  8  9  1  0
  9 10  2  0
 10 11  1  0
 11 12  2  0
 12 13  1  0
 13 14  2  0
 14 15  1  0
  2 16  1  0
 16 17  1  0
 17 18  2  0
 17 19  1  0
 19 20  1  0
 20 21  2  0
 21 22  1  0
 22 23  2  0
 23 24  1  0
 15  7  1  0
 24 20  1  0
 15 11  1  0
  1 25  1  0
  1 26  1  0
  1 27  1  0
  2 28  1  0
  3 29  1  0
  3 30  1  0
  4 31  1  0
  8 32  1  0
  9 33  1  0
 10 34  1  0
 13 35  1  0
 14 36  1  0
 16 37  1  0
 19 38  1  0
 19 39  1  0
 21 40  1  0
 22 41  1  0
 24 42  1  0
M  END
>  <Energy>  (1338) 
2212.6327755887201

>  <compound_id>  (1338) 
36026

>  <target_id>  (1338) 
1

>  <reference_id>  (1338) 
45

>  <inspiration_ids>  (1338) 
[45, 122]

>  <energy_score>  (1338) 
2141.8273584802027

>  <distance_score>  (1338) 
8.991460540696519

>  <path>  (1338) 
/opt/xchem-fragalysis-2/maxwin/BulkDock/SCRATCH/511013/C36026-P45/C36026-P45.minimised.mol

>  <scratch_subdir>  (1338) 
/opt/xchem-fragalysis-2/maxwin/BulkDock/SCRATCH/511013/C36026-P45

>  <fragmenstein_runtime>  (1338) 
23.951093673706055

>  <fragmenstein_outcome>  (1338) 
too moved

>  <fragmenstein_mode>  (1338) 
expansion

>  <fragmenstein_error>  (1338) 


$$$$
C36026-P122
     RDKit          3D

 42 44  0  0  0  0  0  0  0  0999 V2000
   -3.7781  -17.8634   18.3363 C   0  0  0  0  0  0  0  0  0  0  0  0
   -3.2377  -17.9170   19.7694 C   0  0  0  0  0  0  0  0  0  0  0  0
   -4.5284  -19.7107   20.2113 C   0  0  0  0  0  0  0  0  0  0  0  0
   -4.5578  -21.2388   21.6455 N   0  0  0  0  0  0  0  0  0  0  0  0
   -6.0024  -22.2773   22.6059 C   0  0  0  0  0  0  0  0  0  0  0  0
   -7.1515  -22.0861   22.2470 O   0  0  0  0  0  0  0  0  0  0  0  0
   -5.9895  -23.6105   24.3758 C   0  0  0  0  0  0  0  0  0  0  0  0
   -6.1932  -25.2165   25.0353 C   0  0  0  0  0  0  0  0  0  0  0  0
   -6.7414  -26.9200   26.5692 C   0  0  0  0  0  0  0  0  0  0  0  0
   -7.0348  -26.0919   28.1465 C   0  0  0  0  0  0  0  0  0  0  0  0
   -6.2607  -24.1708   28.0049 C   0  0  0  0  0  0  0  0  0  0  0  0
   -5.2089  -23.4881   28.1885 N   0  0  0  0  0  0  0  0  0  0  0  0
   -5.9705  -22.4461   27.8197 C   0  0  0  0  0  0  0  0  0  0  0  0
   -5.3762  -22.2431   26.7100 C   0  0  0  0  0  0  0  0  0  0  0  0
   -6.0878  -23.3480   26.2388 N   0  0  0  0  0  0  0  0  0  0  0  0
   -1.3794  -16.9211   19.5628 N   0  0  0  0  0  0  0  0  0  0  0  0
   -0.8423  -15.1050   18.7919 C   0  0  0  0  0  0  0  0  0  0  0  0
   -1.7837  -14.4137   18.4729 O   0  0  0  0  0  0  0  0  0  0  0  0
    1.1389  -14.0737   18.0963 C   0  0  0  0  0  0  0  0  0  0  0  0
    2.9661  -12.7726   17.9524 C   0  0  0  0  0  0  0  0  0  0  0  0
    3.4234  -11.7552   16.4547 C   0  0  0  0  0  0  0  0  0  0  0  0
    3.8874  -10.4756   15.9708 C   0  0  0  0  0  0  0  0  0  0  0  0
    3.7693   -9.9044   17.1162 N   0  0  0  0  0  0  0  0  0  0  0  0
    2.9314  -10.9686   17.6107 N   0  0  0  0  0  0  0  0  0  0  0  0
   -3.3545  -18.6898   17.7623 H   0  0  0  0  0  0  0  0  0  0  0  0
   -3.5810  -16.9199   17.8570 H   0  0  0  0  0  0  0  0  0  0  0  0
   -4.8666  -17.9827   18.3283 H   0  0  0  0  0  0  0  0  0  0  0  0
   -3.6499  -17.0802   20.3035 H   0  0  0  0  0  0  0  0  0  0  0  0
   -4.2744  -20.3436   19.3523 H   0  0  0  0  0  0  0  0  0  0  0  0
   -5.5699  -19.3680   20.1765 H   0  0  0  0  0  0  0  0  0  0  0  0
   -3.7267  -21.3975   22.0696 H   0  0  0  0  0  0  0  0  0  0  0  0
   -5.9954  -25.4630   23.8857 H   0  0  0  0  0  0  0  0  0  0  0  0
   -6.1876  -27.8859   26.6988 H   0  0  0  0  0  0  0  0  0  0  0  0
   -8.1273  -26.0400   28.4268 H   0  0  0  0  0  0  0  0  0  0  0  0
   -7.0341  -22.2044   27.9522 H   0  0  0  0  0  0  0  0  0  0  0  0
   -5.0353  -21.4282   26.0809 H   0  0  0  0  0  0  0  0  0  0  0  0
   -0.5339  -17.3984   19.8820 H   0  0  0  0  0  0  0  0  0  0  0  0
    0.9988  -14.0443   17.0075 H   0  0  0  0  0  0  0  0  0  0  0  0
    1.9290  -14.8661   18.2375 H   0  0  0  0  0  0  0  0  0  0  0  0
    3.1744  -12.1178   15.4389 H   0  0  0  0  0  0  0  0  0  0  0  0
    4.1624  -10.0368   15.0176 H   0  0  0  0  0  0  0  0  0  0  0  0
    2.4594  -10.4903   18.3322 H   0  0  0  0  0  0  0  0  0  0  0  0
  1  2  1  0
  2  3  1  0
  3  4  1  0
  4  5  1  0
  5  6  2  0
  5  7  1  0
  7  8  2  0
  8  9  1  0
  9 10  2  0
 10 11  1  0
 11 12  2  0
 12 13  1  0
 13 14  2  0
 14 15  1  0
  2 16  1  0
 16 17  1  0
 17 18  2  0
 17 19  1  0
 19 20  1  0
 20 21  2  0
 21 22  1  0
 22 23  2  0
 23 24  1  0
 15  7  1  0
 24 20  1  0
 15 11  1  0
  1 25  1  0
  1 26  1  0
  1 27  1  0
  2 28  1  0
  3 29  1  0
  3 30  1  0
  4 31  1  0
  8 32  1  0
  9 33  1  0
 10 34  1  0
 13 35  1  0
 14 36  1  0
 16 37  1  0
 19 38  1  0
 19 39  1  0
 21 40  1  0
 22 41  1  0
 24 42  1  0
M  END
>  <Energy>  (1339) 
2894.829721446692

>  <compound_id>  (1339) 
36026

>  <target_id>  (1339) 
1

>  <reference_id>  (1339) 
122

>  <inspiration_ids>  (1339) 
[45, 122]

>  <energy_score>  (1339) 
2824.0243043381392

>  <distance_score>  (1339) 
8.667705967934783

>  <path>  (1339) 
/opt/xchem-fragalysis-2/maxwin/BulkDock/SCRATCH/511013/C36026-P122/C36026-P122.minimised.mol

>  <scratch_subdir>  (1339) 
/opt/xchem-fragalysis-2/maxwin/BulkDock/SCRATCH/511013/C36026-P122

>  <fragmenstein_runtime>  (1339) 
27.42553448677063

>  <fragmenstein_outcome>  (1339) 
too moved

>  <fragmenstein_mode>  (1339) 
expansion

>  <fragmenstein_error>  (1339) 


$$$$
C36014-P45
     RDKit          3D

 36 39  0  0  0  0  0  0  0  0999 V2000
   -0.0072  -14.3343   22.5789 O   0  0  0  0  0  0  0  0  0  0  0  0
    0.2188  -14.0010   23.6905 C   0  0  0  0  0  0  0  0  0  0  0  0
    1.8983  -13.0324   23.9457 N   0  0  0  0  0  0  0  0  0  0  0  0
    3.2393  -12.4273   22.6987 C   0  0  0  0  0  0  0  0  0  0  0  0
    3.5334  -13.1582   21.4475 C   0  0  0  0  0  0  0  0  0  0  0  0
    4.2800  -13.0481   20.2054 C   0  0  0  0  0  0  0  0  0  0  0  0
    5.5322  -12.8201   20.2872 C   0  0  0  0  0  0  0  0  0  0  0  0
    5.6395  -11.6444   20.8520 C   0  0  0  0  0  0  0  0  0  0  0  0
    6.7199  -11.0743   19.8134 C   0  0  0  0  0  0  0  0  0  0  0  0
    6.4376  -10.8614   18.5423 C   0  0  0  0  0  0  0  0  0  0  0  0
    7.9067  -10.6320   17.4331 C   0  0  0  0  0  0  0  0  0  0  0  0
    8.7621  -10.6572   18.3419 N   0  0  0  0  0  0  0  0  0  0  0  0
    7.7941  -10.2945   19.3383 N   0  0  0  0  0  0  0  0  0  0  0  0
    4.4218  -11.4025   22.1524 C   0  0  0  0  0  0  0  0  0  0  0  0
   -1.2959  -14.5148   24.8319 C   0  0  0  0  0  0  0  0  0  0  0  0
   -1.9951  -14.5366   26.1661 C   0  0  0  0  0  0  0  0  0  0  0  0
   -3.2574  -15.0747   26.3020 N   0  0  0  0  0  0  0  0  0  0  0  0
   -3.9243  -15.6466   27.3913 C   0  0  0  0  0  0  0  0  0  0  0  0
   -5.2176  -15.9900   27.2519 C   0  0  0  0  0  0  0  0  0  0  0  0
   -5.8922  -15.5875   26.0248 C   0  0  0  0  0  0  0  0  0  0  0  0
   -5.2056  -15.0263   25.0018 C   0  0  0  0  0  0  0  0  0  0  0  0
   -3.7651  -14.9535   25.0722 C   0  0  0  0  0  0  0  0  0  0  0  0
   -2.7095  -15.1765   24.2555 N   0  0  0  0  0  0  0  0  0  0  0  0
    1.9464  -12.7220   24.9133 H   0  0  0  0  0  0  0  0  0  0  0  0
    3.1789  -14.1837   21.5143 H   0  0  0  0  0  0  0  0  0  0  0  0
    4.0318  -13.5988   19.2812 H   0  0  0  0  0  0  0  0  0  0  0  0
    6.0031  -13.3121   19.4970 H   0  0  0  0  0  0  0  0  0  0  0  0
    5.7079  -11.6288   18.3990 H   0  0  0  0  0  0  0  0  0  0  0  0
    8.2020  -10.7656   16.4041 H   0  0  0  0  0  0  0  0  0  0  0  0
    7.6314   -9.3324   19.1441 H   0  0  0  0  0  0  0  0  0  0  0  0
    4.8679  -10.5841   22.7044 H   0  0  0  0  0  0  0  0  0  0  0  0
   -1.5524  -14.6057   27.1603 H   0  0  0  0  0  0  0  0  0  0  0  0
   -3.3584  -15.8040   28.2994 H   0  0  0  0  0  0  0  0  0  0  0  0
   -5.7940  -16.4583   28.0430 H   0  0  0  0  0  0  0  0  0  0  0  0
   -6.9688  -15.7178   25.9662 H   0  0  0  0  0  0  0  0  0  0  0  0
   -5.7055  -14.7255   24.0892 H   0  0  0  0  0  0  0  0  0  0  0  0
  1  2  2  0
  2  3  1  0
  3  4  1  0
  4  5  2  0
  5  6  1  0
  6  7  2  0
  7  8  1  0
  8  9  1  0
  9 10  2  0
 10 11  1  0
 11 12  2  0
 12 13  1  0
  8 14  2  0
  2 15  1  0
 15 16  2  0
 16 17  1  0
 17 18  1  0
 18 19  2  0
 19 20  1  0
 20 21  2  0
 21 22  1  0
 22 23  2  0
 14  4  1  0
 23 15  1  0
 13  9  1  0
 22 17  1  0
  3 24  1  0
  5 25  1  0
  6 26  1  0
  7 27  1  0
 10 28  1  0
 11 29  1  0
 13 30  1  0
 14 31  1  0
 16 32  1  0
 18 33  1  0
 19 34  1  0
 20 35  1  0
 21 36  1  0
M  END
>  <Energy>  (1340) 
873.9227227888972

>  <compound_id>  (1340) 
36014

>  <target_id>  (1340) 
1

>  <reference_id>  (1340) 
45

>  <inspiration_ids>  (1340) 
[45, 122]

>  <energy_score>  (1340) 
775.3397716861341

>  <distance_score>  (1340) 
11.675118963249774

>  <path>  (1340) 
/opt/xchem-fragalysis-2/maxwin/BulkDock/SCRATCH/511013/C36014-P45/C36014-P45.minimised.mol

>  <scratch_subdir>  (1340) 
/opt/xchem-fragalysis-2/maxwin/BulkDock/SCRATCH/511013/C36014-P45

>  <fragmenstein_runtime>  (1340) 
15.993556261062622

>  <fragmenstein_outcome>  (1340) 
too moved

>  <fragmenstein_mode>  (1340) 
expansion

>  <fragmenstein_error>  (1340) 


$$$$
C36014-P122
     RDKit          3D

 36 39  0  0  0  0  0  0  0  0999 V2000
    0.8604  -15.0854   22.0826 O   0  0  0  0  0  0  0  0  0  0  0  0
    1.1353  -15.3104   20.9239 C   0  0  0  0  0  0  0  0  0  0  0  0
    2.5884  -14.3688   20.0775 N   0  0  0  0  0  0  0  0  0  0  0  0
    3.9150  -12.9864   20.7704 C   0  0  0  0  0  0  0  0  0  0  0  0
    4.5027  -13.0751   19.5143 C   0  0  0  0  0  0  0  0  0  0  0  0
    5.7994  -12.6499   19.2700 C   0  0  0  0  0  0  0  0  0  0  0  0
    6.2810  -11.1949   19.0815 C   0  0  0  0  0  0  0  0  0  0  0  0
    6.6632  -10.4203   20.0205 C   0  0  0  0  0  0  0  0  0  0  0  0
    6.6989   -8.1880   19.8245 C   0  0  0  0  0  0  0  0  0  0  0  0
    6.9269   -6.9241   20.6852 C   0  0  0  0  0  0  0  0  0  0  0  0
    6.4278   -5.7680   20.0995 C   0  0  0  0  0  0  0  0  0  0  0  0
    6.0537   -6.0093   18.8667 N   0  0  0  0  0  0  0  0  0  0  0  0
    5.8745   -7.3206   18.8597 N   0  0  0  0  0  0  0  0  0  0  0  0
    5.2788  -11.5587   20.8514 C   0  0  0  0  0  0  0  0  0  0  0  0
   -0.1452  -16.4757   20.2237 C   0  0  0  0  0  0  0  0  0  0  0  0
   -0.9969  -17.4830   20.7269 C   0  0  0  0  0  0  0  0  0  0  0  0
   -2.1013  -17.8912   19.8005 N   0  0  0  0  0  0  0  0  0  0  0  0
   -2.8790  -19.0937   19.4925 C   0  0  0  0  0  0  0  0  0  0  0  0
   -3.8410  -19.1451   18.5688 C   0  0  0  0  0  0  0  0  0  0  0  0
   -3.9978  -17.9933   17.7512 C   0  0  0  0  0  0  0  0  0  0  0  0
   -3.2127  -16.9223   17.9450 C   0  0  0  0  0  0  0  0  0  0  0  0
   -2.2857  -16.7949   19.0554 C   0  0  0  0  0  0  0  0  0  0  0  0
   -1.4456  -15.8588   19.5036 N   0  0  0  0  0  0  0  0  0  0  0  0
    2.7249  -14.7436   19.1457 H   0  0  0  0  0  0  0  0  0  0  0  0
    4.0313  -13.5788   18.6799 H   0  0  0  0  0  0  0  0  0  0  0  0
    6.3026  -13.0510   20.1924 H   0  0  0  0  0  0  0  0  0  0  0  0
    6.6849  -10.8128   18.1980 H   0  0  0  0  0  0  0  0  0  0  0  0
    7.2839   -6.8485   21.7041 H   0  0  0  0  0  0  0  0  0  0  0  0
    6.3699   -4.7740   20.5164 H   0  0  0  0  0  0  0  0  0  0  0  0
    5.2852   -7.7420   18.1554 H   0  0  0  0  0  0  0  0  0  0  0  0
    5.0841  -11.0776   21.8493 H   0  0  0  0  0  0  0  0  0  0  0  0
   -0.8012  -18.1436   21.5376 H   0  0  0  0  0  0  0  0  0  0  0  0
   -2.6848  -20.0342   19.9883 H   0  0  0  0  0  0  0  0  0  0  0  0
   -4.3953  -20.0506   18.3517 H   0  0  0  0  0  0  0  0  0  0  0  0
   -4.6630  -18.0482   16.8955 H   0  0  0  0  0  0  0  0  0  0  0  0
   -3.2423  -16.1481   17.1846 H   0  0  0  0  0  0  0  0  0  0  0  0
  1  2  2  0
  2  3  1  0
  3  4  1  0
  4  5  2  0
  5  6  1  0
  6  7  2  0
  7  8  1  0
  8  9  1  0
  9 10  2  0
 10 11  1  0
 11 12  2  0
 12 13  1  0
  8 14  2  0
  2 15  1  0
 15 16  2  0
 16 17  1  0
 17 18  1  0
 18 19  2  0
 19 20  1  0
 20 21  2  0
 21 22  1  0
 22 23  2  0
 14  4  1  0
 23 15  1  0
 13  9  1  0
 22 17  1  0
  3 24  1  0
  5 25  1  0
  6 26  1  0
  7 27  1  0
 10 28  1  0
 11 29  1  0
 13 30  1  0
 14 31  1  0
 16 32  1  0
 18 33  1  0
 19 34  1  0
 20 35  1  0
 21 36  1  0
M  END
>  <Energy>  (1341) 
1176.2456696461304

>  <compound_id>  (1341) 
36014

>  <target_id>  (1341) 
1

>  <reference_id>  (1341) 
122

>  <inspiration_ids>  (1341) 
[45, 122]

>  <energy_score>  (1341) 
1077.6627185433701

>  <distance_score>  (1341) 
11.78328669853241

>  <path>  (1341) 
/opt/xchem-fragalysis-2/maxwin/BulkDock/SCRATCH/511013/C36014-P122/C36014-P122.minimised.mol

>  <scratch_subdir>  (1341) 
/opt/xchem-fragalysis-2/maxwin/BulkDock/SCRATCH/511013/C36014-P122

>  <fragmenstein_runtime>  (1341) 
26.571850776672363

>  <fragmenstein_outcome>  (1341) 
too moved

>  <fragmenstein_mode>  (1341) 
expansion

>  <fragmenstein_error>  (1341) 


$$$$
C36027-P45
     RDKit          3D

 42 44  0  0  0  0  0  0  0  0999 V2000
   -1.0978  -17.9641   20.0639 C   0  0  0  0  0  0  0  0  0  0  0  0
    0.0871  -18.2250   21.3473 C   0  0  0  0  0  0  0  0  0  0  0  0
    0.6114  -16.3591   20.9717 C   0  0  0  0  0  0  0  0  0  0  0  0
    2.1216  -15.1538   20.6551 N   0  0  0  0  0  0  0  0  0  0  0  0
    3.2256  -14.3062   21.7954 C   0  0  0  0  0  0  0  0  0  0  0  0
    3.2182  -14.4574   23.0232 O   0  0  0  0  0  0  0  0  0  0  0  0
    4.3369  -12.9975   20.7489 C   0  0  0  0  0  0  0  0  0  0  0  0
    5.8548  -11.8516   20.6263 C   0  0  0  0  0  0  0  0  0  0  0  0
    6.9144  -11.2776   21.3986 C   0  0  0  0  0  0  0  0  0  0  0  0
    7.6185  -10.3255   20.6320 C   0  0  0  0  0  0  0  0  0  0  0  0
    7.0683  -10.1939   19.4418 N   0  0  0  0  0  0  0  0  0  0  0  0
    6.1068  -11.1546   19.4416 N   0  0  0  0  0  0  0  0  0  0  0  0
   -1.3363  -18.7250   22.1211 N   0  0  0  0  0  0  0  0  0  0  0  0
   -1.8151  -20.2897   23.2132 C   0  0  0  0  0  0  0  0  0  0  0  0
   -0.9826  -21.1486   23.4123 O   0  0  0  0  0  0  0  0  0  0  0  0
   -3.5716  -20.7286   24.3271 C   0  0  0  0  0  0  0  0  0  0  0  0
   -4.5389  -20.1949   25.3452 C   0  0  0  0  0  0  0  0  0  0  0  0
   -5.2986  -20.4737   26.5095 C   0  0  0  0  0  0  0  0  0  0  0  0
   -5.5923  -21.8598   27.1962 C   0  0  0  0  0  0  0  0  0  0  0  0
   -6.2238  -22.4456   28.1806 N   0  0  0  0  0  0  0  0  0  0  0  0
   -6.5565  -23.6905   27.7409 C   0  0  0  0  0  0  0  0  0  0  0  0
   -6.1863  -23.8248   26.4314 C   0  0  0  0  0  0  0  0  0  0  0  0
   -5.6933  -22.5942   26.1125 N   0  0  0  0  0  0  0  0  0  0  0  0
   -4.9544  -21.7473   24.7243 C   0  0  0  0  0  0  0  0  0  0  0  0
   -0.6925  -18.0892   19.0786 H   0  0  0  0  0  0  0  0  0  0  0  0
   -1.6064  -16.9967   20.1440 H   0  0  0  0  0  0  0  0  0  0  0  0
   -1.9241  -18.6896   20.0166 H   0  0  0  0  0  0  0  0  0  0  0  0
    0.9553  -18.8281   21.2643 H   0  0  0  0  0  0  0  0  0  0  0  0
    0.0487  -15.8677   21.7445 H   0  0  0  0  0  0  0  0  0  0  0  0
    0.2261  -16.2673   19.9911 H   0  0  0  0  0  0  0  0  0  0  0  0
    2.3908  -14.9193   19.6990 H   0  0  0  0  0  0  0  0  0  0  0  0
    4.0919  -12.3086   21.5667 H   0  0  0  0  0  0  0  0  0  0  0  0
    5.2201  -13.6130   20.6308 H   0  0  0  0  0  0  0  0  0  0  0  0
    7.1824  -11.4222   22.4361 H   0  0  0  0  0  0  0  0  0  0  0  0
    8.4591   -9.7056   20.9140 H   0  0  0  0  0  0  0  0  0  0  0  0
    5.4919  -11.1814   18.6323 H   0  0  0  0  0  0  0  0  0  0  0  0
   -2.1001  -18.1912   21.9829 H   0  0  0  0  0  0  0  0  0  0  0  0
   -5.0961  -19.4237   24.8584 H   0  0  0  0  0  0  0  0  0  0  0  0
   -5.9791  -19.6968   26.7569 H   0  0  0  0  0  0  0  0  0  0  0  0
   -7.0330  -24.4156   28.3822 H   0  0  0  0  0  0  0  0  0  0  0  0
   -6.1692  -24.6827   25.8079 H   0  0  0  0  0  0  0  0  0  0  0  0
   -5.3154  -22.7290   24.1677 H   0  0  0  0  0  0  0  0  0  0  0  0
  1  2  1  0
  2  3  1  0
  3  4  1  0
  4  5  1  0
  5  6  2  0
  5  7  1  0
  7  8  1  0
  8  9  2  0
  9 10  1  0
 10 11  2  0
 11 12  1  0
  2 13  1  0
 13 14  1  0
 14 15  2  0
 14 16  1  0
 16 17  1  0
 17 18  2  0
 18 19  1  0
 19 20  2  0
 20 21  1  0
 21 22  2  0
 22 23  1  0
 23 24  1  0
 12  8  1  0
 24 16  2  0
 23 19  1  0
  1 25  1  0
  1 26  1  0
  1 27  1  0
  2 28  1  0
  3 29  1  0
  3 30  1  0
  4 31  1  0
  7 32  1  0
  7 33  1  0
  9 34  1  0
 10 35  1  0
 12 36  1  0
 13 37  1  0
 17 38  1  0
 18 39  1  0
 21 40  1  0
 22 41  1  0
 24 42  1  0
M  END
>  <Energy>  (1342) 
1084.1042331880356

>  <compound_id>  (1342) 
36027

>  <target_id>  (1342) 
1

>  <reference_id>  (1342) 
45

>  <inspiration_ids>  (1342) 
[45, 122]

>  <energy_score>  (1342) 
1014.9433755865556

>  <distance_score>  (1342) 
8.933050301961849

>  <path>  (1342) 
/opt/xchem-fragalysis-2/maxwin/BulkDock/SCRATCH/511013/C36027-P45/C36027-P45.minimised.mol

>  <scratch_subdir>  (1342) 
/opt/xchem-fragalysis-2/maxwin/BulkDock/SCRATCH/511013/C36027-P45

>  <fragmenstein_runtime>  (1342) 
19.9059841632843

>  <fragmenstein_outcome>  (1342) 
too moved

>  <fragmenstein_mode>  (1342) 
expansion

>  <fragmenstein_error>  (1342) 


$$$$
C36027-P122
     RDKit          3D

 42 44  0  0  0  0  0  0  0  0999 V2000
    0.3284  -19.8929   23.5371 C   0  0  0  0  0  0  0  0  0  0  0  0
    1.3118  -20.2802   22.0886 C   0  0  0  0  0  0  0  0  0  0  0  0
    0.7089  -18.2277   21.1209 C   0  0  0  0  0  0  0  0  0  0  0  0
    1.2313  -16.1520   20.5400 N   0  0  0  0  0  0  0  0  0  0  0  0
    2.2683  -15.3312   18.9093 C   0  0  0  0  0  0  0  0  0  0  0  0
    2.5222  -16.1600   18.0891 O   0  0  0  0  0  0  0  0  0  0  0  0
    3.1717  -13.6577   18.3818 C   0  0  0  0  0  0  0  0  0  0  0  0
    3.8498  -12.0141   17.4215 C   0  0  0  0  0  0  0  0  0  0  0  0
    5.1193  -11.0797   17.4372 C   0  0  0  0  0  0  0  0  0  0  0  0
    5.1543  -10.1608   16.3898 C   0  0  0  0  0  0  0  0  0  0  0  0
    4.3282  -10.5813   15.4691 N   0  0  0  0  0  0  0  0  0  0  0  0
    3.6320  -11.5514   16.0923 N   0  0  0  0  0  0  0  0  0  0  0  0
    0.4807  -22.3810   22.4165 N   0  0  0  0  0  0  0  0  0  0  0  0
    1.3003  -24.2745   22.6589 C   0  0  0  0  0  0  0  0  0  0  0  0
    2.5404  -24.5899   22.7657 O   0  0  0  0  0  0  0  0  0  0  0  0
    0.2888  -25.9683   22.5958 C   0  0  0  0  0  0  0  0  0  0  0  0
   -0.7987  -26.4903   21.6473 C   0  0  0  0  0  0  0  0  0  0  0  0
   -0.9918  -27.7797   21.3307 C   0  0  0  0  0  0  0  0  0  0  0  0
   -0.0671  -28.7338   21.7741 C   0  0  0  0  0  0  0  0  0  0  0  0
   -0.0138  -30.0353   21.6057 N   0  0  0  0  0  0  0  0  0  0  0  0
    1.1747  -30.4133   22.1738 C   0  0  0  0  0  0  0  0  0  0  0  0
    1.8340  -29.3344   22.7152 C   0  0  0  0  0  0  0  0  0  0  0  0
    1.0245  -28.2554   22.4743 N   0  0  0  0  0  0  0  0  0  0  0  0
    1.2229  -26.9282   22.8128 C   0  0  0  0  0  0  0  0  0  0  0  0
   -0.0760  -20.9099   23.6175 H   0  0  0  0  0  0  0  0  0  0  0  0
    0.8161  -19.3101   24.3469 H   0  0  0  0  0  0  0  0  0  0  0  0
   -0.7160  -19.4925   23.3622 H   0  0  0  0  0  0  0  0  0  0  0  0
    2.3666  -20.1181   22.2582 H   0  0  0  0  0  0  0  0  0  0  0  0
   -0.0319  -17.9727   21.8747 H   0  0  0  0  0  0  0  0  0  0  0  0
   -0.2308  -17.9863   20.5668 H   0  0  0  0  0  0  0  0  0  0  0  0
    0.9750  -15.4194   21.1453 H   0  0  0  0  0  0  0  0  0  0  0  0
    3.9065  -13.5050   19.1766 H   0  0  0  0  0  0  0  0  0  0  0  0
    2.1277  -13.6181   18.0935 H   0  0  0  0  0  0  0  0  0  0  0  0
    5.8295  -11.0895   18.2542 H   0  0  0  0  0  0  0  0  0  0  0  0
    5.7946   -9.3264   16.1778 H   0  0  0  0  0  0  0  0  0  0  0  0
    3.0495  -12.1168   15.5049 H   0  0  0  0  0  0  0  0  0  0  0  0
   -0.5069  -22.4163   22.4447 H   0  0  0  0  0  0  0  0  0  0  0  0
   -1.4625  -25.8381   21.1050 H   0  0  0  0  0  0  0  0  0  0  0  0
   -1.7651  -28.0861   20.6386 H   0  0  0  0  0  0  0  0  0  0  0  0
    1.4955  -31.4472   22.1639 H   0  0  0  0  0  0  0  0  0  0  0  0
    2.7778  -29.2428   23.2325 H   0  0  0  0  0  0  0  0  0  0  0  0
    2.2019  -26.7135   23.2242 H   0  0  0  0  0  0  0  0  0  0  0  0
  1  2  1  0
  2  3  1  0
  3  4  1  0
  4  5  1  0
  5  6  2  0
  5  7  1  0
  7  8  1  0
  8  9  2  0
  9 10  1  0
 10 11  2  0
 11 12  1  0
  2 13  1  0
 13 14  1  0
 14 15  2  0
 14 16  1  0
 16 17  1  0
 17 18  2  0
 18 19  1  0
 19 20  2  0
 20 21  1  0
 21 22  2  0
 22 23  1  0
 23 24  1  0
 12  8  1  0
 24 16  2  0
 23 19  1  0
  1 25  1  0
  1 26  1  0
  1 27  1  0
  2 28  1  0
  3 29  1  0
  3 30  1  0
  4 31  1  0
  7 32  1  0
  7 33  1  0
  9 34  1  0
 10 35  1  0
 12 36  1  0
 13 37  1  0
 17 38  1  0
 18 39  1  0
 21 40  1  0
 22 41  1  0
 24 42  1  0
M  END
>  <Energy>  (1343) 
1584.2579730288837

>  <compound_id>  (1343) 
36027

>  <target_id>  (1343) 
1

>  <reference_id>  (1343) 
122

>  <inspiration_ids>  (1343) 
[45, 122]

>  <energy_score>  (1343) 
1515.0971154274275

>  <distance_score>  (1343) 
10.74228447566408

>  <path>  (1343) 
/opt/xchem-fragalysis-2/maxwin/BulkDock/SCRATCH/511013/C36027-P122/C36027-P122.minimised.mol

>  <scratch_subdir>  (1343) 
/opt/xchem-fragalysis-2/maxwin/BulkDock/SCRATCH/511013/C36027-P122

>  <fragmenstein_runtime>  (1343) 
23.56846332550049

>  <fragmenstein_outcome>  (1343) 
too moved

>  <fragmenstein_mode>  (1343) 
expansion

>  <fragmenstein_error>  (1343) 


$$$$
C36003-P45
     RDKit          3D

 35 37  0  0  0  0  0  0  0  0999 V2000
   -0.0939  -16.1382   21.9776 O   0  0  0  0  0  0  0  0  0  0  0  0
   -0.1337  -16.9115   21.0956 C   0  0  0  0  0  0  0  0  0  0  0  0
    0.7908  -16.1956   19.6198 C   0  0  0  0  0  0  0  0  0  0  0  0
    2.3846  -15.0420   18.7652 C   0  0  0  0  0  0  0  0  0  0  0  0
    3.8966  -13.7970   18.8753 C   0  0  0  0  0  0  0  0  0  0  0  0
    4.5306  -13.1060   20.0740 C   0  0  0  0  0  0  0  0  0  0  0  0
    5.7538  -12.5096   19.8605 C   0  0  0  0  0  0  0  0  0  0  0  0
    5.6446  -12.0009   18.6623 N   0  0  0  0  0  0  0  0  0  0  0  0
    4.2486  -12.5970   18.2219 N   0  0  0  0  0  0  0  0  0  0  0  0
   -0.8254  -18.5483   21.2647 N   0  0  0  0  0  0  0  0  0  0  0  0
   -1.5211  -19.5506   22.8707 C   0  0  0  0  0  0  0  0  0  0  0  0
   -3.1947  -20.3607   23.6602 C   0  0  0  0  0  0  0  0  0  0  0  0
   -3.5385  -21.1444   24.5808 N   0  0  0  0  0  0  0  0  0  0  0  0
   -4.8682  -21.5164   24.8009 C   0  0  0  0  0  0  0  0  0  0  0  0
   -5.5694  -23.1657   24.7076 C   0  0  0  0  0  0  0  0  0  0  0  0
   -6.0036  -23.7755   25.8393 C   0  0  0  0  0  0  0  0  0  0  0  0
   -5.8656  -23.0566   27.0355 C   0  0  0  0  0  0  0  0  0  0  0  0
   -5.4280  -21.7850   26.9801 C   0  0  0  0  0  0  0  0  0  0  0  0
   -4.9480  -20.6346   25.7795 N   0  0  0  0  0  0  0  0  0  0  0  0
   -4.5969  -19.8716   24.2649 C   0  0  0  0  0  0  0  0  0  0  0  0
   -6.2605  -18.8870   22.8789 Br  0  0  0  0  0  0  0  0  0  0  0  0
    1.2955  -15.8439   20.5234 H   0  0  0  0  0  0  0  0  0  0  0  0
    0.9244  -17.2129   19.1933 H   0  0  0  0  0  0  0  0  0  0  0  0
    2.4415  -14.6456   19.7893 H   0  0  0  0  0  0  0  0  0  0  0  0
    1.8711  -14.4552   17.9875 H   0  0  0  0  0  0  0  0  0  0  0  0
    4.0448  -13.1891   21.0254 H   0  0  0  0  0  0  0  0  0  0  0  0
    6.5510  -12.1880   20.5081 H   0  0  0  0  0  0  0  0  0  0  0  0
    3.8061  -12.1516   17.4262 H   0  0  0  0  0  0  0  0  0  0  0  0
   -0.8291  -18.9984   20.3626 H   0  0  0  0  0  0  0  0  0  0  0  0
   -1.2787  -20.6352   22.8870 H   0  0  0  0  0  0  0  0  0  0  0  0
   -0.6276  -19.4654   23.4349 H   0  0  0  0  0  0  0  0  0  0  0  0
   -5.6544  -23.5196   23.6848 H   0  0  0  0  0  0  0  0  0  0  0  0
   -6.4462  -24.7535   25.9471 H   0  0  0  0  0  0  0  0  0  0  0  0
   -6.2422  -23.4861   27.9583 H   0  0  0  0  0  0  0  0  0  0  0  0
   -5.7429  -21.3321   27.8509 H   0  0  0  0  0  0  0  0  0  0  0  0
  1  2  2  0
  2  3  1  0
  3  4  1  0
  4  5  1  0
  5  6  2  0
  6  7  1  0
  7  8  2  0
  8  9  1  0
  2 10  1  0
 10 11  1  0
 11 12  1  0
 12 13  1  0
 13 14  2  0
 14 15  1  0
 15 16  2  0
 16 17  1  0
 17 18  2  0
 18 19  1  0
 19 20  1  0
 20 21  1  0
  9  5  1  0
 20 12  2  0
 19 14  1  0
  3 22  1  0
  3 23  1  0
  4 24  1  0
  4 25  1  0
  6 26  1  0
  7 27  1  0
  9 28  1  0
 10 29  1  0
 11 30  1  0
 11 31  1  0
 15 32  1  0
 16 33  1  0
 17 34  1  0
 18 35  1  0
M  END
>  <Energy>  (1344) 
1087.8948719459127

>  <compound_id>  (1344) 
36003

>  <target_id>  (1344) 
1

>  <reference_id>  (1344) 
45

>  <inspiration_ids>  (1344) 
[45, 122]

>  <energy_score>  (1344) 
1047.803656784427

>  <distance_score>  (1344) 
9.762624934289992

>  <path>  (1344) 
/opt/xchem-fragalysis-2/maxwin/BulkDock/SCRATCH/511013/C36003-P45/C36003-P45.minimised.mol

>  <scratch_subdir>  (1344) 
/opt/xchem-fragalysis-2/maxwin/BulkDock/SCRATCH/511013/C36003-P45

>  <fragmenstein_runtime>  (1344) 
20.679595470428467

>  <fragmenstein_outcome>  (1344) 
too moved

>  <fragmenstein_mode>  (1344) 
expansion

>  <fragmenstein_error>  (1344) 


$$$$
C36003-P122
     RDKit          3D

 35 37  0  0  0  0  0  0  0  0999 V2000
   -2.8439  -13.6652   15.9691 O   0  0  0  0  0  0  0  0  0  0  0  0
   -3.0787  -14.4132   15.0605 C   0  0  0  0  0  0  0  0  0  0  0  0
   -2.8255  -13.8418   13.5702 C   0  0  0  0  0  0  0  0  0  0  0  0
   -2.4385  -12.3008   13.3089 C   0  0  0  0  0  0  0  0  0  0  0  0
   -1.0276  -11.7345   12.9925 C   0  0  0  0  0  0  0  0  0  0  0  0
   -0.6353  -10.4076   12.8095 C   0  0  0  0  0  0  0  0  0  0  0  0
    0.7636  -10.4204   12.6384 C   0  0  0  0  0  0  0  0  0  0  0  0
    1.2509  -11.6578   12.6892 N   0  0  0  0  0  0  0  0  0  0  0  0
    0.1605  -12.4310   12.9171 N   0  0  0  0  0  0  0  0  0  0  0  0
   -3.4768  -15.8422   15.0662 N   0  0  0  0  0  0  0  0  0  0  0  0
   -3.6057  -16.8166   16.1930 C   0  0  0  0  0  0  0  0  0  0  0  0
   -4.6550  -17.6164   16.9664 C   0  0  0  0  0  0  0  0  0  0  0  0
   -4.1176  -18.7274   17.6622 N   0  0  0  0  0  0  0  0  0  0  0  0
   -5.0699  -19.2681   18.3874 C   0  0  0  0  0  0  0  0  0  0  0  0
   -5.0642  -20.3987   19.2609 C   0  0  0  0  0  0  0  0  0  0  0  0
   -6.1791  -20.7449   19.9334 C   0  0  0  0  0  0  0  0  0  0  0  0
   -7.4034  -19.9786   19.7780 C   0  0  0  0  0  0  0  0  0  0  0  0
   -7.4173  -18.9230   18.9384 C   0  0  0  0  0  0  0  0  0  0  0  0
   -6.2558  -18.5657   18.2337 N   0  0  0  0  0  0  0  0  0  0  0  0
   -5.9927  -17.5452   17.3115 C   0  0  0  0  0  0  0  0  0  0  0  0
   -7.2262  -16.2597   16.6452 Br  0  0  0  0  0  0  0  0  0  0  0  0
   -3.7699  -14.0262   13.0411 H   0  0  0  0  0  0  0  0  0  0  0  0
   -2.0557  -14.4748   13.1142 H   0  0  0  0  0  0  0  0  0  0  0  0
   -3.0112  -12.0354   12.4062 H   0  0  0  0  0  0  0  0  0  0  0  0
   -2.8890  -11.6958   14.1035 H   0  0  0  0  0  0  0  0  0  0  0  0
   -1.2853   -9.5437   12.8165 H   0  0  0  0  0  0  0  0  0  0  0  0
    1.4376   -9.5893   12.4766 H   0  0  0  0  0  0  0  0  0  0  0  0
    0.3106  -13.4094   13.1437 H   0  0  0  0  0  0  0  0  0  0  0  0
   -3.5115  -16.1810   14.1137 H   0  0  0  0  0  0  0  0  0  0  0  0
   -3.0400  -17.6459   15.7445 H   0  0  0  0  0  0  0  0  0  0  0  0
   -2.9684  -16.4017   16.9724 H   0  0  0  0  0  0  0  0  0  0  0  0
   -4.1367  -20.9502   19.3501 H   0  0  0  0  0  0  0  0  0  0  0  0
   -6.1905  -21.6036   20.5973 H   0  0  0  0  0  0  0  0  0  0  0  0
   -8.2855  -20.2806   20.3329 H   0  0  0  0  0  0  0  0  0  0  0  0
   -8.3008  -18.3202   18.7718 H   0  0  0  0  0  0  0  0  0  0  0  0
  1  2  2  0
  2  3  1  0
  3  4  1  0
  4  5  1  0
  5  6  2  0
  6  7  1  0
  7  8  2  0
  8  9  1  0
  2 10  1  0
 10 11  1  0
 11 12  1  0
 12 13  1  0
 13 14  2  0
 14 15  1  0
 15 16  2  0
 16 17  1  0
 17 18  2  0
 18 19  1  0
 19 20  1  0
 20 21  1  0
  9  5  1  0
 20 12  2  0
 19 14  1  0
  3 22  1  0
  3 23  1  0
  4 24  1  0
  4 25  1  0
  6 26  1  0
  7 27  1  0
  9 28  1  0
 10 29  1  0
 11 30  1  0
 11 31  1  0
 15 32  1  0
 16 33  1  0
 17 34  1  0
 18 35  1  0
M  END
>  <Energy>  (1345) 
80.049636175657668

>  <compound_id>  (1345) 
36003

>  <target_id>  (1345) 
1

>  <reference_id>  (1345) 
122

>  <inspiration_ids>  (1345) 
[45, 122]

>  <energy_score>  (1345) 
39.95842101417986

>  <distance_score>  (1345) 
13.384433363479777

>  <path>  (1345) 
/opt/xchem-fragalysis-2/maxwin/BulkDock/SCRATCH/511013/C36003-P122/C36003-P122.minimised.mol

>  <scratch_subdir>  (1345) 
/opt/xchem-fragalysis-2/maxwin/BulkDock/SCRATCH/511013/C36003-P122

>  <fragmenstein_runtime>  (1345) 
20.738592386245728

>  <fragmenstein_outcome>  (1345) 
too moved

>  <fragmenstein_mode>  (1345) 
expansion

>  <fragmenstein_error>  (1345) 


$$$$
C36023-P45
     RDKit          3D

 35 37  0  0  0  0  0  0  0  0999 V2000
   -4.2594  -26.5565   26.5929 C   0  0  0  0  0  0  0  0  0  0  0  0
   -3.5469  -26.7072   25.3354 O   0  0  0  0  0  0  0  0  0  0  0  0
   -2.4084  -26.0245   25.1118 C   0  0  0  0  0  0  0  0  0  0  0  0
   -1.9306  -25.4896   26.0873 O   0  0  0  0  0  0  0  0  0  0  0  0
   -1.6938  -25.7614   23.5786 C   0  0  0  0  0  0  0  0  0  0  0  0
    0.1952  -24.9650   23.8854 C   0  0  0  0  0  0  0  0  0  0  0  0
    0.5694  -23.2564   23.6816 C   0  0  0  0  0  0  0  0  0  0  0  0
   -0.4155  -21.6922   23.3732 N   0  0  0  0  0  0  0  0  0  0  0  0
   -0.8076  -19.7740   23.0276 C   0  0  0  0  0  0  0  0  0  0  0  0
   -0.4011  -18.6751   21.4415 N   0  0  0  0  0  0  0  0  0  0  0  0
   -0.0252  -16.9980   21.2439 C   0  0  0  0  0  0  0  0  0  0  0  0
   -0.0319  -16.1313   22.0405 O   0  0  0  0  0  0  0  0  0  0  0  0
    0.6457  -16.3553   19.6789 C   0  0  0  0  0  0  0  0  0  0  0  0
    2.0878  -15.3163   18.5885 C   0  0  0  0  0  0  0  0  0  0  0  0
    2.8064  -15.4276   17.3615 C   0  0  0  0  0  0  0  0  0  0  0  0
    4.2566  -14.9460   17.5958 C   0  0  0  0  0  0  0  0  0  0  0  0
    4.0840  -13.9815   18.4700 N   0  0  0  0  0  0  0  0  0  0  0  0
    2.9585  -14.4591   19.1120 N   0  0  0  0  0  0  0  0  0  0  0  0
   -1.9533  -20.3922   23.4251 C   0  0  0  0  0  0  0  0  0  0  0  0
   -2.2788  -21.1484   22.5065 N   0  0  0  0  0  0  0  0  0  0  0  0
   -1.7044  -22.4411   22.9765 C   0  0  0  0  0  0  0  0  0  0  0  0
   -2.8323  -24.4404   22.9529 C   0  0  0  0  0  0  0  0  0  0  0  0
   -4.3468  -27.5380   27.0675 H   0  0  0  0  0  0  0  0  0  0  0  0
   -3.7939  -25.8438   27.2750 H   0  0  0  0  0  0  0  0  0  0  0  0
   -5.2728  -26.2015   26.3918 H   0  0  0  0  0  0  0  0  0  0  0  0
    0.9843  -25.6755   23.5952 H   0  0  0  0  0  0  0  0  0  0  0  0
    1.5999  -23.1097   23.3936 H   0  0  0  0  0  0  0  0  0  0  0  0
   -0.3850  -19.1234   20.5687 H   0  0  0  0  0  0  0  0  0  0  0  0
   -0.3258  -15.8036   19.5714 H   0  0  0  0  0  0  0  0  0  0  0  0
    1.2177  -15.8135   20.4606 H   0  0  0  0  0  0  0  0  0  0  0  0
    2.5624  -15.9602   16.4360 H   0  0  0  0  0  0  0  0  0  0  0  0
    5.1253  -15.0197   16.9506 H   0  0  0  0  0  0  0  0  0  0  0  0
    3.0049  -14.3022   20.1160 H   0  0  0  0  0  0  0  0  0  0  0  0
   -2.4215  -20.5188   24.3450 H   0  0  0  0  0  0  0  0  0  0  0  0
   -3.6632  -24.7524   22.2522 H   0  0  0  0  0  0  0  0  0  0  0  0
  1  2  1  0
  2  3  1  0
  3  4  2  0
  3  5  1  0
  5  6  1  0
  6  7  2  0
  7  8  1  0
  8  9  1  0
  9 10  1  0
 10 11  1  0
 11 12  2  0
 11 13  1  0
 13 14  1  0
 14 15  2  0
 15 16  1  0
 16 17  2  0
 17 18  1  0
  9 19  2  0
 19 20  1  0
 20 21  2  0
 21 22  1  0
 22  5  2  0
 21  8  1  0
 18 14  1  0
  1 23  1  0
  1 24  1  0
  1 25  1  0
  6 26  1  0
  7 27  1  0
 10 28  1  0
 13 29  1  0
 13 30  1  0
 15 31  1  0
 16 32  1  0
 18 33  1  0
 19 34  1  0
 22 35  1  0
M  END
>  <Energy>  (1346) 
1555.8104570834321

>  <compound_id>  (1346) 
36023

>  <target_id>  (1346) 
1

>  <reference_id>  (1346) 
45

>  <inspiration_ids>  (1346) 
[45, 122]

>  <energy_score>  (1346) 
1448.5818883304523

>  <distance_score>  (1346) 
11.545408082084224

>  <path>  (1346) 
/opt/xchem-fragalysis-2/maxwin/BulkDock/SCRATCH/511013/C36023-P45/C36023-P45.minimised.mol

>  <scratch_subdir>  (1346) 
/opt/xchem-fragalysis-2/maxwin/BulkDock/SCRATCH/511013/C36023-P45

>  <fragmenstein_runtime>  (1346) 
12.795021295547485

>  <fragmenstein_outcome>  (1346) 
too moved

>  <fragmenstein_mode>  (1346) 
expansion

>  <fragmenstein_error>  (1346) 


$$$$
C36023-P122
     RDKit          3D

 35 37  0  0  0  0  0  0  0  0999 V2000
   -7.5329  -30.2527   21.2225 C   0  0  0  0  0  0  0  0  0  0  0  0
   -7.1677  -28.8962   20.9646 O   0  0  0  0  0  0  0  0  0  0  0  0
   -6.3636  -28.2982   21.9963 C   0  0  0  0  0  0  0  0  0  0  0  0
   -5.9834  -29.0287   22.9430 O   0  0  0  0  0  0  0  0  0  0  0  0
   -5.8053  -26.3459   21.7210 C   0  0  0  0  0  0  0  0  0  0  0  0
   -5.7759  -25.0919   22.5612 C   0  0  0  0  0  0  0  0  0  0  0  0
   -5.9273  -23.8215   22.0435 C   0  0  0  0  0  0  0  0  0  0  0  0
   -5.9276  -23.5260   20.6627 N   0  0  0  0  0  0  0  0  0  0  0  0
   -5.9157  -22.3567   19.7698 C   0  0  0  0  0  0  0  0  0  0  0  0
   -5.0889  -21.1840   19.6835 N   0  0  0  0  0  0  0  0  0  0  0  0
   -5.0008  -20.1160   18.6179 C   0  0  0  0  0  0  0  0  0  0  0  0
   -5.6613  -19.9447   17.6249 O   0  0  0  0  0  0  0  0  0  0  0  0
   -3.7471  -19.1700   18.8578 C   0  0  0  0  0  0  0  0  0  0  0  0
   -3.6173  -17.6514   18.6071 C   0  0  0  0  0  0  0  0  0  0  0  0
   -3.9927  -16.8028   17.5765 C   0  0  0  0  0  0  0  0  0  0  0  0
   -3.4131  -15.5420   17.8555 C   0  0  0  0  0  0  0  0  0  0  0  0
   -2.7125  -15.5580   18.9859 N   0  0  0  0  0  0  0  0  0  0  0  0
   -2.7817  -16.8488   19.3801 N   0  0  0  0  0  0  0  0  0  0  0  0
   -6.5380  -22.8891   18.6514 C   0  0  0  0  0  0  0  0  0  0  0  0
   -6.4562  -24.2601   18.6459 N   0  0  0  0  0  0  0  0  0  0  0  0
   -5.9547  -24.6081   19.8105 C   0  0  0  0  0  0  0  0  0  0  0  0
   -5.7724  -25.9300   20.3368 C   0  0  0  0  0  0  0  0  0  0  0  0
   -6.6443  -30.8905   21.2418 H   0  0  0  0  0  0  0  0  0  0  0  0
   -8.1821  -30.5875   20.4089 H   0  0  0  0  0  0  0  0  0  0  0  0
   -8.0897  -30.3300   22.1614 H   0  0  0  0  0  0  0  0  0  0  0  0
   -5.6607  -25.1365   23.6254 H   0  0  0  0  0  0  0  0  0  0  0  0
   -6.0485  -22.9655   22.6845 H   0  0  0  0  0  0  0  0  0  0  0  0
   -4.4313  -20.9748   20.4179 H   0  0  0  0  0  0  0  0  0  0  0  0
   -3.2880  -19.4376   19.7926 H   0  0  0  0  0  0  0  0  0  0  0  0
   -3.0423  -19.5815   18.1185 H   0  0  0  0  0  0  0  0  0  0  0  0
   -4.5955  -17.0719   16.7193 H   0  0  0  0  0  0  0  0  0  0  0  0
   -3.4835  -14.6259   17.2838 H   0  0  0  0  0  0  0  0  0  0  0  0
   -2.2304  -17.1163   20.1922 H   0  0  0  0  0  0  0  0  0  0  0  0
   -6.8110  -22.3649   17.7424 H   0  0  0  0  0  0  0  0  0  0  0  0
   -5.9237  -26.6821   19.5522 H   0  0  0  0  0  0  0  0  0  0  0  0
  1  2  1  0
  2  3  1  0
  3  4  2  0
  3  5  1  0
  5  6  1  0
  6  7  2  0
  7  8  1  0
  8  9  1  0
  9 10  1  0
 10 11  1  0
 11 12  2  0
 11 13  1  0
 13 14  1  0
 14 15  2  0
 15 16  1  0
 16 17  2  0
 17 18  1  0
  9 19  2  0
 19 20  1  0
 20 21  2  0
 21 22  1  0
 22  5  2  0
 21  8  1  0
 18 14  1  0
  1 23  1  0
  1 24  1  0
  1 25  1  0
  6 26  1  0
  7 27  1  0
 10 28  1  0
 13 29  1  0
 13 30  1  0
 15 31  1  0
 16 32  1  0
 18 33  1  0
 19 34  1  0
 22 35  1  0
M  END
>  <Energy>  (1347) 
246.6404749377501

>  <compound_id>  (1347) 
36023

>  <target_id>  (1347) 
1

>  <reference_id>  (1347) 
122

>  <inspiration_ids>  (1347) 
[45, 122]

>  <energy_score>  (1347) 
139.41190618476605

>  <distance_score>  (1347) 
14.208428022309624

>  <path>  (1347) 
/opt/xchem-fragalysis-2/maxwin/BulkDock/SCRATCH/511013/C36023-P122/C36023-P122.minimised.mol

>  <scratch_subdir>  (1347) 
/opt/xchem-fragalysis-2/maxwin/BulkDock/SCRATCH/511013/C36023-P122

>  <fragmenstein_runtime>  (1347) 
26.578123807907104

>  <fragmenstein_outcome>  (1347) 
too moved

>  <fragmenstein_mode>  (1347) 
expansion

>  <fragmenstein_error>  (1347) 


$$$$
C36028-P45
     RDKit          3D

 41 44  0  0  0  0  0  0  0  0999 V2000
   -0.7341  -16.1643   21.0312 O   0  0  0  0  0  0  0  0  0  0  0  0
   -0.4301  -16.5797   20.0131 C   0  0  0  0  0  0  0  0  0  0  0  0
   -1.3331  -17.8398   19.1276 N   0  0  0  0  0  0  0  0  0  0  0  0
   -2.6293  -18.5028   19.4342 C   0  0  0  0  0  0  0  0  0  0  0  0
   -2.8419  -19.9115   19.4787 C   0  0  0  0  0  0  0  0  0  0  0  0
   -4.0930  -20.3855   19.7224 N   0  0  0  0  0  0  0  0  0  0  0  0
   -4.8086  -19.3199   19.5875 C   0  0  0  0  0  0  0  0  0  0  0  0
   -6.2166  -19.1993   19.7015 C   0  0  0  0  0  0  0  0  0  0  0  0
   -6.8119  -18.1719   19.0864 C   0  0  0  0  0  0  0  0  0  0  0  0
   -6.0118  -17.2373   18.3180 C   0  0  0  0  0  0  0  0  0  0  0  0
   -4.6637  -17.2727   18.3762 C   0  0  0  0  0  0  0  0  0  0  0  0
   -4.0134  -18.2312   19.1306 N   0  0  0  0  0  0  0  0  0  0  0  0
    1.0817  -16.0348   19.1545 N   0  0  0  0  0  0  0  0  0  0  0  0
    1.3992  -14.5993   17.8783 C   0  0  0  0  0  0  0  0  0  0  0  0
    2.7477  -15.2873   17.4530 C   0  0  0  0  0  0  0  0  0  0  0  0
    4.0614  -14.9520   18.0748 C   0  0  0  0  0  0  0  0  0  0  0  0
    3.7511  -13.8072   18.8326 C   0  0  0  0  0  0  0  0  0  0  0  0
    4.9924  -12.9385   19.3414 C   0  0  0  0  0  0  0  0  0  0  0  0
    5.7018  -11.8179   19.1131 C   0  0  0  0  0  0  0  0  0  0  0  0
    6.6663  -11.6128   19.9538 C   0  0  0  0  0  0  0  0  0  0  0  0
    6.6584  -12.5498   20.8304 N   0  0  0  0  0  0  0  0  0  0  0  0
    5.5460  -13.1692   20.5000 N   0  0  0  0  0  0  0  0  0  0  0  0
    2.4543  -14.8922   19.7166 C   0  0  0  0  0  0  0  0  0  0  0  0
   -0.8227  -18.1031   18.2963 H   0  0  0  0  0  0  0  0  0  0  0  0
   -2.1291  -20.6881   19.4872 H   0  0  0  0  0  0  0  0  0  0  0  0
   -6.7695  -19.9525   20.2486 H   0  0  0  0  0  0  0  0  0  0  0  0
   -7.8873  -18.0379   19.1201 H   0  0  0  0  0  0  0  0  0  0  0  0
   -6.5268  -16.5097   17.6993 H   0  0  0  0  0  0  0  0  0  0  0  0
   -4.0527  -16.6101   17.7921 H   0  0  0  0  0  0  0  0  0  0  0  0
    0.9105  -14.4144   16.9157 H   0  0  0  0  0  0  0  0  0  0  0  0
    1.4966  -13.6469   18.2817 H   0  0  0  0  0  0  0  0  0  0  0  0
    2.6112  -16.2561   17.8488 H   0  0  0  0  0  0  0  0  0  0  0  0
    2.7862  -15.6631   16.4525 H   0  0  0  0  0  0  0  0  0  0  0  0
    4.7851  -14.9513   17.3343 H   0  0  0  0  0  0  0  0  0  0  0  0
    4.5241  -15.7060   18.6755 H   0  0  0  0  0  0  0  0  0  0  0  0
    3.7251  -13.4968   19.8862 H   0  0  0  0  0  0  0  0  0  0  0  0
    5.8411  -10.9494   18.5688 H   0  0  0  0  0  0  0  0  0  0  0  0
    7.4231  -10.8749   19.6619 H   0  0  0  0  0  0  0  0  0  0  0  0
    5.1708  -13.9422   20.9978 H   0  0  0  0  0  0  0  0  0  0  0  0
    2.2069  -14.1787   20.3799 H   0  0  0  0  0  0  0  0  0  0  0  0
    2.4800  -15.2984   20.6765 H   0  0  0  0  0  0  0  0  0  0  0  0
  1  2  2  0
  2  3  1  0
  3  4  1  0
  4  5  2  0
  5  6  1  0
  6  7  2  0
  7  8  1  0
  8  9  2  0
  9 10  1  0
 10 11  2  0
 11 12  1  0
  2 13  1  0
 13 14  1  0
 14 15  1  0
 15 16  1  0
 16 17  1  0
 17 18  1  0
 18 19  2  0
 19 20  1  0
 20 21  2  0
 21 22  1  0
 17 23  1  0
 12  4  1  0
 23 13  1  0
 12  7  1  0
 22 18  1  0
  3 24  1  0
  5 25  1  0
  8 26  1  0
  9 27  1  0
 10 28  1  0
 11 29  1  0
 14 30  1  0
 14 31  1  0
 15 32  1  0
 15 33  1  0
 16 34  1  0
 16 35  1  0
 17 36  1  0
 19 37  1  0
 20 38  1  0
 22 39  1  0
 23 40  1  0
 23 41  1  0
M  END
>  <Energy>  (1348) 
672.41302709190541

>  <compound_id>  (1348) 
36028

>  <target_id>  (1348) 
1

>  <reference_id>  (1348) 
45

>  <inspiration_ids>  (1348) 
[45, 122]

>  <energy_score>  (1348) 
598.0661738646013

>  <distance_score>  (1348) 
12.335975177009397

>  <path>  (1348) 
/opt/xchem-fragalysis-2/maxwin/BulkDock/SCRATCH/511013/C36028-P45/C36028-P45.minimised.mol

>  <scratch_subdir>  (1348) 
/opt/xchem-fragalysis-2/maxwin/BulkDock/SCRATCH/511013/C36028-P45

>  <fragmenstein_runtime>  (1348) 
23.990995407104492

>  <fragmenstein_outcome>  (1348) 
too moved

>  <fragmenstein_mode>  (1348) 
expansion

>  <fragmenstein_error>  (1348) 


$$$$
C36028-P122
     RDKit          3D

 41 44  0  0  0  0  0  0  0  0999 V2000
    2.5095  -17.7086   27.4204 O   0  0  0  0  0  0  0  0  0  0  0  0
    1.7145  -18.0655   26.5439 C   0  0  0  0  0  0  0  0  0  0  0  0
    0.1085  -19.6060   26.6170 N   0  0  0  0  0  0  0  0  0  0  0  0
   -0.6508  -21.2218   27.9520 C   0  0  0  0  0  0  0  0  0  0  0  0
   -1.5815  -22.9340   27.6906 C   0  0  0  0  0  0  0  0  0  0  0  0
   -3.5111  -23.3478   27.3724 N   0  0  0  0  0  0  0  0  0  0  0  0
   -3.5495  -23.7868   28.5023 C   0  0  0  0  0  0  0  0  0  0  0  0
   -4.6376  -24.8397   28.9052 C   0  0  0  0  0  0  0  0  0  0  0  0
   -5.0399  -26.4318   28.2348 C   0  0  0  0  0  0  0  0  0  0  0  0
   -3.3414  -25.9999   27.4312 C   0  0  0  0  0  0  0  0  0  0  0  0
   -2.2925  -24.8844   27.2287 C   0  0  0  0  0  0  0  0  0  0  0  0
   -1.6132  -23.1834   28.1175 N   0  0  0  0  0  0  0  0  0  0  0  0
    2.1666  -17.0944   24.5386 N   0  0  0  0  0  0  0  0  0  0  0  0
    1.5841  -15.2389   23.5528 C   0  0  0  0  0  0  0  0  0  0  0  0
    3.0042  -14.5143   22.1456 C   0  0  0  0  0  0  0  0  0  0  0  0
    3.3878  -13.0550   21.8976 C   0  0  0  0  0  0  0  0  0  0  0  0
    3.6951  -13.0173   23.3433 C   0  0  0  0  0  0  0  0  0  0  0  0
    4.7298  -11.0438   22.5338 C   0  0  0  0  0  0  0  0  0  0  0  0
    6.1330  -10.6547   21.1299 C   0  0  0  0  0  0  0  0  0  0  0  0
    6.8992   -8.5262   20.4360 C   0  0  0  0  0  0  0  0  0  0  0  0
    5.5798   -7.6597   21.6048 N   0  0  0  0  0  0  0  0  0  0  0  0
    4.6328   -9.0071   22.8606 N   0  0  0  0  0  0  0  0  0  0  0  0
    3.6574  -15.3839   23.9229 C   0  0  0  0  0  0  0  0  0  0  0  0
   -0.3601  -19.5742   25.8592 H   0  0  0  0  0  0  0  0  0  0  0  0
   -1.5242  -23.6299   26.3757 H   0  0  0  0  0  0  0  0  0  0  0  0
   -5.5526  -24.3264   29.1315 H   0  0  0  0  0  0  0  0  0  0  0  0
   -5.5347  -27.3563   27.9570 H   0  0  0  0  0  0  0  0  0  0  0  0
   -3.0275  -27.0369   27.3167 H   0  0  0  0  0  0  0  0  0  0  0  0
   -1.8444  -25.2367   26.2470 H   0  0  0  0  0  0  0  0  0  0  0  0
    0.7326  -14.9992   22.4429 H   0  0  0  0  0  0  0  0  0  0  0  0
    0.9520  -14.3646   24.0557 H   0  0  0  0  0  0  0  0  0  0  0  0
    2.6132  -15.0347   21.1376 H   0  0  0  0  0  0  0  0  0  0  0  0
    2.7188  -14.2151   21.0396 H   0  0  0  0  0  0  0  0  0  0  0  0
    3.8894  -12.2961   21.3672 H   0  0  0  0  0  0  0  0  0  0  0  0
    4.1560  -13.3325   21.1092 H   0  0  0  0  0  0  0  0  0  0  0  0
    2.7996  -12.6213   23.8430 H   0  0  0  0  0  0  0  0  0  0  0  0
    6.2592  -11.4467   20.3546 H   0  0  0  0  0  0  0  0  0  0  0  0
    7.7757   -8.0913   19.9834 H   0  0  0  0  0  0  0  0  0  0  0  0
    3.7807   -8.4374   22.9757 H   0  0  0  0  0  0  0  0  0  0  0  0
    4.5488  -15.9306   23.6771 H   0  0  0  0  0  0  0  0  0  0  0  0
    4.0979  -15.0786   24.9284 H   0  0  0  0  0  0  0  0  0  0  0  0
  1  2  2  0
  2  3  1  0
  3  4  1  0
  4  5  2  0
  5  6  1  0
  6  7  2  0
  7  8  1  0
  8  9  2  0
  9 10  1  0
 10 11  2  0
 11 12  1  0
  2 13  1  0
 13 14  1  0
 14 15  1  0
 15 16  1  0
 16 17  1  0
 17 18  1  0
 18 19  2  0
 19 20  1  0
 20 21  2  0
 21 22  1  0
 17 23  1  0
 12  4  1  0
 23 13  1  0
 12  7  1  0
 22 18  1  0
  3 24  1  0
  5 25  1  0
  8 26  1  0
  9 27  1  0
 10 28  1  0
 11 29  1  0
 14 30  1  0
 14 31  1  0
 15 32  1  0
 15 33  1  0
 16 34  1  0
 16 35  1  0
 17 36  1  0
 19 37  1  0
 20 38  1  0
 22 39  1  0
 23 40  1  0
 23 41  1  0
M  END
>  <Energy>  (1349) 
5609.6457143530279

>  <compound_id>  (1349) 
36028

>  <target_id>  (1349) 
1

>  <reference_id>  (1349) 
122

>  <inspiration_ids>  (1349) 
[45, 122]

>  <energy_score>  (1349) 
5535.298861125741

>  <distance_score>  (1349) 
8.602962407862135

>  <path>  (1349) 
/opt/xchem-fragalysis-2/maxwin/BulkDock/SCRATCH/511013/C36028-P122/C36028-P122.minimised.mol

>  <scratch_subdir>  (1349) 
/opt/xchem-fragalysis-2/maxwin/BulkDock/SCRATCH/511013/C36028-P122

>  <fragmenstein_runtime>  (1349) 
25.11699628829956

>  <fragmenstein_outcome>  (1349) 
too moved

>  <fragmenstein_mode>  (1349) 
expansion

>  <fragmenstein_error>  (1349) 


$$$$
C36024-P45
     RDKit          3D

 30 33  0  0  0  0  0  0  0  0999 V2000
    3.6516  -22.4800   27.3987 C   0  0  0  0  0  0  0  0  0  0  0  0
    2.7530  -21.4260   27.9685 C   0  0  0  0  0  0  0  0  0  0  0  0
    1.4893  -21.8652   28.5565 C   0  0  0  0  0  0  0  0  0  0  0  0
    0.6205  -20.9809   29.0774 C   0  0  0  0  0  0  0  0  0  0  0  0
    0.9274  -19.5931   29.0598 C   0  0  0  0  0  0  0  0  0  0  0  0
    0.2136  -18.5796   29.4892 N   0  0  0  0  0  0  0  0  0  0  0  0
    1.0401  -17.4999   29.3465 C   0  0  0  0  0  0  0  0  0  0  0  0
    2.2693  -17.8151   28.7706 C   0  0  0  0  0  0  0  0  0  0  0  0
    3.3999  -16.6590   28.5289 C   0  0  0  0  0  0  0  0  0  0  0  0
    3.0860  -15.4270   28.9695 N   0  0  0  0  0  0  0  0  0  0  0  0
    4.1031  -14.6110   28.5235 O   0  0  0  0  0  0  0  0  0  0  0  0
    5.0298  -15.3864   27.8661 C   0  0  0  0  0  0  0  0  0  0  0  0
    6.2289  -14.7547   27.3317 C   0  0  0  0  0  0  0  0  0  0  0  0
    7.5355  -15.1630   27.1339 C   0  0  0  0  0  0  0  0  0  0  0  0
    8.2389  -14.0235   26.6621 C   0  0  0  0  0  0  0  0  0  0  0  0
    7.4232  -12.9817   26.4791 N   0  0  0  0  0  0  0  0  0  0  0  0
    6.2478  -13.4239   26.9753 N   0  0  0  0  0  0  0  0  0  0  0  0
    4.6533  -16.6763   27.8838 N   0  0  0  0  0  0  0  0  0  0  0  0
    2.1733  -19.1857   28.5393 N   0  0  0  0  0  0  0  0  0  0  0  0
    3.0581  -20.1079   27.9764 C   0  0  0  0  0  0  0  0  0  0  0  0
    3.9929  -23.1587   28.1875 H   0  0  0  0  0  0  0  0  0  0  0  0
    4.5380  -22.0434   26.9260 H   0  0  0  0  0  0  0  0  0  0  0  0
    3.1279  -23.0706   26.6399 H   0  0  0  0  0  0  0  0  0  0  0  0
    1.2471  -22.9253   28.5432 H   0  0  0  0  0  0  0  0  0  0  0  0
   -0.3293  -21.2899   29.5000 H   0  0  0  0  0  0  0  0  0  0  0  0
    0.7130  -16.5179   29.6677 H   0  0  0  0  0  0  0  0  0  0  0  0
    7.9379  -16.1473   27.3295 H   0  0  0  0  0  0  0  0  0  0  0  0
    9.2870  -13.9375   26.4026 H   0  0  0  0  0  0  0  0  0  0  0  0
    5.4582  -12.7869   26.9767 H   0  0  0  0  0  0  0  0  0  0  0  0
    3.9809  -19.7079   27.5737 H   0  0  0  0  0  0  0  0  0  0  0  0
  1  2  1  0
  2  3  1  0
  3  4  2  0
  4  5  1  0
  5  6  2  0
  6  7  1  0
  7  8  2  0
  8  9  1  0
  9 10  2  0
 10 11  1  0
 11 12  1  0
 12 13  1  0
 13 14  2  0
 14 15  1  0
 15 16  2  0
 16 17  1  0
 12 18  2  0
  8 19  1  0
 19 20  1  0
 20  2  2  0
 19  5  1  0
 18  9  1  0
 17 13  1  0
  1 21  1  0
  1 22  1  0
  1 23  1  0
  3 24  1  0
  4 25  1  0
  7 26  1  0
 14 27  1  0
 15 28  1  0
 17 29  1  0
 20 30  1  0
M  END
>  <Energy>  (1350) 
32.500852854754854

>  <compound_id>  (1350) 
36024

>  <target_id>  (1350) 
1

>  <reference_id>  (1350) 
45

>  <inspiration_ids>  (1350) 
[45, 122]

>  <energy_score>  (1350) 
-36.722240923862046

>  <distance_score>  (1350) 
13.855464821578526

>  <path>  (1350) 
/opt/xchem-fragalysis-2/maxwin/BulkDock/SCRATCH/511013/C36024-P45/C36024-P45.minimised.mol

>  <scratch_subdir>  (1350) 
/opt/xchem-fragalysis-2/maxwin/BulkDock/SCRATCH/511013/C36024-P45

>  <fragmenstein_runtime>  (1350) 
18.00629734992981

>  <fragmenstein_outcome>  (1350) 
too moved

>  <fragmenstein_mode>  (1350) 
expansion

>  <fragmenstein_error>  (1350) 


$$$$
C36024-P122
     RDKit          3D

 30 33  0  0  0  0  0  0  0  0999 V2000
    2.8205  -23.1193   27.7696 C   0  0  0  0  0  0  0  0  0  0  0  0
    2.2384  -21.8015   28.1670 C   0  0  0  0  0  0  0  0  0  0  0  0
    0.9096  -21.8001   28.7707 C   0  0  0  0  0  0  0  0  0  0  0  0
    0.2852  -20.6493   29.0809 C   0  0  0  0  0  0  0  0  0  0  0  0
    0.9478  -19.4038   28.8648 C   0  0  0  0  0  0  0  0  0  0  0  0
    0.5355  -18.1751   29.0839 N   0  0  0  0  0  0  0  0  0  0  0  0
    1.6189  -17.3775   28.7923 C   0  0  0  0  0  0  0  0  0  0  0  0
    2.7076  -18.0973   28.3411 C   0  0  0  0  0  0  0  0  0  0  0  0
    4.1371  -17.4459   27.9425 C   0  0  0  0  0  0  0  0  0  0  0  0
    5.2195  -18.1956   27.7069 N   0  0  0  0  0  0  0  0  0  0  0  0
    6.2264  -17.2695   27.4081 O   0  0  0  0  0  0  0  0  0  0  0  0
    5.6844  -16.0012   27.4514 C   0  0  0  0  0  0  0  0  0  0  0  0
    6.4700  -14.8152   27.1443 C   0  0  0  0  0  0  0  0  0  0  0  0
    7.8414  -14.6185   27.0290 C   0  0  0  0  0  0  0  0  0  0  0  0
    8.0176  -13.2835   26.5987 C   0  0  0  0  0  0  0  0  0  0  0  0
    6.8447  -12.6777   26.4073 N   0  0  0  0  0  0  0  0  0  0  0  0
    5.9375  -13.5922   26.8431 N   0  0  0  0  0  0  0  0  0  0  0  0
    4.4086  -16.0644   27.8289 N   0  0  0  0  0  0  0  0  0  0  0  0
    2.2631  -19.4251   28.3653 N   0  0  0  0  0  0  0  0  0  0  0  0
    2.8795  -20.6251   27.9968 C   0  0  0  0  0  0  0  0  0  0  0  0
    2.8473  -23.8075   28.6209 H   0  0  0  0  0  0  0  0  0  0  0  0
    2.2184  -23.5669   26.9752 H   0  0  0  0  0  0  0  0  0  0  0  0
    3.8436  -23.0155   27.3929 H   0  0  0  0  0  0  0  0  0  0  0  0
    0.4193  -22.7559   28.9387 H   0  0  0  0  0  0  0  0  0  0  0  0
   -0.7109  -20.6412   29.5099 H   0  0  0  0  0  0  0  0  0  0  0  0
    1.5718  -16.3049   28.9354 H   0  0  0  0  0  0  0  0  0  0  0  0
    8.6126  -15.3569   27.2027 H   0  0  0  0  0  0  0  0  0  0  0  0
    8.9379  -12.7552   26.3825 H   0  0  0  0  0  0  0  0  0  0  0  0
    4.9496  -13.3504   26.8137 H   0  0  0  0  0  0  0  0  0  0  0  0
    3.8715  -20.5545   27.5687 H   0  0  0  0  0  0  0  0  0  0  0  0
  1  2  1  0
  2  3  1  0
  3  4  2  0
  4  5  1  0
  5  6  2  0
  6  7  1  0
  7  8  2  0
  8  9  1  0
  9 10  2  0
 10 11  1  0
 11 12  1  0
 12 13  1  0
 13 14  2  0
 14 15  1  0
 15 16  2  0
 16 17  1  0
 12 18  2  0
  8 19  1  0
 19 20  1  0
 20  2  2  0
 19  5  1  0
 18  9  1  0
 17 13  1  0
  1 21  1  0
  1 22  1  0
  1 23  1  0
  3 24  1  0
  4 25  1  0
  7 26  1  0
 14 27  1  0
 15 28  1  0
 17 29  1  0
 20 30  1  0
M  END
>  <Energy>  (1351) 
22.06805458646971

>  <compound_id>  (1351) 
36024

>  <target_id>  (1351) 
1

>  <reference_id>  (1351) 
122

>  <inspiration_ids>  (1351) 
[45, 122]

>  <energy_score>  (1351) 
-47.15503919214211

>  <distance_score>  (1351) 
13.709408452233799

>  <path>  (1351) 
/opt/xchem-fragalysis-2/maxwin/BulkDock/SCRATCH/511013/C36024-P122/C36024-P122.minimised.mol

>  <scratch_subdir>  (1351) 
/opt/xchem-fragalysis-2/maxwin/BulkDock/SCRATCH/511013/C36024-P122

>  <fragmenstein_runtime>  (1351) 
14.976201057434082

>  <fragmenstein_outcome>  (1351) 
too moved

>  <fragmenstein_mode>  (1351) 
expansion

>  <fragmenstein_error>  (1351) 


$$$$
C36016-P45
     RDKit          3D

 40 42  0  0  0  0  0  0  0  0999 V2000
   -7.4243  -24.7491   26.0663 C   0  0  0  0  0  0  0  0  0  0  0  0
   -6.2191  -23.8073   25.7663 C   0  0  0  0  0  0  0  0  0  0  0  0
   -5.8710  -23.5072   27.1033 C   0  0  0  0  0  0  0  0  0  0  0  0
   -5.4941  -22.2840   27.3636 C   0  0  0  0  0  0  0  0  0  0  0  0
   -4.9856  -21.3461   26.3507 C   0  0  0  0  0  0  0  0  0  0  0  0
   -5.0559  -20.1035   26.1352 N   0  0  0  0  0  0  0  0  0  0  0  0
   -4.6210  -20.1756   24.8451 C   0  0  0  0  0  0  0  0  0  0  0  0
   -3.2701  -20.5484   24.2886 C   0  0  0  0  0  0  0  0  0  0  0  0
   -1.6609  -19.9314   23.1040 C   0  0  0  0  0  0  0  0  0  0  0  0
   -0.9413  -18.5271   21.7461 N   0  0  0  0  0  0  0  0  0  0  0  0
    0.1708  -17.0508   20.8638 C   0  0  0  0  0  0  0  0  0  0  0  0
    1.6412  -15.5712   20.2756 C   0  0  0  0  0  0  0  0  0  0  0  0
    2.2009  -14.3528   18.6575 N   0  0  0  0  0  0  0  0  0  0  0  0
    3.6259  -13.1412   18.4386 C   0  0  0  0  0  0  0  0  0  0  0  0
    4.5320  -13.0109   19.2628 O   0  0  0  0  0  0  0  0  0  0  0  0
    3.7804  -11.7752   17.0602 C   0  0  0  0  0  0  0  0  0  0  0  0
    3.6709  -10.1992   17.0659 C   0  0  0  0  0  0  0  0  0  0  0  0
    4.0536   -9.5348   15.7816 C   0  0  0  0  0  0  0  0  0  0  0  0
    4.0561  -10.4669   14.8384 N   0  0  0  0  0  0  0  0  0  0  0  0
    3.7121  -11.6185   15.5545 N   0  0  0  0  0  0  0  0  0  0  0  0
   -4.6901  -21.5844   24.9463 N   0  0  0  0  0  0  0  0  0  0  0  0
   -5.5382  -23.1844   24.6769 C   0  0  0  0  0  0  0  0  0  0  0  0
   -8.2092  -24.7795   25.3099 H   0  0  0  0  0  0  0  0  0  0  0  0
   -7.9992  -24.4071   26.9430 H   0  0  0  0  0  0  0  0  0  0  0  0
   -7.0836  -25.7645   26.3060 H   0  0  0  0  0  0  0  0  0  0  0  0
   -6.0396  -24.1991   27.9237 H   0  0  0  0  0  0  0  0  0  0  0  0
   -5.3809  -22.1211   28.4078 H   0  0  0  0  0  0  0  0  0  0  0  0
   -5.4009  -20.7763   23.7617 H   0  0  0  0  0  0  0  0  0  0  0  0
   -0.8116  -20.5674   23.3490 H   0  0  0  0  0  0  0  0  0  0  0  0
   -2.1816  -20.6833   22.5096 H   0  0  0  0  0  0  0  0  0  0  0  0
   -1.2504  -18.8996   20.8365 H   0  0  0  0  0  0  0  0  0  0  0  0
   -0.1458  -16.3836   21.6372 H   0  0  0  0  0  0  0  0  0  0  0  0
   -0.6136  -16.8725   20.1331 H   0  0  0  0  0  0  0  0  0  0  0  0
    2.4763  -15.1722   20.7766 H   0  0  0  0  0  0  0  0  0  0  0  0
    1.2096  -15.0490   21.0757 H   0  0  0  0  0  0  0  0  0  0  0  0
    1.6252  -14.3456   17.8162 H   0  0  0  0  0  0  0  0  0  0  0  0
    3.3252   -9.5214   17.8351 H   0  0  0  0  0  0  0  0  0  0  0  0
    4.1635   -8.4836   15.5597 H   0  0  0  0  0  0  0  0  0  0  0  0
    3.2797  -12.3132   14.9830 H   0  0  0  0  0  0  0  0  0  0  0  0
   -5.6960  -23.3893   23.6175 H   0  0  0  0  0  0  0  0  0  0  0  0
  1  2  1  0
  2  3  1  0
  3  4  2  0
  4  5  1  0
  5  6  2  0
  6  7  1  0
  7  8  2  0
  8  9  1  0
  9 10  1  0
 10 11  1  0
 11 12  1  0
 12 13  1  0
 13 14  1  0
 14 15  2  0
 14 16  1  0
 16 17  2  0
 17 18  1  0
 18 19  2  0
 19 20  1  0
  8 21  1  0
 21 22  1  0
 22  2  2  0
 21  5  1  0
 20 16  1  0
  1 23  1  0
  1 24  1  0
  1 25  1  0
  3 26  1  0
  4 27  1  0
  7 28  1  0
  9 29  1  0
  9 30  1  0
 10 31  1  0
 11 32  1  0
 11 33  1  0
 12 34  1  0
 12 35  1  0
 13 36  1  0
 17 37  1  0
 18 38  1  0
 20 39  1  0
 22 40  1  0
M  END
>  <Energy>  (1352) 
1432.3056950344553

>  <compound_id>  (1352) 
36016

>  <target_id>  (1352) 
1

>  <reference_id>  (1352) 
45

>  <inspiration_ids>  (1352) 
[45, 122]

>  <energy_score>  (1352) 
1407.3566882081907

>  <distance_score>  (1352) 
8.836772551314898

>  <path>  (1352) 
/opt/xchem-fragalysis-2/maxwin/BulkDock/SCRATCH/511013/C36016-P45/C36016-P45.minimised.mol

>  <scratch_subdir>  (1352) 
/opt/xchem-fragalysis-2/maxwin/BulkDock/SCRATCH/511013/C36016-P45

>  <fragmenstein_runtime>  (1352) 
18.50729727745056

>  <fragmenstein_outcome>  (1352) 
too moved

>  <fragmenstein_mode>  (1352) 
expansion

>  <fragmenstein_error>  (1352) 


$$$$
C36016-P122
     RDKit          3D

 40 42  0  0  0  0  0  0  0  0999 V2000
   -5.5738  -23.1332   24.0244 C   0  0  0  0  0  0  0  0  0  0  0  0
   -4.6601  -21.4598   24.5591 C   0  0  0  0  0  0  0  0  0  0  0  0
   -4.8523  -21.2865   25.8812 C   0  0  0  0  0  0  0  0  0  0  0  0
   -4.6876  -20.0760   25.5077 C   0  0  0  0  0  0  0  0  0  0  0  0
   -2.9604  -19.5566   25.4085 C   0  0  0  0  0  0  0  0  0  0  0  0
   -2.1048  -19.1801   26.2745 N   0  0  0  0  0  0  0  0  0  0  0  0
   -1.7916  -18.5679   25.1738 C   0  0  0  0  0  0  0  0  0  0  0  0
   -1.2958  -19.1741   23.2842 C   0  0  0  0  0  0  0  0  0  0  0  0
   -0.5073  -18.1037   21.5101 C   0  0  0  0  0  0  0  0  0  0  0  0
    0.3030  -16.6157   20.2342 N   0  0  0  0  0  0  0  0  0  0  0  0
    1.4634  -15.5675   18.7828 C   0  0  0  0  0  0  0  0  0  0  0  0
    1.1404  -13.9486   17.4343 C   0  0  0  0  0  0  0  0  0  0  0  0
    1.9126  -12.6408   16.0556 N   0  0  0  0  0  0  0  0  0  0  0  0
    2.8066  -11.8688   15.8894 C   0  0  0  0  0  0  0  0  0  0  0  0
    3.5066  -11.8418   17.3579 O   0  0  0  0  0  0  0  0  0  0  0  0
    3.6261  -10.9995   14.7380 C   0  0  0  0  0  0  0  0  0  0  0  0
    3.8401  -11.1631   13.3781 C   0  0  0  0  0  0  0  0  0  0  0  0
    4.6053  -10.0407   12.9696 C   0  0  0  0  0  0  0  0  0  0  0  0
    4.8441   -9.1887   13.9663 N   0  0  0  0  0  0  0  0  0  0  0  0
    4.2460   -9.7930   15.0125 N   0  0  0  0  0  0  0  0  0  0  0  0
   -2.2324  -20.3236   24.0641 N   0  0  0  0  0  0  0  0  0  0  0  0
   -3.3175  -20.9084   23.7626 C   0  0  0  0  0  0  0  0  0  0  0  0
   -4.9826  -24.0268   23.7798 H   0  0  0  0  0  0  0  0  0  0  0  0
   -6.1261  -23.5491   24.8857 H   0  0  0  0  0  0  0  0  0  0  0  0
   -6.2096  -22.9288   23.1397 H   0  0  0  0  0  0  0  0  0  0  0  0
   -5.3410  -21.9069   26.6390 H   0  0  0  0  0  0  0  0  0  0  0  0
   -5.3713  -19.6772   26.2834 H   0  0  0  0  0  0  0  0  0  0  0  0
   -1.9496  -17.4988   25.3404 H   0  0  0  0  0  0  0  0  0  0  0  0
   -0.3378  -17.1739   21.9579 H   0  0  0  0  0  0  0  0  0  0  0  0
   -1.4623  -18.0509   20.9569 H   0  0  0  0  0  0  0  0  0  0  0  0
   -0.6288  -16.2336   20.0289 H   0  0  0  0  0  0  0  0  0  0  0  0
    2.3700  -15.9796   18.1792 H   0  0  0  0  0  0  0  0  0  0  0  0
    2.2473  -15.0003   19.4610 H   0  0  0  0  0  0  0  0  0  0  0  0
    0.2057  -13.4791   17.7661 H   0  0  0  0  0  0  0  0  0  0  0  0
    0.8101  -14.5070   16.6013 H   0  0  0  0  0  0  0  0  0  0  0  0
    1.1085  -13.1227   15.8166 H   0  0  0  0  0  0  0  0  0  0  0  0
    3.4919  -11.9797   12.7651 H   0  0  0  0  0  0  0  0  0  0  0  0
    4.9810   -9.8111   11.9808 H   0  0  0  0  0  0  0  0  0  0  0  0
    4.3741   -9.4369   15.9550 H   0  0  0  0  0  0  0  0  0  0  0  0
   -3.0552  -20.9626   22.6982 H   0  0  0  0  0  0  0  0  0  0  0  0
  1  2  1  0
  2  3  1  0
  3  4  2  0
  4  5  1  0
  5  6  2  0
  6  7  1  0
  7  8  2  0
  8  9  1  0
  9 10  1  0
 10 11  1  0
 11 12  1  0
 12 13  1  0
 13 14  1  0
 14 15  2  0
 14 16  1  0
 16 17  2  0
 17 18  1  0
 18 19  2  0
 19 20  1  0
  8 21  1  0
 21 22  1  0
 22  2  2  0
 21  5  1  0
 20 16  1  0
  1 23  1  0
  1 24  1  0
  1 25  1  0
  3 26  1  0
  4 27  1  0
  7 28  1  0
  9 29  1  0
  9 30  1  0
 10 31  1  0
 11 32  1  0
 11 33  1  0
 12 34  1  0
 12 35  1  0
 13 36  1  0
 17 37  1  0
 18 38  1  0
 20 39  1  0
 22 40  1  0
M  END
>  <Energy>  (1353) 
1673.2665565332918

>  <compound_id>  (1353) 
36016

>  <target_id>  (1353) 
1

>  <reference_id>  (1353) 
122

>  <inspiration_ids>  (1353) 
[45, 122]

>  <energy_score>  (1353) 
1648.3175497070488

>  <distance_score>  (1353) 
9.670747456789382

>  <path>  (1353) 
/opt/xchem-fragalysis-2/maxwin/BulkDock/SCRATCH/511013/C36016-P122/C36016-P122.minimised.mol

>  <scratch_subdir>  (1353) 
/opt/xchem-fragalysis-2/maxwin/BulkDock/SCRATCH/511013/C36016-P122

>  <fragmenstein_runtime>  (1353) 
27.605506896972656

>  <fragmenstein_outcome>  (1353) 
too moved

>  <fragmenstein_mode>  (1353) 
expansion

>  <fragmenstein_error>  (1353) 


$$$$
C36015-P45
     RDKit          3D

 27 30  0  0  0  0  0  0  0  0999 V2000
   -9.5771  -18.3795   22.3812 Br  0  0  0  0  0  0  0  0  0  0  0  0
   -9.0134  -16.6444   22.8207 C   0  0  0  0  0  0  0  0  0  0  0  0
   -8.7636  -16.3463   24.2255 C   0  0  0  0  0  0  0  0  0  0  0  0
   -8.2681  -15.1461   24.5765 C   0  0  0  0  0  0  0  0  0  0  0  0
   -8.0509  -14.1766   23.5947 N   0  0  0  0  0  0  0  0  0  0  0  0
   -7.5218  -12.9042   23.6957 C   0  0  0  0  0  0  0  0  0  0  0  0
   -7.4615  -12.3712   22.4094 C   0  0  0  0  0  0  0  0  0  0  0  0
   -6.7631  -11.0511   21.9800 C   0  0  0  0  0  0  0  0  0  0  0  0
   -6.6131  -10.0252   22.8381 N   0  0  0  0  0  0  0  0  0  0  0  0
   -5.5997   -9.2400   22.2680 O   0  0  0  0  0  0  0  0  0  0  0  0
   -5.1976   -9.8259   21.0820 C   0  0  0  0  0  0  0  0  0  0  0  0
   -4.0138   -9.3706   20.3478 C   0  0  0  0  0  0  0  0  0  0  0  0
   -3.0059   -8.4686   20.6745 C   0  0  0  0  0  0  0  0  0  0  0  0
   -2.1083   -8.4727   19.5818 C   0  0  0  0  0  0  0  0  0  0  0  0
   -2.5270   -9.2793   18.6031 N   0  0  0  0  0  0  0  0  0  0  0  0
   -3.6457   -9.8448   19.1145 N   0  0  0  0  0  0  0  0  0  0  0  0
   -5.9826  -10.8721   20.8017 N   0  0  0  0  0  0  0  0  0  0  0  0
   -8.0413  -13.3028   21.5326 N   0  0  0  0  0  0  0  0  0  0  0  0
   -8.3611  -14.3761   22.2537 C   0  0  0  0  0  0  0  0  0  0  0  0
   -8.8433  -15.6819   21.8860 C   0  0  0  0  0  0  0  0  0  0  0  0
   -9.0168  -17.0684   24.9839 H   0  0  0  0  0  0  0  0  0  0  0  0
   -8.0557  -14.8716   25.6020 H   0  0  0  0  0  0  0  0  0  0  0  0
   -7.1728  -12.5100   24.6385 H   0  0  0  0  0  0  0  0  0  0  0  0
   -2.9233   -7.8981   21.5883 H   0  0  0  0  0  0  0  0  0  0  0  0
   -1.1821   -7.9257   19.4571 H   0  0  0  0  0  0  0  0  0  0  0  0
   -4.1333  -10.5461   18.5667 H   0  0  0  0  0  0  0  0  0  0  0  0
   -9.0278  -15.8685   20.8340 H   0  0  0  0  0  0  0  0  0  0  0  0
  1  2  1  0
  2  3  1  0
  3  4  2  0
  4  5  1  0
  5  6  1  0
  6  7  2  0
  7  8  1  0
  8  9  2  0
  9 10  1  0
 10 11  1  0
 11 12  1  0
 12 13  2  0
 13 14  1  0
 14 15  2  0
 15 16  1  0
 11 17  2  0
  7 18  1  0
 18 19  2  0
 19 20  1  0
 20  2  2  0
 19  5  1  0
 17  8  1  0
 16 12  1  0
  3 21  1  0
  4 22  1  0
  6 23  1  0
 13 24  1  0
 14 25  1  0
 16 26  1  0
 20 27  1  0
M  END
>  <Energy>  (1354) 
60.643005074803348

>  <compound_id>  (1354) 
36015

>  <target_id>  (1354) 
1

>  <reference_id>  (1354) 
45

>  <inspiration_ids>  (1354) 
[45, 122]

>  <energy_score>  (1354) 
-22.0814538361592

>  <distance_score>  (1354) 
14.847111090991175

>  <path>  (1354) 
/opt/xchem-fragalysis-2/maxwin/BulkDock/SCRATCH/511013/C36015-P45/C36015-P45.minimised.mol

>  <scratch_subdir>  (1354) 
/opt/xchem-fragalysis-2/maxwin/BulkDock/SCRATCH/511013/C36015-P45

>  <fragmenstein_runtime>  (1354) 
9.919719696044922

>  <fragmenstein_outcome>  (1354) 
too moved

>  <fragmenstein_mode>  (1354) 
expansion

>  <fragmenstein_error>  (1354) 


$$$$
C36015-P122
     RDKit          3D

 27 30  0  0  0  0  0  0  0  0999 V2000
   -5.8946  -22.9287   26.6579 Br  0  0  0  0  0  0  0  0  0  0  0  0
   -5.1939  -22.9388   24.3758 C   0  0  0  0  0  0  0  0  0  0  0  0
   -4.2705  -24.6629   24.5121 C   0  0  0  0  0  0  0  0  0  0  0  0
   -2.6843  -25.0135   25.1179 C   0  0  0  0  0  0  0  0  0  0  0  0
   -1.5223  -23.4106   25.4473 N   0  0  0  0  0  0  0  0  0  0  0  0
    0.2415  -23.2758   24.9976 C   0  0  0  0  0  0  0  0  0  0  0  0
    0.4588  -22.4410   23.8528 C   0  0  0  0  0  0  0  0  0  0  0  0
    1.9030  -22.2972   23.2549 C   0  0  0  0  0  0  0  0  0  0  0  0
    2.7085  -23.3760   23.2928 N   0  0  0  0  0  0  0  0  0  0  0  0
    3.9669  -22.8992   22.9456 O   0  0  0  0  0  0  0  0  0  0  0  0
    3.8859  -21.5385   22.7084 C   0  0  0  0  0  0  0  0  0  0  0  0
    5.1187  -20.7933   22.4214 C   0  0  0  0  0  0  0  0  0  0  0  0
    6.4063  -20.9148   22.9366 C   0  0  0  0  0  0  0  0  0  0  0  0
    7.2046  -19.9285   22.3054 C   0  0  0  0  0  0  0  0  0  0  0  0
    6.5114  -19.2422   21.4034 N   0  0  0  0  0  0  0  0  0  0  0  0
    5.2683  -19.8022   21.4980 N   0  0  0  0  0  0  0  0  0  0  0  0
    2.6184  -21.1375   22.8792 N   0  0  0  0  0  0  0  0  0  0  0  0
   -0.9050  -21.6085   23.4931 N   0  0  0  0  0  0  0  0  0  0  0  0
   -2.0284  -21.7501   24.3785 C   0  0  0  0  0  0  0  0  0  0  0  0
   -4.0429  -21.4817   24.5553 C   0  0  0  0  0  0  0  0  0  0  0  0
   -4.6695  -25.3152   23.7317 H   0  0  0  0  0  0  0  0  0  0  0  0
   -2.1530  -25.9012   24.8019 H   0  0  0  0  0  0  0  0  0  0  0  0
    0.8246  -23.8255   25.7012 H   0  0  0  0  0  0  0  0  0  0  0  0
    6.7187  -21.6114   23.7009 H   0  0  0  0  0  0  0  0  0  0  0  0
    8.2494  -19.6992   22.4649 H   0  0  0  0  0  0  0  0  0  0  0  0
    4.5525  -19.4925   20.8533 H   0  0  0  0  0  0  0  0  0  0  0  0
   -4.3688  -20.4645   24.3129 H   0  0  0  0  0  0  0  0  0  0  0  0
  1  2  1  0
  2  3  1  0
  3  4  2  0
  4  5  1  0
  5  6  1  0
  6  7  2  0
  7  8  1  0
  8  9  2  0
  9 10  1  0
 10 11  1  0
 11 12  1  0
 12 13  2  0
 13 14  1  0
 14 15  2  0
 15 16  1  0
 11 17  2  0
  7 18  1  0
 18 19  2  0
 19 20  1  0
 20  2  2  0
 19  5  1  0
 17  8  1  0
 16 12  1  0
  3 21  1  0
  4 22  1  0
  6 23  1  0
 13 24  1  0
 14 25  1  0
 16 26  1  0
 20 27  1  0
M  END
>  <Energy>  (1355) 
817.90509806160435

>  <compound_id>  (1355) 
36015

>  <target_id>  (1355) 
1

>  <reference_id>  (1355) 
122

>  <inspiration_ids>  (1355) 
[45, 122]

>  <energy_score>  (1355) 
735.1806391506337

>  <distance_score>  (1355) 
13.635493649026555

>  <path>  (1355) 
/opt/xchem-fragalysis-2/maxwin/BulkDock/SCRATCH/511013/C36015-P122/C36015-P122.minimised.mol

>  <scratch_subdir>  (1355) 
/opt/xchem-fragalysis-2/maxwin/BulkDock/SCRATCH/511013/C36015-P122

>  <fragmenstein_runtime>  (1355) 
13.049372673034668

>  <fragmenstein_outcome>  (1355) 
too moved

>  <fragmenstein_mode>  (1355) 
expansion

>  <fragmenstein_error>  (1355) 


$$$$
C36029-P45
     RDKit          3D

 40 43  0  0  0  0  0  0  0  0999 V2000
   -4.6140  -20.5013   23.8692 C   0  0  0  0  0  0  0  0  0  0  0  0
   -4.7016  -21.1554   24.9796 C   0  0  0  0  0  0  0  0  0  0  0  0
   -4.2832  -20.5912   26.0391 C   0  0  0  0  0  0  0  0  0  0  0  0
   -2.7045  -19.4883   26.6076 N   0  0  0  0  0  0  0  0  0  0  0  0
   -1.5254  -18.1460   26.3108 C   0  0  0  0  0  0  0  0  0  0  0  0
   -2.0232  -16.8664   25.1999 C   0  0  0  0  0  0  0  0  0  0  0  0
   -1.0310  -15.1213   24.5141 C   0  0  0  0  0  0  0  0  0  0  0  0
    0.8062  -14.2227   24.1477 N   0  0  0  0  0  0  0  0  0  0  0  0
    1.4427  -13.3206   25.4759 C   0  0  0  0  0  0  0  0  0  0  0  0
    1.8613  -12.1204   24.6008 C   0  0  0  0  0  0  0  0  0  0  0  0
    2.7761  -11.8850   23.5515 C   0  0  0  0  0  0  0  0  0  0  0  0
    3.8273  -12.6849   23.9690 C   0  0  0  0  0  0  0  0  0  0  0  0
    5.6733  -12.0008   24.7687 C   0  0  0  0  0  0  0  0  0  0  0  0
    6.7433  -11.2884   24.1676 C   0  0  0  0  0  0  0  0  0  0  0  0
    7.7918  -11.1994   25.0850 C   0  0  0  0  0  0  0  0  0  0  0  0
    7.5050  -11.8657   26.1954 N   0  0  0  0  0  0  0  0  0  0  0  0
    6.2679  -12.3455   25.9959 N   0  0  0  0  0  0  0  0  0  0  0  0
    2.7582  -14.1790   23.6116 C   0  0  0  0  0  0  0  0  0  0  0  0
   -2.7164  -17.3131   26.1018 N   0  0  0  0  0  0  0  0  0  0  0  0
   -2.6021  -18.8780   25.5004 C   0  0  0  0  0  0  0  0  0  0  0  0
   -4.0790  -19.5232   24.4206 C   0  0  0  0  0  0  0  0  0  0  0  0
   -5.4162  -20.5774   23.1042 H   0  0  0  0  0  0  0  0  0  0  0  0
   -5.3023  -22.0428   24.9529 H   0  0  0  0  0  0  0  0  0  0  0  0
   -4.9111  -21.2171   26.7556 H   0  0  0  0  0  0  0  0  0  0  0  0
   -0.6928  -18.2208   26.9921 H   0  0  0  0  0  0  0  0  0  0  0  0
   -1.3889  -15.0304   23.5146 H   0  0  0  0  0  0  0  0  0  0  0  0
   -1.5548  -14.3957   25.1762 H   0  0  0  0  0  0  0  0  0  0  0  0
    0.7504  -13.1069   26.2581 H   0  0  0  0  0  0  0  0  0  0  0  0
    2.2223  -13.7075   26.1365 H   0  0  0  0  0  0  0  0  0  0  0  0
    1.2127  -11.7420   23.8122 H   0  0  0  0  0  0  0  0  0  0  0  0
    1.7586  -11.5013   25.4535 H   0  0  0  0  0  0  0  0  0  0  0  0
    3.1024  -10.9566   23.0937 H   0  0  0  0  0  0  0  0  0  0  0  0
    2.4501  -12.1274   22.6141 H   0  0  0  0  0  0  0  0  0  0  0  0
    4.0550  -12.3771   22.9177 H   0  0  0  0  0  0  0  0  0  0  0  0
    6.7038  -10.9077   23.1766 H   0  0  0  0  0  0  0  0  0  0  0  0
    8.7501  -10.7059   24.9921 H   0  0  0  0  0  0  0  0  0  0  0  0
    5.7923  -12.7917   26.7701 H   0  0  0  0  0  0  0  0  0  0  0  0
    3.0138  -14.4909   22.6183 H   0  0  0  0  0  0  0  0  0  0  0  0
    3.4872  -14.8858   24.0442 H   0  0  0  0  0  0  0  0  0  0  0  0
   -5.0154  -18.9907   24.0879 H   0  0  0  0  0  0  0  0  0  0  0  0
  1  2  1  0
  2  3  2  0
  3  4  1  0
  4  5  1  0
  5  6  2  0
  6  7  1  0
  7  8  1  0
  8  9  1  0
  9 10  1  0
 10 11  1  0
 11 12  1  0
 12 13  1  0
 13 14  2  0
 14 15  1  0
 15 16  2  0
 16 17  1  0
 12 18  1  0
  6 19  1  0
 19 20  2  0
 20 21  1  0
 21  1  2  0
 20  4  1  0
 18  8  1  0
 17 13  1  0
  1 22  1  0
  2 23  1  0
  3 24  1  0
  5 25  1  0
  7 26  1  0
  7 27  1  0
  9 28  1  0
  9 29  1  0
 10 30  1  0
 10 31  1  0
 11 32  1  0
 11 33  1  0
 12 34  1  0
 14 35  1  0
 15 36  1  0
 17 37  1  0
 18 38  1  0
 18 39  1  0
 21 40  1  0
M  END
>  <Energy>  (1356) 
1654.4839724433918

>  <compound_id>  (1356) 
36029

>  <target_id>  (1356) 
1

>  <reference_id>  (1356) 
45

>  <inspiration_ids>  (1356) 
[45, 122]

>  <energy_score>  (1356) 
1546.1378490790937

>  <distance_score>  (1356) 
11.33285419621539

>  <path>  (1356) 
/opt/xchem-fragalysis-2/maxwin/BulkDock/SCRATCH/511013/C36029-P45/C36029-P45.minimised.mol

>  <scratch_subdir>  (1356) 
/opt/xchem-fragalysis-2/maxwin/BulkDock/SCRATCH/511013/C36029-P45

>  <fragmenstein_runtime>  (1356) 
23.253239154815674

>  <fragmenstein_outcome>  (1356) 
too moved

>  <fragmenstein_mode>  (1356) 
expansion

>  <fragmenstein_error>  (1356) 


$$$$
C36029-P122
     RDKit          3D

 40 43  0  0  0  0  0  0  0  0999 V2000
   -6.5731  -18.4967   24.2109 C   0  0  0  0  0  0  0  0  0  0  0  0
   -6.4073  -18.7606   25.8569 C   0  0  0  0  0  0  0  0  0  0  0  0
   -5.5674  -19.7088   26.2435 C   0  0  0  0  0  0  0  0  0  0  0  0
   -4.2533  -20.0687   25.4696 N   0  0  0  0  0  0  0  0  0  0  0  0
   -2.4383  -19.3001   25.7273 C   0  0  0  0  0  0  0  0  0  0  0  0
   -2.1901  -17.4805   25.4594 C   0  0  0  0  0  0  0  0  0  0  0  0
   -1.3283  -15.6520   24.5721 C   0  0  0  0  0  0  0  0  0  0  0  0
    0.4651  -14.4941   24.3147 N   0  0  0  0  0  0  0  0  0  0  0  0
    1.1044  -13.5657   25.5997 C   0  0  0  0  0  0  0  0  0  0  0  0
    1.9212  -12.6130   24.6135 C   0  0  0  0  0  0  0  0  0  0  0  0
    3.1899  -13.2015   24.2416 C   0  0  0  0  0  0  0  0  0  0  0  0
    4.0674  -14.3421   24.6774 C   0  0  0  0  0  0  0  0  0  0  0  0
    5.4469  -13.2002   25.6268 C   0  0  0  0  0  0  0  0  0  0  0  0
    6.5308  -12.2808   25.1432 C   0  0  0  0  0  0  0  0  0  0  0  0
    7.1942  -11.6642   26.2011 C   0  0  0  0  0  0  0  0  0  0  0  0
    6.5971  -11.9753   27.3287 N   0  0  0  0  0  0  0  0  0  0  0  0
    5.6328  -12.8545   26.9862 N   0  0  0  0  0  0  0  0  0  0  0  0
    2.3986  -14.5680   23.5075 C   0  0  0  0  0  0  0  0  0  0  0  0
   -3.0080  -19.1722   25.2809 N   0  0  0  0  0  0  0  0  0  0  0  0
   -4.2359  -19.7951   24.2387 C   0  0  0  0  0  0  0  0  0  0  0  0
   -5.6434  -19.1743   23.4705 C   0  0  0  0  0  0  0  0  0  0  0  0
   -7.4670  -18.0343   23.8048 H   0  0  0  0  0  0  0  0  0  0  0  0
   -6.9610  -18.1839   26.6136 H   0  0  0  0  0  0  0  0  0  0  0  0
   -5.7144  -20.2233   27.1424 H   0  0  0  0  0  0  0  0  0  0  0  0
   -2.1229  -20.1968   24.5887 H   0  0  0  0  0  0  0  0  0  0  0  0
   -1.9794  -15.3276   23.7966 H   0  0  0  0  0  0  0  0  0  0  0  0
   -1.8612  -14.9172   25.2556 H   0  0  0  0  0  0  0  0  0  0  0  0
    0.3227  -13.1843   26.1791 H   0  0  0  0  0  0  0  0  0  0  0  0
    1.7254  -13.9621   26.3902 H   0  0  0  0  0  0  0  0  0  0  0  0
    1.6631  -12.0819   23.6980 H   0  0  0  0  0  0  0  0  0  0  0  0
    1.7369  -11.7524   25.2019 H   0  0  0  0  0  0  0  0  0  0  0  0
    3.1809  -13.5179   25.2322 H   0  0  0  0  0  0  0  0  0  0  0  0
    3.5717  -12.6070   23.4398 H   0  0  0  0  0  0  0  0  0  0  0  0
    4.0224  -14.9731   25.5722 H   0  0  0  0  0  0  0  0  0  0  0  0
    6.8167  -12.0414   24.1309 H   0  0  0  0  0  0  0  0  0  0  0  0
    8.0251  -10.9711   26.1904 H   0  0  0  0  0  0  0  0  0  0  0  0
    4.9983  -13.1296   27.7209 H   0  0  0  0  0  0  0  0  0  0  0  0
    2.8722  -14.3216   22.5435 H   0  0  0  0  0  0  0  0  0  0  0  0
    2.7635  -15.5651   23.5046 H   0  0  0  0  0  0  0  0  0  0  0  0
   -5.8599  -19.3570   22.4189 H   0  0  0  0  0  0  0  0  0  0  0  0
  1  2  1  0
  2  3  2  0
  3  4  1  0
  4  5  1  0
  5  6  2  0
  6  7  1  0
  7  8  1  0
  8  9  1  0
  9 10  1  0
 10 11  1  0
 11 12  1  0
 12 13  1  0
 13 14  2  0
 14 15  1  0
 15 16  2  0
 16 17  1  0
 12 18  1  0
  6 19  1  0
 19 20  2  0
 20 21  1  0
 21  1  2  0
 20  4  1  0
 18  8  1  0
 17 13  1  0
  1 22  1  0
  2 23  1  0
  3 24  1  0
  5 25  1  0
  7 26  1  0
  7 27  1  0
  9 28  1  0
  9 29  1  0
 10 30  1  0
 10 31  1  0
 11 32  1  0
 11 33  1  0
 12 34  1  0
 14 35  1  0
 15 36  1  0
 17 37  1  0
 18 38  1  0
 18 39  1  0
 21 40  1  0
M  END
>  <Energy>  (1357) 
1962.9395444295571

>  <compound_id>  (1357) 
36029

>  <target_id>  (1357) 
1

>  <reference_id>  (1357) 
122

>  <inspiration_ids>  (1357) 
[45, 122]

>  <energy_score>  (1357) 
1854.5934210652538

>  <distance_score>  (1357) 
12.07332929351682

>  <path>  (1357) 
/opt/xchem-fragalysis-2/maxwin/BulkDock/SCRATCH/511013/C36029-P122/C36029-P122.minimised.mol

>  <scratch_subdir>  (1357) 
/opt/xchem-fragalysis-2/maxwin/BulkDock/SCRATCH/511013/C36029-P122

>  <fragmenstein_runtime>  (1357) 
22.277554512023926

>  <fragmenstein_outcome>  (1357) 
too moved

>  <fragmenstein_mode>  (1357) 
expansion

>  <fragmenstein_error>  (1357) 


$$$$
C36028-P45
     RDKit          3D

 41 44  0  0  0  0  0  0  0  0999 V2000
   -0.7341  -16.1643   21.0312 O   0  0  0  0  0  0  0  0  0  0  0  0
   -0.4301  -16.5797   20.0131 C   0  0  0  0  0  0  0  0  0  0  0  0
   -1.3331  -17.8398   19.1276 N   0  0  0  0  0  0  0  0  0  0  0  0
   -2.6293  -18.5028   19.4342 C   0  0  0  0  0  0  0  0  0  0  0  0
   -2.8419  -19.9115   19.4787 C   0  0  0  0  0  0  0  0  0  0  0  0
   -4.0930  -20.3855   19.7224 N   0  0  0  0  0  0  0  0  0  0  0  0
   -4.8086  -19.3199   19.5875 C   0  0  0  0  0  0  0  0  0  0  0  0
   -6.2166  -19.1993   19.7015 C   0  0  0  0  0  0  0  0  0  0  0  0
   -6.8119  -18.1719   19.0864 C   0  0  0  0  0  0  0  0  0  0  0  0
   -6.0118  -17.2373   18.3180 C   0  0  0  0  0  0  0  0  0  0  0  0
   -4.6637  -17.2727   18.3762 C   0  0  0  0  0  0  0  0  0  0  0  0
   -4.0134  -18.2312   19.1306 N   0  0  0  0  0  0  0  0  0  0  0  0
    1.0817  -16.0348   19.1545 N   0  0  0  0  0  0  0  0  0  0  0  0
    1.3992  -14.5993   17.8783 C   0  0  0  0  0  0  0  0  0  0  0  0
    2.7477  -15.2873   17.4530 C   0  0  0  0  0  0  0  0  0  0  0  0
    4.0614  -14.9520   18.0748 C   0  0  0  0  0  0  0  0  0  0  0  0
    3.7511  -13.8072   18.8326 C   0  0  0  0  0  0  0  0  0  0  0  0
    4.9924  -12.9385   19.3414 C   0  0  0  0  0  0  0  0  0  0  0  0
    5.7018  -11.8179   19.1131 C   0  0  0  0  0  0  0  0  0  0  0  0
    6.6663  -11.6128   19.9538 C   0  0  0  0  0  0  0  0  0  0  0  0
    6.6584  -12.5498   20.8304 N   0  0  0  0  0  0  0  0  0  0  0  0
    5.5460  -13.1692   20.5000 N   0  0  0  0  0  0  0  0  0  0  0  0
    2.4543  -14.8922   19.7166 C   0  0  0  0  0  0  0  0  0  0  0  0
   -0.8227  -18.1031   18.2963 H   0  0  0  0  0  0  0  0  0  0  0  0
   -2.1291  -20.6881   19.4872 H   0  0  0  0  0  0  0  0  0  0  0  0
   -6.7695  -19.9525   20.2486 H   0  0  0  0  0  0  0  0  0  0  0  0
   -7.8873  -18.0379   19.1201 H   0  0  0  0  0  0  0  0  0  0  0  0
   -6.5268  -16.5097   17.6993 H   0  0  0  0  0  0  0  0  0  0  0  0
   -4.0527  -16.6101   17.7921 H   0  0  0  0  0  0  0  0  0  0  0  0
    0.9105  -14.4144   16.9157 H   0  0  0  0  0  0  0  0  0  0  0  0
    1.4966  -13.6469   18.2817 H   0  0  0  0  0  0  0  0  0  0  0  0
    2.6112  -16.2561   17.8488 H   0  0  0  0  0  0  0  0  0  0  0  0
    2.7862  -15.6631   16.4525 H   0  0  0  0  0  0  0  0  0  0  0  0
    4.7851  -14.9513   17.3343 H   0  0  0  0  0  0  0  0  0  0  0  0
    4.5241  -15.7060   18.6755 H   0  0  0  0  0  0  0  0  0  0  0  0
    3.7251  -13.4968   19.8862 H   0  0  0  0  0  0  0  0  0  0  0  0
    5.8411  -10.9494   18.5688 H   0  0  0  0  0  0  0  0  0  0  0  0
    7.4231  -10.8749   19.6619 H   0  0  0  0  0  0  0  0  0  0  0  0
    5.1708  -13.9422   20.9978 H   0  0  0  0  0  0  0  0  0  0  0  0
    2.2069  -14.1787   20.3799 H   0  0  0  0  0  0  0  0  0  0  0  0
    2.4800  -15.2984   20.6765 H   0  0  0  0  0  0  0  0  0  0  0  0
  1  2  2  0
  2  3  1  0
  3  4  1  0
  4  5  2  0
  5  6  1  0
  6  7  2  0
  7  8  1  0
  8  9  2  0
  9 10  1  0
 10 11  2  0
 11 12  1  0
  2 13  1  0
 13 14  1  0
 14 15  1  0
 15 16  1  0
 16 17  1  0
 17 18  1  0
 18 19  2  0
 19 20  1  0
 20 21  2  0
 21 22  1  0
 17 23  1  0
 12  4  1  0
 23 13  1  0
 12  7  1  0
 22 18  1  0
  3 24  1  0
  5 25  1  0
  8 26  1  0
  9 27  1  0
 10 28  1  0
 11 29  1  0
 14 30  1  0
 14 31  1  0
 15 32  1  0
 15 33  1  0
 16 34  1  0
 16 35  1  0
 17 36  1  0
 19 37  1  0
 20 38  1  0
 22 39  1  0
 23 40  1  0
 23 41  1  0
M  END
>  <Energy>  (1358) 
672.41302709190541

>  <compound_id>  (1358) 
36028

>  <target_id>  (1358) 
1

>  <reference_id>  (1358) 
45

>  <inspiration_ids>  (1358) 
[45, 122]

>  <energy_score>  (1358) 
598.0661738646013

>  <distance_score>  (1358) 
12.335975177009397

>  <path>  (1358) 
/opt/xchem-fragalysis-2/maxwin/BulkDock/SCRATCH/511013/C36028-P45/C36028-P45.minimised.mol

>  <scratch_subdir>  (1358) 
/opt/xchem-fragalysis-2/maxwin/BulkDock/SCRATCH/511013/C36028-P45

>  <fragmenstein_runtime>  (1358) 
24.396325826644897

>  <fragmenstein_outcome>  (1358) 
too moved

>  <fragmenstein_mode>  (1358) 
expansion

>  <fragmenstein_error>  (1358) 


$$$$
C36028-P122
     RDKit          3D

 41 44  0  0  0  0  0  0  0  0999 V2000
    2.5095  -17.7086   27.4204 O   0  0  0  0  0  0  0  0  0  0  0  0
    1.7145  -18.0655   26.5439 C   0  0  0  0  0  0  0  0  0  0  0  0
    0.1085  -19.6060   26.6170 N   0  0  0  0  0  0  0  0  0  0  0  0
   -0.6508  -21.2218   27.9520 C   0  0  0  0  0  0  0  0  0  0  0  0
   -1.5815  -22.9340   27.6906 C   0  0  0  0  0  0  0  0  0  0  0  0
   -3.5111  -23.3478   27.3724 N   0  0  0  0  0  0  0  0  0  0  0  0
   -3.5495  -23.7868   28.5023 C   0  0  0  0  0  0  0  0  0  0  0  0
   -4.6376  -24.8397   28.9052 C   0  0  0  0  0  0  0  0  0  0  0  0
   -5.0399  -26.4318   28.2348 C   0  0  0  0  0  0  0  0  0  0  0  0
   -3.3414  -25.9999   27.4312 C   0  0  0  0  0  0  0  0  0  0  0  0
   -2.2925  -24.8844   27.2287 C   0  0  0  0  0  0  0  0  0  0  0  0
   -1.6132  -23.1834   28.1175 N   0  0  0  0  0  0  0  0  0  0  0  0
    2.1666  -17.0944   24.5386 N   0  0  0  0  0  0  0  0  0  0  0  0
    1.5841  -15.2389   23.5528 C   0  0  0  0  0  0  0  0  0  0  0  0
    3.0042  -14.5143   22.1456 C   0  0  0  0  0  0  0  0  0  0  0  0
    3.3878  -13.0550   21.8976 C   0  0  0  0  0  0  0  0  0  0  0  0
    3.6951  -13.0173   23.3433 C   0  0  0  0  0  0  0  0  0  0  0  0
    4.7298  -11.0438   22.5338 C   0  0  0  0  0  0  0  0  0  0  0  0
    6.1330  -10.6547   21.1299 C   0  0  0  0  0  0  0  0  0  0  0  0
    6.8992   -8.5262   20.4360 C   0  0  0  0  0  0  0  0  0  0  0  0
    5.5798   -7.6597   21.6048 N   0  0  0  0  0  0  0  0  0  0  0  0
    4.6328   -9.0071   22.8606 N   0  0  0  0  0  0  0  0  0  0  0  0
    3.6574  -15.3839   23.9229 C   0  0  0  0  0  0  0  0  0  0  0  0
   -0.3601  -19.5742   25.8592 H   0  0  0  0  0  0  0  0  0  0  0  0
   -1.5242  -23.6299   26.3757 H   0  0  0  0  0  0  0  0  0  0  0  0
   -5.5526  -24.3264   29.1315 H   0  0  0  0  0  0  0  0  0  0  0  0
   -5.5347  -27.3563   27.9570 H   0  0  0  0  0  0  0  0  0  0  0  0
   -3.0275  -27.0369   27.3167 H   0  0  0  0  0  0  0  0  0  0  0  0
   -1.8444  -25.2367   26.2470 H   0  0  0  0  0  0  0  0  0  0  0  0
    0.7326  -14.9992   22.4429 H   0  0  0  0  0  0  0  0  0  0  0  0
    0.9520  -14.3646   24.0557 H   0  0  0  0  0  0  0  0  0  0  0  0
    2.6132  -15.0347   21.1376 H   0  0  0  0  0  0  0  0  0  0  0  0
    2.7188  -14.2151   21.0396 H   0  0  0  0  0  0  0  0  0  0  0  0
    3.8894  -12.2961   21.3672 H   0  0  0  0  0  0  0  0  0  0  0  0
    4.1560  -13.3325   21.1092 H   0  0  0  0  0  0  0  0  0  0  0  0
    2.7996  -12.6213   23.8430 H   0  0  0  0  0  0  0  0  0  0  0  0
    6.2592  -11.4467   20.3546 H   0  0  0  0  0  0  0  0  0  0  0  0
    7.7757   -8.0913   19.9834 H   0  0  0  0  0  0  0  0  0  0  0  0
    3.7807   -8.4374   22.9757 H   0  0  0  0  0  0  0  0  0  0  0  0
    4.5488  -15.9306   23.6771 H   0  0  0  0  0  0  0  0  0  0  0  0
    4.0979  -15.0786   24.9284 H   0  0  0  0  0  0  0  0  0  0  0  0
  1  2  2  0
  2  3  1  0
  3  4  1  0
  4  5  2  0
  5  6  1  0
  6  7  2  0
  7  8  1  0
  8  9  2  0
  9 10  1  0
 10 11  2  0
 11 12  1  0
  2 13  1  0
 13 14  1  0
 14 15  1  0
 15 16  1  0
 16 17  1  0
 17 18  1  0
 18 19  2  0
 19 20  1  0
 20 21  2  0
 21 22  1  0
 17 23  1  0
 12  4  1  0
 23 13  1  0
 12  7  1  0
 22 18  1  0
  3 24  1  0
  5 25  1  0
  8 26  1  0
  9 27  1  0
 10 28  1  0
 11 29  1  0
 14 30  1  0
 14 31  1  0
 15 32  1  0
 15 33  1  0
 16 34  1  0
 16 35  1  0
 17 36  1  0
 19 37  1  0
 20 38  1  0
 22 39  1  0
 23 40  1  0
 23 41  1  0
M  END
>  <Energy>  (1359) 
5609.6457143530279

>  <compound_id>  (1359) 
36028

>  <target_id>  (1359) 
1

>  <reference_id>  (1359) 
122

>  <inspiration_ids>  (1359) 
[45, 122]

>  <energy_score>  (1359) 
5535.298861125741

>  <distance_score>  (1359) 
8.602962407862135

>  <path>  (1359) 
/opt/xchem-fragalysis-2/maxwin/BulkDock/SCRATCH/511013/C36028-P122/C36028-P122.minimised.mol

>  <scratch_subdir>  (1359) 
/opt/xchem-fragalysis-2/maxwin/BulkDock/SCRATCH/511013/C36028-P122

>  <fragmenstein_runtime>  (1359) 
26.691298484802246

>  <fragmenstein_outcome>  (1359) 
too moved

>  <fragmenstein_mode>  (1359) 
expansion

>  <fragmenstein_error>  (1359) 


$$$$
C36019-P45
     RDKit          3D

 41 44  0  0  0  0  0  0  0  0999 V2000
    1.8018  -19.2249   24.7523 O   0  0  0  0  0  0  0  0  0  0  0  0
    0.6148  -18.9620   24.7192 C   0  0  0  0  0  0  0  0  0  0  0  0
   -0.5530  -19.2555   26.4107 N   0  0  0  0  0  0  0  0  0  0  0  0
   -0.1661  -20.1425   28.0689 C   0  0  0  0  0  0  0  0  0  0  0  0
   -0.0471  -21.9631   28.5328 C   0  0  0  0  0  0  0  0  0  0  0  0
   -1.1974  -23.5175   28.5379 N   0  0  0  0  0  0  0  0  0  0  0  0
   -2.2068  -24.8282   27.4707 C   0  0  0  0  0  0  0  0  0  0  0  0
   -3.3555  -25.5882   27.4091 C   0  0  0  0  0  0  0  0  0  0  0  0
   -4.4026  -24.8228   27.8302 C   0  0  0  0  0  0  0  0  0  0  0  0
   -3.8646  -23.6132   27.8315 C   0  0  0  0  0  0  0  0  0  0  0  0
   -1.9514  -23.1265   27.6243 C   0  0  0  0  0  0  0  0  0  0  0  0
   -1.2798  -21.5682   28.2585 N   0  0  0  0  0  0  0  0  0  0  0  0
   -0.1291  -18.5246   22.8386 N   0  0  0  0  0  0  0  0  0  0  0  0
    0.5696  -18.5700   21.3562 C   0  0  0  0  0  0  0  0  0  0  0  0
    0.3040  -17.5721   19.8041 C   0  0  0  0  0  0  0  0  0  0  0  0
    0.6958  -16.1198   19.9097 C   0  0  0  0  0  0  0  0  0  0  0  0
    2.3467  -14.9391   19.6903 C   0  0  0  0  0  0  0  0  0  0  0  0
    2.8519  -14.7039   18.4201 C   0  0  0  0  0  0  0  0  0  0  0  0
    4.0430  -14.0022   18.6038 C   0  0  0  0  0  0  0  0  0  0  0  0
    4.3074  -13.2085   19.6716 N   0  0  0  0  0  0  0  0  0  0  0  0
    3.1622  -13.7417   20.5724 N   0  0  0  0  0  0  0  0  0  0  0  0
   -0.8259  -16.3601   20.4890 C   0  0  0  0  0  0  0  0  0  0  0  0
   -0.2854  -16.8107   21.8804 C   0  0  0  0  0  0  0  0  0  0  0  0
   -1.5212  -19.0700   26.1866 H   0  0  0  0  0  0  0  0  0  0  0  0
    0.5728  -22.2536   29.3780 H   0  0  0  0  0  0  0  0  0  0  0  0
   -1.7877  -25.0858   26.4320 H   0  0  0  0  0  0  0  0  0  0  0  0
   -3.5768  -26.2803   26.6024 H   0  0  0  0  0  0  0  0  0  0  0  0
   -5.4531  -25.0468   27.8150 H   0  0  0  0  0  0  0  0  0  0  0  0
   -4.6552  -22.8495   27.9338 H   0  0  0  0  0  0  0  0  0  0  0  0
    1.4814  -19.3050   21.3387 H   0  0  0  0  0  0  0  0  0  0  0  0
    1.2488  -17.8575   21.4239 H   0  0  0  0  0  0  0  0  0  0  0  0
   -0.6495  -18.0141   19.3826 H   0  0  0  0  0  0  0  0  0  0  0  0
    0.8956  -17.8116   18.8437 H   0  0  0  0  0  0  0  0  0  0  0  0
    1.2042  -15.8717   20.7673 H   0  0  0  0  0  0  0  0  0  0  0  0
    2.6185  -15.2549   17.5370 H   0  0  0  0  0  0  0  0  0  0  0  0
    4.8159  -14.4621   18.0623 H   0  0  0  0  0  0  0  0  0  0  0  0
    3.1281  -13.5939   21.5697 H   0  0  0  0  0  0  0  0  0  0  0  0
   -1.5462  -15.5225   20.3628 H   0  0  0  0  0  0  0  0  0  0  0  0
   -1.6433  -17.0581   20.1856 H   0  0  0  0  0  0  0  0  0  0  0  0
   -0.5115  -15.7926   22.2964 H   0  0  0  0  0  0  0  0  0  0  0  0
    0.4975  -16.1866   21.9806 H   0  0  0  0  0  0  0  0  0  0  0  0
  1  2  2  0
  2  3  1  0
  3  4  1  0
  4  5  2  0
  5  6  1  0
  6  7  1  0
  7  8  2  0
  8  9  1  0
  9 10  2  0
 10 11  1  0
 11 12  2  0
  2 13  1  0
 13 14  1  0
 14 15  1  0
 15 16  1  0
 16 17  1  0
 17 18  2  0
 18 19  1  0
 19 20  2  0
 20 21  1  0
 16 22  1  0
 22 23  1  0
 12  4  1  0
 23 13  1  0
 11  6  1  0
 21 17  1  0
  3 24  1  0
  5 25  1  0
  7 26  1  0
  8 27  1  0
  9 28  1  0
 10 29  1  0
 14 30  1  0
 14 31  1  0
 15 32  1  0
 15 33  1  0
 16 34  1  0
 18 35  1  0
 19 36  1  0
 21 37  1  0
 22 38  1  0
 22 39  1  0
 23 40  1  0
 23 41  1  0
M  END
>  <Energy>  (1360) 
2139.4784971695599

>  <compound_id>  (1360) 
36019

>  <target_id>  (1360) 
1

>  <reference_id>  (1360) 
45

>  <inspiration_ids>  (1360) 
[45, 122]

>  <energy_score>  (1360) 
2160.227304933638

>  <distance_score>  (1360) 
10.889325474234886

>  <path>  (1360) 
/opt/xchem-fragalysis-2/maxwin/BulkDock/SCRATCH/511013/C36019-P45/C36019-P45.minimised.mol

>  <scratch_subdir>  (1360) 
/opt/xchem-fragalysis-2/maxwin/BulkDock/SCRATCH/511013/C36019-P45

>  <fragmenstein_runtime>  (1360) 
19.31104564666748

>  <fragmenstein_outcome>  (1360) 
too moved

>  <fragmenstein_mode>  (1360) 
expansion

>  <fragmenstein_error>  (1360) 


$$$$
C36019-P122
     RDKit          3D

 41 44  0  0  0  0  0  0  0  0999 V2000
   -0.7163  -19.0087   23.6387 O   0  0  0  0  0  0  0  0  0  0  0  0
   -1.1992  -18.9953   22.6438 C   0  0  0  0  0  0  0  0  0  0  0  0
   -2.7317  -20.3580   22.7224 N   0  0  0  0  0  0  0  0  0  0  0  0
   -3.6324  -21.3567   24.2784 C   0  0  0  0  0  0  0  0  0  0  0  0
   -5.2361  -22.5226   24.2793 C   0  0  0  0  0  0  0  0  0  0  0  0
   -5.7942  -23.7267   25.4106 N   0  0  0  0  0  0  0  0  0  0  0  0
   -6.2419  -25.3828   25.2631 C   0  0  0  0  0  0  0  0  0  0  0  0
   -6.7708  -26.8510   26.7138 C   0  0  0  0  0  0  0  0  0  0  0  0
   -7.0573  -25.5707   28.3460 C   0  0  0  0  0  0  0  0  0  0  0  0
   -6.2606  -23.8850   28.0837 C   0  0  0  0  0  0  0  0  0  0  0  0
   -5.5734  -22.8912   26.6395 C   0  0  0  0  0  0  0  0  0  0  0  0
   -4.7843  -21.4547   25.8873 N   0  0  0  0  0  0  0  0  0  0  0  0
   -0.6070  -17.1706   21.6132 N   0  0  0  0  0  0  0  0  0  0  0  0
    0.4744  -15.4838   22.1309 C   0  0  0  0  0  0  0  0  0  0  0  0
    2.1727  -14.4640   23.1475 C   0  0  0  0  0  0  0  0  0  0  0  0
    3.0426  -12.9274   21.9378 C   0  0  0  0  0  0  0  0  0  0  0  0
    3.1593  -10.7643   22.5968 C   0  0  0  0  0  0  0  0  0  0  0  0
    2.8747   -8.8130   22.8415 C   0  0  0  0  0  0  0  0  0  0  0  0
    1.7645   -7.8565   22.6627 C   0  0  0  0  0  0  0  0  0  0  0  0
    1.0363   -8.5333   21.8460 N   0  0  0  0  0  0  0  0  0  0  0  0
    1.9388   -9.5789   21.5335 N   0  0  0  0  0  0  0  0  0  0  0  0
    2.1093  -14.6910   20.7429 C   0  0  0  0  0  0  0  0  0  0  0  0
    0.8513  -16.6143   20.4629 C   0  0  0  0  0  0  0  0  0  0  0  0
   -3.1408  -20.4513   21.7637 H   0  0  0  0  0  0  0  0  0  0  0  0
   -5.7239  -22.9663   23.3701 H   0  0  0  0  0  0  0  0  0  0  0  0
   -6.6072  -26.8057   26.1765 H   0  0  0  0  0  0  0  0  0  0  0  0
   -7.8467  -27.4390   26.8054 H   0  0  0  0  0  0  0  0  0  0  0  0
   -8.1261  -25.6451   28.7100 H   0  0  0  0  0  0  0  0  0  0  0  0
   -6.9766  -23.0349   28.2013 H   0  0  0  0  0  0  0  0  0  0  0  0
    0.0234  -14.4489   22.3085 H   0  0  0  0  0  0  0  0  0  0  0  0
   -0.6205  -15.1743   22.3353 H   0  0  0  0  0  0  0  0  0  0  0  0
    1.9212  -13.6768   23.9215 H   0  0  0  0  0  0  0  0  0  0  0  0
    3.1030  -15.0297   23.3572 H   0  0  0  0  0  0  0  0  0  0  0  0
    3.9413  -12.9809   21.3007 H   0  0  0  0  0  0  0  0  0  0  0  0
    3.8068   -8.1565   22.9670 H   0  0  0  0  0  0  0  0  0  0  0  0
    1.6207   -6.8199   22.9305 H   0  0  0  0  0  0  0  0  0  0  0  0
    1.5110  -10.0574   20.7519 H   0  0  0  0  0  0  0  0  0  0  0  0
    2.4793  -14.5683   19.7015 H   0  0  0  0  0  0  0  0  0  0  0  0
    2.8897  -14.9823   21.3027 H   0  0  0  0  0  0  0  0  0  0  0  0
    0.7384  -17.1004   19.4923 H   0  0  0  0  0  0  0  0  0  0  0  0
    0.0343  -16.0709   20.0164 H   0  0  0  0  0  0  0  0  0  0  0  0
  1  2  2  0
  2  3  1  0
  3  4  1  0
  4  5  2  0
  5  6  1  0
  6  7  1  0
  7  8  2  0
  8  9  1  0
  9 10  2  0
 10 11  1  0
 11 12  2  0
  2 13  1  0
 13 14  1  0
 14 15  1  0
 15 16  1  0
 16 17  1  0
 17 18  2  0
 18 19  1  0
 19 20  2  0
 20 21  1  0
 16 22  1  0
 22 23  1  0
 12  4  1  0
 23 13  1  0
 11  6  1  0
 21 17  1  0
  3 24  1  0
  5 25  1  0
  7 26  1  0
  8 27  1  0
  9 28  1  0
 10 29  1  0
 14 30  1  0
 14 31  1  0
 15 32  1  0
 15 33  1  0
 16 34  1  0
 18 35  1  0
 19 36  1  0
 21 37  1  0
 22 38  1  0
 22 39  1  0
 23 40  1  0
 23 41  1  0
M  END
>  <Energy>  (1361) 
4113.1825781045163

>  <compound_id>  (1361) 
36019

>  <target_id>  (1361) 
1

>  <reference_id>  (1361) 
122

>  <inspiration_ids>  (1361) 
[45, 122]

>  <energy_score>  (1361) 
4133.931385868568

>  <distance_score>  (1361) 
9.379177878289038

>  <path>  (1361) 
/opt/xchem-fragalysis-2/maxwin/BulkDock/SCRATCH/511013/C36019-P122/C36019-P122.minimised.mol

>  <scratch_subdir>  (1361) 
/opt/xchem-fragalysis-2/maxwin/BulkDock/SCRATCH/511013/C36019-P122

>  <fragmenstein_runtime>  (1361) 
20.352373123168945

>  <fragmenstein_outcome>  (1361) 
too moved

>  <fragmenstein_mode>  (1361) 
expansion

>  <fragmenstein_error>  (1361) 


$$$$
C36021-P45
     RDKit          3D

 39 42  0  0  0  0  0  0  0  0999 V2000
   -3.8872  -16.3241   14.8109 O   0  0  0  0  0  0  0  0  0  0  0  0
   -3.7614  -16.0631   15.9896 C   0  0  0  0  0  0  0  0  0  0  0  0
   -4.7204  -16.7805   16.9426 C   0  0  0  0  0  0  0  0  0  0  0  0
   -6.0376  -16.4008   17.1763 C   0  0  0  0  0  0  0  0  0  0  0  0
   -6.6788  -17.1692   18.1156 N   0  0  0  0  0  0  0  0  0  0  0  0
   -5.8369  -18.1343   18.4013 C   0  0  0  0  0  0  0  0  0  0  0  0
   -5.9978  -19.2495   19.2809 C   0  0  0  0  0  0  0  0  0  0  0  0
   -5.0687  -20.2193   19.3135 C   0  0  0  0  0  0  0  0  0  0  0  0
   -3.8871  -20.1400   18.4775 C   0  0  0  0  0  0  0  0  0  0  0  0
   -3.7040  -19.0659   17.6817 C   0  0  0  0  0  0  0  0  0  0  0  0
   -4.6481  -18.0216   17.6486 N   0  0  0  0  0  0  0  0  0  0  0  0
   -2.6777  -15.1619   16.7293 N   0  0  0  0  0  0  0  0  0  0  0  0
   -3.1038  -13.9050   16.8101 C   0  0  0  0  0  0  0  0  0  0  0  0
   -2.2356  -12.8554   17.5957 C   0  0  0  0  0  0  0  0  0  0  0  0
   -0.7403  -13.2540   17.6533 C   0  0  0  0  0  0  0  0  0  0  0  0
    0.6733  -13.9916   16.5681 C   0  0  0  0  0  0  0  0  0  0  0  0
    1.6804  -12.9765   15.0330 C   0  0  0  0  0  0  0  0  0  0  0  0
    3.0166  -12.2820   14.4801 C   0  0  0  0  0  0  0  0  0  0  0  0
    2.9111  -11.9295   13.1162 C   0  0  0  0  0  0  0  0  0  0  0  0
    1.7401  -12.2857   12.6246 N   0  0  0  0  0  0  0  0  0  0  0  0
    1.0119  -12.7380   13.6640 N   0  0  0  0  0  0  0  0  0  0  0  0
   -1.3042  -14.3916   16.1304 C   0  0  0  0  0  0  0  0  0  0  0  0
   -6.5401  -15.5512   16.7310 H   0  0  0  0  0  0  0  0  0  0  0  0
   -6.8781  -19.2894   19.9120 H   0  0  0  0  0  0  0  0  0  0  0  0
   -5.1840  -21.0648   19.9820 H   0  0  0  0  0  0  0  0  0  0  0  0
   -3.1718  -20.9556   18.5033 H   0  0  0  0  0  0  0  0  0  0  0  0
   -2.8538  -19.0014   17.0184 H   0  0  0  0  0  0  0  0  0  0  0  0
   -4.2008  -13.9555   16.9010 H   0  0  0  0  0  0  0  0  0  0  0  0
   -3.3232  -13.9590   15.7858 H   0  0  0  0  0  0  0  0  0  0  0  0
   -2.4220  -11.7882   17.4681 H   0  0  0  0  0  0  0  0  0  0  0  0
   -2.4923  -12.7438   18.6458 H   0  0  0  0  0  0  0  0  0  0  0  0
   -1.1003  -14.1211   18.2162 H   0  0  0  0  0  0  0  0  0  0  0  0
   -0.4839  -12.4293   18.2481 H   0  0  0  0  0  0  0  0  0  0  0  0
    1.3619  -14.3643   17.3261 H   0  0  0  0  0  0  0  0  0  0  0  0
    3.7911  -11.8778   15.1259 H   0  0  0  0  0  0  0  0  0  0  0  0
    3.6267  -11.4067   12.4962 H   0  0  0  0  0  0  0  0  0  0  0  0
    0.0473  -13.0100   13.5258 H   0  0  0  0  0  0  0  0  0  0  0  0
   -1.4952  -14.3729   15.0673 H   0  0  0  0  0  0  0  0  0  0  0  0
   -1.1510  -15.3444   16.2488 H   0  0  0  0  0  0  0  0  0  0  0  0
  1  2  2  0
  2  3  1  0
  3  4  2  0
  4  5  1  0
  5  6  2  0
  6  7  1  0
  7  8  2  0
  8  9  1  0
  9 10  2  0
 10 11  1  0
  2 12  1  0
 12 13  1  0
 13 14  1  0
 14 15  1  0
 15 16  1  0
 16 17  1  0
 17 18  2  0
 18 19  1  0
 19 20  2  0
 20 21  1  0
 16 22  1  0
 11  3  1  0
 22 12  1  0
 11  6  1  0
 21 17  1  0
  4 23  1  0
  7 24  1  0
  8 25  1  0
  9 26  1  0
 10 27  1  0
 13 28  1  0
 13 29  1  0
 14 30  1  0
 14 31  1  0
 15 32  1  0
 15 33  1  0
 16 34  1  0
 18 35  1  0
 19 36  1  0
 21 37  1  0
 22 38  1  0
 22 39  1  0
M  END
>  <Energy>  (1362) 
567.96674197271693

>  <compound_id>  (1362) 
36021

>  <target_id>  (1362) 
1

>  <reference_id>  (1362) 
45

>  <inspiration_ids>  (1362) 
[45, 122]

>  <energy_score>  (1362) 
516.3122507642154

>  <distance_score>  (1362) 
13.340275631461415

>  <path>  (1362) 
/opt/xchem-fragalysis-2/maxwin/BulkDock/SCRATCH/511013/C36021-P45/C36021-P45.minimised.mol

>  <scratch_subdir>  (1362) 
/opt/xchem-fragalysis-2/maxwin/BulkDock/SCRATCH/511013/C36021-P45

>  <fragmenstein_runtime>  (1362) 
28.828906536102295

>  <fragmenstein_outcome>  (1362) 
too moved

>  <fragmenstein_mode>  (1362) 
expansion

>  <fragmenstein_error>  (1362) 


$$$$
C36021-P122
     RDKit          3D

 39 42  0  0  0  0  0  0  0  0999 V2000
   -0.6140  -17.4816   20.4852 O   0  0  0  0  0  0  0  0  0  0  0  0
   -0.3388  -17.2103   21.6577 C   0  0  0  0  0  0  0  0  0  0  0  0
   -1.2116  -18.9059   23.0250 C   0  0  0  0  0  0  0  0  0  0  0  0
   -1.8430  -20.4035   23.1697 C   0  0  0  0  0  0  0  0  0  0  0  0
   -3.3123  -20.7224   23.8404 N   0  0  0  0  0  0  0  0  0  0  0  0
   -3.9706  -20.2690   24.9721 C   0  0  0  0  0  0  0  0  0  0  0  0
   -4.5474  -21.6686   26.3329 C   0  0  0  0  0  0  0  0  0  0  0  0
   -3.4762  -23.0006   27.2250 C   0  0  0  0  0  0  0  0  0  0  0  0
   -1.6007  -21.7905   27.7462 C   0  0  0  0  0  0  0  0  0  0  0  0
   -1.6682  -20.1192   26.8227 C   0  0  0  0  0  0  0  0  0  0  0  0
   -2.1169  -19.5820   24.9199 N   0  0  0  0  0  0  0  0  0  0  0  0
    0.9116  -15.3590   21.6534 N   0  0  0  0  0  0  0  0  0  0  0  0
   -0.2748  -13.7737   21.8596 C   0  0  0  0  0  0  0  0  0  0  0  0
   -0.9981  -12.0864   20.6046 C   0  0  0  0  0  0  0  0  0  0  0  0
    0.9244  -10.9980   20.5039 C   0  0  0  0  0  0  0  0  0  0  0  0
    2.5586  -11.8150   18.8198 C   0  0  0  0  0  0  0  0  0  0  0  0
    2.4879   -9.9265   18.0764 C   0  0  0  0  0  0  0  0  0  0  0  0
    1.7572   -8.7079   18.1606 C   0  0  0  0  0  0  0  0  0  0  0  0
    2.4421   -7.7051   17.4151 C   0  0  0  0  0  0  0  0  0  0  0  0
    3.5977   -8.1387   16.9287 N   0  0  0  0  0  0  0  0  0  0  0  0
    3.6121   -9.4366   17.3077 N   0  0  0  0  0  0  0  0  0  0  0  0
    1.9715  -13.9846   20.0031 C   0  0  0  0  0  0  0  0  0  0  0  0
   -1.2228  -21.3015   23.1878 H   0  0  0  0  0  0  0  0  0  0  0  0
   -5.5229  -22.1438   26.3881 H   0  0  0  0  0  0  0  0  0  0  0  0
   -3.9553  -23.7444   27.8923 H   0  0  0  0  0  0  0  0  0  0  0  0
   -1.0358  -21.9368   28.6919 H   0  0  0  0  0  0  0  0  0  0  0  0
   -0.9324  -19.3825   27.1788 H   0  0  0  0  0  0  0  0  0  0  0  0
   -1.0523  -14.6702   22.0447 H   0  0  0  0  0  0  0  0  0  0  0  0
   -0.1850  -13.6280   22.9507 H   0  0  0  0  0  0  0  0  0  0  0  0
   -1.4712  -12.1781   19.6171 H   0  0  0  0  0  0  0  0  0  0  0  0
   -1.5849  -11.3929   21.2199 H   0  0  0  0  0  0  0  0  0  0  0  0
    0.9180   -9.8065   20.6397 H   0  0  0  0  0  0  0  0  0  0  0  0
    0.9104  -10.9625   21.6625 H   0  0  0  0  0  0  0  0  0  0  0  0
    3.6362  -12.3350   18.6060 H   0  0  0  0  0  0  0  0  0  0  0  0
    0.8410   -8.5046   18.6937 H   0  0  0  0  0  0  0  0  0  0  0  0
    2.1512   -6.6749   17.2606 H   0  0  0  0  0  0  0  0  0  0  0  0
    4.3450  -10.0458   16.9718 H   0  0  0  0  0  0  0  0  0  0  0  0
    2.8642  -13.8821   20.6934 H   0  0  0  0  0  0  0  0  0  0  0  0
    2.4118  -14.7166   19.2436 H   0  0  0  0  0  0  0  0  0  0  0  0
  1  2  2  0
  2  3  1  0
  3  4  2  0
  4  5  1  0
  5  6  2  0
  6  7  1  0
  7  8  2  0
  8  9  1  0
  9 10  2  0
 10 11  1  0
  2 12  1  0
 12 13  1  0
 13 14  1  0
 14 15  1  0
 15 16  1  0
 16 17  1  0
 17 18  2  0
 18 19  1  0
 19 20  2  0
 20 21  1  0
 16 22  1  0
 11  3  1  0
 22 12  1  0
 11  6  1  0
 21 17  1  0
  4 23  1  0
  7 24  1  0
  8 25  1  0
  9 26  1  0
 10 27  1  0
 13 28  1  0
 13 29  1  0
 14 30  1  0
 14 31  1  0
 15 32  1  0
 15 33  1  0
 16 34  1  0
 18 35  1  0
 19 36  1  0
 21 37  1  0
 22 38  1  0
 22 39  1  0
M  END
>  <Energy>  (1363) 
4215.4086922951074

>  <compound_id>  (1363) 
36021

>  <target_id>  (1363) 
1

>  <reference_id>  (1363) 
122

>  <inspiration_ids>  (1363) 
[45, 122]

>  <energy_score>  (1363) 
4163.754201086611

>  <distance_score>  (1363) 
9.693359919919043

>  <path>  (1363) 
/opt/xchem-fragalysis-2/maxwin/BulkDock/SCRATCH/511013/C36021-P122/C36021-P122.minimised.mol

>  <scratch_subdir>  (1363) 
/opt/xchem-fragalysis-2/maxwin/BulkDock/SCRATCH/511013/C36021-P122

>  <fragmenstein_runtime>  (1363) 
19.101031064987183

>  <fragmenstein_outcome>  (1363) 
too moved

>  <fragmenstein_mode>  (1363) 
expansion

>  <fragmenstein_error>  (1363) 


$$$$
C36001-P45
     RDKit          3D

 44 47  0  0  0  0  0  0  0  0999 V2000
   -2.1892  -14.6109   21.8486 O   0  0  0  0  0  0  0  0  0  0  0  0
   -1.9877  -14.6338   20.7618 C   0  0  0  0  0  0  0  0  0  0  0  0
   -1.6637  -16.2384   20.0826 N   0  0  0  0  0  0  0  0  0  0  0  0
   -1.4503  -18.0152   20.9308 C   0  0  0  0  0  0  0  0  0  0  0  0
   -1.3877  -19.2383   22.5989 C   0  0  0  0  0  0  0  0  0  0  0  0
   -0.8982  -20.3603   23.0877 C   0  0  0  0  0  0  0  0  0  0  0  0
   -0.1720  -21.4665   23.3396 C   0  0  0  0  0  0  0  0  0  0  0  0
   -1.0987  -21.8582   24.1284 C   0  0  0  0  0  0  0  0  0  0  0  0
   -2.5176  -21.1137   24.2819 N   0  0  0  0  0  0  0  0  0  0  0  0
   -4.1896  -21.2313   24.8784 C   0  0  0  0  0  0  0  0  0  0  0  0
   -4.6198  -20.1777   25.3448 C   0  0  0  0  0  0  0  0  0  0  0  0
   -3.9391  -19.7616   24.3256 N   0  0  0  0  0  0  0  0  0  0  0  0
   -2.7566  -20.2554   23.4063 C   0  0  0  0  0  0  0  0  0  0  0  0
   -1.8679  -12.9260   19.9607 N   0  0  0  0  0  0  0  0  0  0  0  0
   -3.1158  -12.1388   19.3227 C   0  0  0  0  0  0  0  0  0  0  0  0
   -3.1687  -10.7788   18.5460 C   0  0  0  0  0  0  0  0  0  0  0  0
   -3.5098   -9.7024   19.5184 C   0  0  0  0  0  0  0  0  0  0  0  0
   -2.4565   -9.8622   20.5779 C   0  0  0  0  0  0  0  0  0  0  0  0
   -1.3994   -8.6902   20.4970 C   0  0  0  0  0  0  0  0  0  0  0  0
   -0.8524   -7.8508   21.4568 C   0  0  0  0  0  0  0  0  0  0  0  0
   -0.0624   -6.9077   20.7599 C   0  0  0  0  0  0  0  0  0  0  0  0
   -0.0587   -7.1288   19.4473 N   0  0  0  0  0  0  0  0  0  0  0  0
   -0.8298   -8.2261   19.3239 N   0  0  0  0  0  0  0  0  0  0  0  0
   -1.8873  -11.4172   20.6211 C   0  0  0  0  0  0  0  0  0  0  0  0
   -1.5833  -16.1460   19.0999 H   0  0  0  0  0  0  0  0  0  0  0  0
   -0.3620  -17.9320   20.8444 H   0  0  0  0  0  0  0  0  0  0  0  0
   -1.8854  -18.6137   20.1215 H   0  0  0  0  0  0  0  0  0  0  0  0
   -1.5156  -21.2083   22.5479 H   0  0  0  0  0  0  0  0  0  0  0  0
    0.4275  -22.2395   22.9510 H   0  0  0  0  0  0  0  0  0  0  0  0
   -0.6203  -22.6561   24.6959 H   0  0  0  0  0  0  0  0  0  0  0  0
   -4.9721  -21.9975   24.7103 H   0  0  0  0  0  0  0  0  0  0  0  0
   -5.4483  -19.7695   25.8914 H   0  0  0  0  0  0  0  0  0  0  0  0
   -2.9600  -12.6066   18.3409 H   0  0  0  0  0  0  0  0  0  0  0  0
   -4.0460  -12.2545   19.8744 H   0  0  0  0  0  0  0  0  0  0  0  0
   -3.9506  -10.8230   17.7770 H   0  0  0  0  0  0  0  0  0  0  0  0
   -2.2217  -10.5707   18.0425 H   0  0  0  0  0  0  0  0  0  0  0  0
   -3.5359   -8.7150   19.0470 H   0  0  0  0  0  0  0  0  0  0  0  0
   -4.5060   -9.8829   19.9411 H   0  0  0  0  0  0  0  0  0  0  0  0
   -2.9586   -9.6980   21.5409 H   0  0  0  0  0  0  0  0  0  0  0  0
   -1.0374   -7.8783   22.5200 H   0  0  0  0  0  0  0  0  0  0  0  0
    0.4922   -6.0679   21.1560 H   0  0  0  0  0  0  0  0  0  0  0  0
   -0.8798   -8.6664   18.4163 H   0  0  0  0  0  0  0  0  0  0  0  0
   -1.2392  -11.4155   21.4645 H   0  0  0  0  0  0  0  0  0  0  0  0
   -1.1579  -11.1865   19.8887 H   0  0  0  0  0  0  0  0  0  0  0  0
  1  2  2  0
  2  3  1  0
  3  4  1  0
  4  5  1  0
  5  6  2  0
  6  7  1  0
  7  8  2  0
  8  9  1  0
  9 10  1  0
 10 11  2  0
 11 12  1  0
 12 13  2  0
  2 14  1  0
 14 15  1  0
 15 16  1  0
 16 17  1  0
 17 18  1  0
 18 19  1  0
 19 20  2  0
 20 21  1  0
 21 22  2  0
 22 23  1  0
 18 24  1  0
 13  5  1  0
 24 14  1  0
 13  9  1  0
 23 19  1  0
  3 25  1  0
  4 26  1  0
  4 27  1  0
  6 28  1  0
  7 29  1  0
  8 30  1  0
 10 31  1  0
 11 32  1  0
 15 33  1  0
 15 34  1  0
 16 35  1  0
 16 36  1  0
 17 37  1  0
 17 38  1  0
 18 39  1  0
 20 40  1  0
 21 41  1  0
 23 42  1  0
 24 43  1  0
 24 44  1  0
M  END
>  <Energy>  (1364) 
1126.6294356947321

>  <compound_id>  (1364) 
36001

>  <target_id>  (1364) 
1

>  <reference_id>  (1364) 
45

>  <inspiration_ids>  (1364) 
[45, 122]

>  <energy_score>  (1364) 
1129.692034128388

>  <distance_score>  (1364) 
11.67378387470803

>  <path>  (1364) 
/opt/xchem-fragalysis-2/maxwin/BulkDock/SCRATCH/511013/C36001-P45/C36001-P45.minimised.mol

>  <scratch_subdir>  (1364) 
/opt/xchem-fragalysis-2/maxwin/BulkDock/SCRATCH/511013/C36001-P45

>  <fragmenstein_runtime>  (1364) 
33.30696964263916

>  <fragmenstein_outcome>  (1364) 
too moved

>  <fragmenstein_mode>  (1364) 
expansion

>  <fragmenstein_error>  (1364) 


$$$$
C36001-P122
     RDKit          3D

 44 47  0  0  0  0  0  0  0  0999 V2000
   -5.4342  -19.1815   26.9835 O   0  0  0  0  0  0  0  0  0  0  0  0
   -5.0074  -18.1241   27.5185 C   0  0  0  0  0  0  0  0  0  0  0  0
   -5.5669  -17.2178   29.0920 N   0  0  0  0  0  0  0  0  0  0  0  0
   -6.7027  -17.4786   29.9827 C   0  0  0  0  0  0  0  0  0  0  0  0
   -7.0373  -16.6478   31.2074 C   0  0  0  0  0  0  0  0  0  0  0  0
   -8.1239  -15.8439   31.0619 C   0  0  0  0  0  0  0  0  0  0  0  0
   -9.1275  -15.7226   32.1095 C   0  0  0  0  0  0  0  0  0  0  0  0
   -9.0072  -16.4632   33.2227 C   0  0  0  0  0  0  0  0  0  0  0  0
   -7.8375  -17.1768   33.4302 N   0  0  0  0  0  0  0  0  0  0  0  0
   -7.4698  -17.9639   34.4900 C   0  0  0  0  0  0  0  0  0  0  0  0
   -6.1564  -18.2885   34.2586 C   0  0  0  0  0  0  0  0  0  0  0  0
   -5.7174  -17.7193   33.0972 N   0  0  0  0  0  0  0  0  0  0  0  0
   -6.7722  -17.1498   32.5460 C   0  0  0  0  0  0  0  0  0  0  0  0
   -3.7686  -16.8622   26.9119 N   0  0  0  0  0  0  0  0  0  0  0  0
   -2.4042  -16.9680   27.1912 C   0  0  0  0  0  0  0  0  0  0  0  0
   -2.0363  -15.1303   27.1670 C   0  0  0  0  0  0  0  0  0  0  0  0
   -2.0408  -14.2564   25.3974 C   0  0  0  0  0  0  0  0  0  0  0  0
   -2.3685  -15.1618   23.5900 C   0  0  0  0  0  0  0  0  0  0  0  0
   -2.0227  -14.4683   21.4675 C   0  0  0  0  0  0  0  0  0  0  0  0
   -1.6333  -12.6450   20.8994 C   0  0  0  0  0  0  0  0  0  0  0  0
   -1.8110  -11.5723   19.7727 C   0  0  0  0  0  0  0  0  0  0  0  0
   -2.1703  -12.5766   19.0907 N   0  0  0  0  0  0  0  0  0  0  0  0
   -2.5964  -12.9555   20.5771 N   0  0  0  0  0  0  0  0  0  0  0  0
   -2.8046  -16.6506   25.0898 C   0  0  0  0  0  0  0  0  0  0  0  0
   -5.0064  -16.3790   29.2454 H   0  0  0  0  0  0  0  0  0  0  0  0
   -6.8593  -18.4651   30.2863 H   0  0  0  0  0  0  0  0  0  0  0  0
   -7.5269  -17.2942   29.2736 H   0  0  0  0  0  0  0  0  0  0  0  0
   -8.4523  -15.5223   30.0751 H   0  0  0  0  0  0  0  0  0  0  0  0
  -10.0071  -15.1152   31.9226 H   0  0  0  0  0  0  0  0  0  0  0  0
   -9.7505  -16.4854   34.0089 H   0  0  0  0  0  0  0  0  0  0  0  0
   -8.1444  -18.2000   35.2982 H   0  0  0  0  0  0  0  0  0  0  0  0
   -5.4992  -18.8877   34.8735 H   0  0  0  0  0  0  0  0  0  0  0  0
   -1.6813  -17.3574   27.8098 H   0  0  0  0  0  0  0  0  0  0  0  0
   -1.9905  -17.7164   26.4790 H   0  0  0  0  0  0  0  0  0  0  0  0
   -2.7007  -14.6173   27.8678 H   0  0  0  0  0  0  0  0  0  0  0  0
   -1.1509  -14.9700   27.7649 H   0  0  0  0  0  0  0  0  0  0  0  0
   -2.5524  -13.2815   25.5391 H   0  0  0  0  0  0  0  0  0  0  0  0
   -1.0907  -13.8315   25.2073 H   0  0  0  0  0  0  0  0  0  0  0  0
   -1.2823  -15.1666   23.6248 H   0  0  0  0  0  0  0  0  0  0  0  0
   -1.2757  -11.8755   21.6407 H   0  0  0  0  0  0  0  0  0  0  0  0
   -1.7074  -10.5116   19.6131 H   0  0  0  0  0  0  0  0  0  0  0  0
   -3.5992  -12.7010   20.6327 H   0  0  0  0  0  0  0  0  0  0  0  0
   -2.3737  -15.8977   25.4996 H   0  0  0  0  0  0  0  0  0  0  0  0
   -3.6774  -15.9863   24.8739 H   0  0  0  0  0  0  0  0  0  0  0  0
  1  2  2  0
  2  3  1  0
  3  4  1  0
  4  5  1  0
  5  6  2  0
  6  7  1  0
  7  8  2  0
  8  9  1  0
  9 10  1  0
 10 11  2  0
 11 12  1  0
 12 13  2  0
  2 14  1  0
 14 15  1  0
 15 16  1  0
 16 17  1  0
 17 18  1  0
 18 19  1  0
 19 20  2  0
 20 21  1  0
 21 22  2  0
 22 23  1  0
 18 24  1  0
 13  5  1  0
 24 14  1  0
 13  9  1  0
 23 19  1  0
  3 25  1  0
  4 26  1  0
  4 27  1  0
  6 28  1  0
  7 29  1  0
  8 30  1  0
 10 31  1  0
 11 32  1  0
 15 33  1  0
 15 34  1  0
 16 35  1  0
 16 36  1  0
 17 37  1  0
 17 38  1  0
 18 39  1  0
 20 40  1  0
 21 41  1  0
 23 42  1  0
 24 43  1  0
 24 44  1  0
M  END
>  <Energy>  (1365) 
1394.8549513496439

>  <compound_id>  (1365) 
36001

>  <target_id>  (1365) 
1

>  <reference_id>  (1365) 
122

>  <inspiration_ids>  (1365) 
[45, 122]

>  <energy_score>  (1365) 
1397.9175497832916

>  <distance_score>  (1365) 
14.965620327840846

>  <path>  (1365) 
/opt/xchem-fragalysis-2/maxwin/BulkDock/SCRATCH/511013/C36001-P122/C36001-P122.minimised.mol

>  <scratch_subdir>  (1365) 
/opt/xchem-fragalysis-2/maxwin/BulkDock/SCRATCH/511013/C36001-P122

>  <fragmenstein_runtime>  (1365) 
41.56668257713318

>  <fragmenstein_outcome>  (1365) 
too moved

>  <fragmenstein_mode>  (1365) 
expansion

>  <fragmenstein_error>  (1365) 


$$$$
C36018-P45
     RDKit          3D

 40 43  0  0  0  0  0  0  0  0999 V2000
   -4.7695  -19.4987   18.9560 C   0  0  0  0  0  0  0  0  0  0  0  0
   -4.0917  -18.2400   18.7121 C   0  0  0  0  0  0  0  0  0  0  0  0
   -2.8876  -17.9290   19.2290 C   0  0  0  0  0  0  0  0  0  0  0  0
   -2.1725  -18.8180   20.0209 N   0  0  0  0  0  0  0  0  0  0  0  0
   -1.0461  -18.3348   21.1756 C   0  0  0  0  0  0  0  0  0  0  0  0
   -0.0776  -16.7080   21.2820 C   0  0  0  0  0  0  0  0  0  0  0  0
    1.3633  -15.6735   20.6695 N   0  0  0  0  0  0  0  0  0  0  0  0
    0.9790  -16.0191   19.3415 C   0  0  0  0  0  0  0  0  0  0  0  0
    2.2792  -14.9568   18.2914 C   0  0  0  0  0  0  0  0  0  0  0  0
    3.6889  -14.0539   18.4976 C   0  0  0  0  0  0  0  0  0  0  0  0
    4.2347  -13.3834   19.7796 C   0  0  0  0  0  0  0  0  0  0  0  0
    5.6657  -12.3876   20.2366 C   0  0  0  0  0  0  0  0  0  0  0  0
    6.8141  -11.9224   20.9715 C   0  0  0  0  0  0  0  0  0  0  0  0
    7.6165  -10.9774   20.2743 C   0  0  0  0  0  0  0  0  0  0  0  0
    6.8658  -10.5840   19.2610 N   0  0  0  0  0  0  0  0  0  0  0  0
    5.8936  -11.5499   19.2449 N   0  0  0  0  0  0  0  0  0  0  0  0
    2.7254  -14.3021   20.7154 C   0  0  0  0  0  0  0  0  0  0  0  0
   -1.3492  -19.4091   22.4014 C   0  0  0  0  0  0  0  0  0  0  0  0
   -2.6386  -20.6311   21.8696 N   0  0  0  0  0  0  0  0  0  0  0  0
   -3.0250  -20.2512   20.4535 C   0  0  0  0  0  0  0  0  0  0  0  0
   -4.3003  -20.4420   19.7826 C   0  0  0  0  0  0  0  0  0  0  0  0
   -5.7336  -19.6372   18.4736 H   0  0  0  0  0  0  0  0  0  0  0  0
   -4.6436  -17.5031   18.1340 H   0  0  0  0  0  0  0  0  0  0  0  0
   -2.4705  -16.9371   19.1871 H   0  0  0  0  0  0  0  0  0  0  0  0
   -0.8635  -16.3533   20.6157 H   0  0  0  0  0  0  0  0  0  0  0  0
    0.5565  -17.5208   20.9936 H   0  0  0  0  0  0  0  0  0  0  0  0
   -0.0790  -15.6559   19.3419 H   0  0  0  0  0  0  0  0  0  0  0  0
    0.9679  -17.1442   19.1173 H   0  0  0  0  0  0  0  0  0  0  0  0
    2.6419  -15.5980   17.4925 H   0  0  0  0  0  0  0  0  0  0  0  0
    1.6080  -14.2765   17.7477 H   0  0  0  0  0  0  0  0  0  0  0  0
    4.4332  -14.6964   18.0337 H   0  0  0  0  0  0  0  0  0  0  0  0
    3.5755  -13.0848   18.0407 H   0  0  0  0  0  0  0  0  0  0  0  0
    5.1888  -13.9531   19.6000 H   0  0  0  0  0  0  0  0  0  0  0  0
    7.2189  -12.0338   21.9446 H   0  0  0  0  0  0  0  0  0  0  0  0
    8.5376  -10.4744   20.5371 H   0  0  0  0  0  0  0  0  0  0  0  0
    5.1003  -11.4746   18.6237 H   0  0  0  0  0  0  0  0  0  0  0  0
    3.2077  -13.4374   21.3536 H   0  0  0  0  0  0  0  0  0  0  0  0
    3.0936  -14.6623   21.7145 H   0  0  0  0  0  0  0  0  0  0  0  0
   -0.8881  -19.6904   23.3156 H   0  0  0  0  0  0  0  0  0  0  0  0
   -4.8989  -21.3213   19.9808 H   0  0  0  0  0  0  0  0  0  0  0  0
  1  2  1  0
  2  3  2  0
  3  4  1  0
  4  5  1  0
  5  6  1  0
  6  7  1  0
  7  8  1  0
  8  9  1  0
  9 10  1  0
 10 11  1  0
 11 12  1  0
 12 13  2  0
 13 14  1  0
 14 15  2  0
 15 16  1  0
 11 17  1  0
  5 18  2  0
 18 19  1  0
 19 20  2  0
 20 21  1  0
 21  1  2  0
 20  4  1  0
 17  7  1  0
 16 12  1  0
  1 22  1  0
  2 23  1  0
  3 24  1  0
  6 25  1  0
  6 26  1  0
  8 27  1  0
  8 28  1  0
  9 29  1  0
  9 30  1  0
 10 31  1  0
 10 32  1  0
 11 33  1  0
 13 34  1  0
 14 35  1  0
 16 36  1  0
 17 37  1  0
 17 38  1  0
 18 39  1  0
 21 40  1  0
M  END
>  <Energy>  (1366) 
889.31590251902514

>  <compound_id>  (1366) 
36018

>  <target_id>  (1366) 
1

>  <reference_id>  (1366) 
45

>  <inspiration_ids>  (1366) 
[45, 122]

>  <energy_score>  (1366) 
813.0998067184769

>  <distance_score>  (1366) 
11.56075020912816

>  <path>  (1366) 
/opt/xchem-fragalysis-2/maxwin/BulkDock/SCRATCH/511013/C36018-P45/C36018-P45.minimised.mol

>  <scratch_subdir>  (1366) 
/opt/xchem-fragalysis-2/maxwin/BulkDock/SCRATCH/511013/C36018-P45

>  <fragmenstein_runtime>  (1366) 
16.177342176437378

>  <fragmenstein_outcome>  (1366) 
too moved

>  <fragmenstein_mode>  (1366) 
expansion

>  <fragmenstein_error>  (1366) 


$$$$
C36018-P122
     RDKit          3D

 40 43  0  0  0  0  0  0  0  0999 V2000
    1.0742  -25.0496   20.2047 C   0  0  0  0  0  0  0  0  0  0  0  0
    1.6909  -25.2502   21.4420 C   0  0  0  0  0  0  0  0  0  0  0  0
    1.6691  -24.2388   22.3265 C   0  0  0  0  0  0  0  0  0  0  0  0
    0.9131  -22.5329   22.2329 N   0  0  0  0  0  0  0  0  0  0  0  0
    1.5496  -20.5730   22.5291 C   0  0  0  0  0  0  0  0  0  0  0  0
    3.1237  -19.0751   23.0878 C   0  0  0  0  0  0  0  0  0  0  0  0
    3.4980  -16.9599   23.4573 N   0  0  0  0  0  0  0  0  0  0  0  0
    4.6085  -15.6004   23.3222 C   0  0  0  0  0  0  0  0  0  0  0  0
    5.0513  -14.4533   21.4618 C   0  0  0  0  0  0  0  0  0  0  0  0
    3.7546  -13.2394   21.1409 C   0  0  0  0  0  0  0  0  0  0  0  0
    3.3853  -12.8762   22.6434 C   0  0  0  0  0  0  0  0  0  0  0  0
    4.5808  -11.3227   22.2183 C   0  0  0  0  0  0  0  0  0  0  0  0
    5.6887  -10.5970   23.0274 C   0  0  0  0  0  0  0  0  0  0  0  0
    7.0334  -10.8071   22.5501 C   0  0  0  0  0  0  0  0  0  0  0  0
    7.0607  -11.3886   21.3634 N   0  0  0  0  0  0  0  0  0  0  0  0
    5.7575  -11.6397   21.0077 N   0  0  0  0  0  0  0  0  0  0  0  0
    3.1132  -14.8913   23.3386 C   0  0  0  0  0  0  0  0  0  0  0  0
    0.0501  -21.1961   23.2041 C   0  0  0  0  0  0  0  0  0  0  0  0
   -0.4961  -22.3012   22.3556 N   0  0  0  0  0  0  0  0  0  0  0  0
    0.2493  -22.8663   21.0676 C   0  0  0  0  0  0  0  0  0  0  0  0
    0.4153  -23.9087   20.0468 C   0  0  0  0  0  0  0  0  0  0  0  0
    1.1316  -25.8030   19.4281 H   0  0  0  0  0  0  0  0  0  0  0  0
    2.1988  -26.1846   21.6537 H   0  0  0  0  0  0  0  0  0  0  0  0
    2.2460  -24.5094   23.2317 H   0  0  0  0  0  0  0  0  0  0  0  0
    3.2712  -19.3060   24.1510 H   0  0  0  0  0  0  0  0  0  0  0  0
    3.9119  -19.3116   22.4091 H   0  0  0  0  0  0  0  0  0  0  0  0
    4.7812  -15.1291   24.3904 H   0  0  0  0  0  0  0  0  0  0  0  0
    5.4705  -16.2414   23.8176 H   0  0  0  0  0  0  0  0  0  0  0  0
    3.6374  -14.5627   21.6840 H   0  0  0  0  0  0  0  0  0  0  0  0
    5.3087  -14.9950   22.8596 H   0  0  0  0  0  0  0  0  0  0  0  0
    4.1552  -12.6977   20.3174 H   0  0  0  0  0  0  0  0  0  0  0  0
    2.9317  -13.7535   20.6290 H   0  0  0  0  0  0  0  0  0  0  0  0
    2.6124  -12.2549   23.1009 H   0  0  0  0  0  0  0  0  0  0  0  0
    5.5296   -9.7939   23.7249 H   0  0  0  0  0  0  0  0  0  0  0  0
    7.9540  -10.4240   22.9733 H   0  0  0  0  0  0  0  0  0  0  0  0
    5.5749  -11.9868   20.0668 H   0  0  0  0  0  0  0  0  0  0  0  0
    2.0322  -14.7934   23.3751 H   0  0  0  0  0  0  0  0  0  0  0  0
    3.4292  -14.4144   24.3148 H   0  0  0  0  0  0  0  0  0  0  0  0
   -0.8077  -20.6105   23.4817 H   0  0  0  0  0  0  0  0  0  0  0  0
   -0.0822  -23.8385   19.0832 H   0  0  0  0  0  0  0  0  0  0  0  0
  1  2  1  0
  2  3  2  0
  3  4  1  0
  4  5  1  0
  5  6  1  0
  6  7  1  0
  7  8  1  0
  8  9  1  0
  9 10  1  0
 10 11  1  0
 11 12  1  0
 12 13  2  0
 13 14  1  0
 14 15  2  0
 15 16  1  0
 11 17  1  0
  5 18  2  0
 18 19  1  0
 19 20  2  0
 20 21  1  0
 21  1  2  0
 20  4  1  0
 17  7  1  0
 16 12  1  0
  1 22  1  0
  2 23  1  0
  3 24  1  0
  6 25  1  0
  6 26  1  0
  8 27  1  0
  8 28  1  0
  9 29  1  0
  9 30  1  0
 10 31  1  0
 10 32  1  0
 11 33  1  0
 13 34  1  0
 14 35  1  0
 16 36  1  0
 17 37  1  0
 17 38  1  0
 18 39  1  0
 21 40  1  0
M  END
>  <Energy>  (1367) 
2213.4258074593727

>  <compound_id>  (1367) 
36018

>  <target_id>  (1367) 
1

>  <reference_id>  (1367) 
122

>  <inspiration_ids>  (1367) 
[45, 122]

>  <energy_score>  (1367) 
2137.2097116588957

>  <distance_score>  (1367) 
11.449893279121397

>  <path>  (1367) 
/opt/xchem-fragalysis-2/maxwin/BulkDock/SCRATCH/511013/C36018-P122/C36018-P122.minimised.mol

>  <scratch_subdir>  (1367) 
/opt/xchem-fragalysis-2/maxwin/BulkDock/SCRATCH/511013/C36018-P122

>  <fragmenstein_runtime>  (1367) 
22.51522135734558

>  <fragmenstein_outcome>  (1367) 
too moved

>  <fragmenstein_mode>  (1367) 
expansion

>  <fragmenstein_error>  (1367) 


$$$$
C36011-P45
     RDKit          3D

 43 46  0  0  0  0  0  0  0  0999 V2000
    3.5345  -14.1709   27.0530 C   0  0  0  0  0  0  0  0  0  0  0  0
    2.0887  -13.4904   26.0803 C   0  0  0  0  0  0  0  0  0  0  0  0
    2.5393  -13.3286   24.1839 C   0  0  0  0  0  0  0  0  0  0  0  0
    2.1791  -12.0005   23.5831 C   0  0  0  0  0  0  0  0  0  0  0  0
    0.7707  -11.5062   22.7245 C   0  0  0  0  0  0  0  0  0  0  0  0
    2.4781  -14.5631   23.1185 N   0  0  0  0  0  0  0  0  0  0  0  0
    0.7875  -14.9600   22.3584 N   0  0  0  0  0  0  0  0  0  0  0  0
    0.3653  -16.3943   21.5045 C   0  0  0  0  0  0  0  0  0  0  0  0
   -0.1723  -18.2955   21.9649 C   0  0  0  0  0  0  0  0  0  0  0  0
    0.1373  -19.2706   23.2946 C   0  0  0  0  0  0  0  0  0  0  0  0
    0.7176  -21.0066   23.0239 C   0  0  0  0  0  0  0  0  0  0  0  0
   -0.1690  -21.8490   23.3941 C   0  0  0  0  0  0  0  0  0  0  0  0
   -1.1814  -20.9972   23.4088 N   0  0  0  0  0  0  0  0  0  0  0  0
   -2.0641  -20.7145   24.3192 C   0  0  0  0  0  0  0  0  0  0  0  0
   -3.1602  -20.6180   23.7862 C   0  0  0  0  0  0  0  0  0  0  0  0
   -2.5368  -20.5683   22.6248 N   0  0  0  0  0  0  0  0  0  0  0  0
   -1.3523  -19.5504   22.7623 C   0  0  0  0  0  0  0  0  0  0  0  0
    1.8262  -15.3977   20.7548 N   0  0  0  0  0  0  0  0  0  0  0  0
    3.0295  -14.3481   21.4056 C   0  0  0  0  0  0  0  0  0  0  0  0
    4.1997  -13.1959   20.5011 C   0  0  0  0  0  0  0  0  0  0  0  0
    4.7810  -13.3716   19.1495 C   0  0  0  0  0  0  0  0  0  0  0  0
    6.0011  -12.6777   19.0324 C   0  0  0  0  0  0  0  0  0  0  0  0
    6.2268  -11.9962   20.1420 N   0  0  0  0  0  0  0  0  0  0  0  0
    5.0621  -12.1818   20.8168 N   0  0  0  0  0  0  0  0  0  0  0  0
    3.2218  -14.9276   27.7808 H   0  0  0  0  0  0  0  0  0  0  0  0
    4.1042  -13.4907   27.6859 H   0  0  0  0  0  0  0  0  0  0  0  0
    4.2628  -14.6097   26.3489 H   0  0  0  0  0  0  0  0  0  0  0  0
    1.2944  -14.0834   26.4156 H   0  0  0  0  0  0  0  0  0  0  0  0
    1.6156  -12.5698   26.4715 H   0  0  0  0  0  0  0  0  0  0  0  0
    3.5959  -13.4310   24.2935 H   0  0  0  0  0  0  0  0  0  0  0  0
    3.0449  -11.7340   23.0009 H   0  0  0  0  0  0  0  0  0  0  0  0
    2.0023  -11.6518   24.5526 H   0  0  0  0  0  0  0  0  0  0  0  0
    0.1317  -10.6254   22.8950 H   0  0  0  0  0  0  0  0  0  0  0  0
    0.0854  -12.3336   22.7595 H   0  0  0  0  0  0  0  0  0  0  0  0
    0.8567  -10.9715   21.7704 H   0  0  0  0  0  0  0  0  0  0  0  0
    0.6688  -19.0538   24.2772 H   0  0  0  0  0  0  0  0  0  0  0  0
    1.6684  -21.1746   22.4898 H   0  0  0  0  0  0  0  0  0  0  0  0
    0.1406  -22.7978   23.7600 H   0  0  0  0  0  0  0  0  0  0  0  0
   -2.1067  -19.8601   25.0433 H   0  0  0  0  0  0  0  0  0  0  0  0
   -4.0401  -20.7155   24.4358 H   0  0  0  0  0  0  0  0  0  0  0  0
    4.4873  -14.1550   18.4652 H   0  0  0  0  0  0  0  0  0  0  0  0
    6.7248  -12.6934   18.2291 H   0  0  0  0  0  0  0  0  0  0  0  0
    4.8572  -11.4818   21.5106 H   0  0  0  0  0  0  0  0  0  0  0  0
  1  2  1  0
  2  3  1  0
  3  4  1  0
  4  5  1  0
  3  6  1  0
  6  7  1  0
  7  8  2  0
  8  9  1  0
  9 10  2  0
 10 11  1  0
 11 12  2  0
 12 13  1  0
 13 14  1  0
 14 15  2  0
 15 16  1  0
 16 17  2  0
  8 18  1  0
 18 19  2  0
 19 20  1  0
 20 21  2  0
 21 22  1  0
 22 23  2  0
 23 24  1  0
 19  6  1  0
 24 20  1  0
 17  9  1  0
 17 13  1  0
  1 25  1  0
  1 26  1  0
  1 27  1  0
  2 28  1  0
  2 29  1  0
  3 30  1  0
  4 31  1  0
  4 32  1  0
  5 33  1  0
  5 34  1  0
  5 35  1  0
 10 36  1  0
 11 37  1  0
 12 38  1  0
 14 39  1  0
 15 40  1  0
 21 41  1  0
 22 42  1  0
 24 43  1  0
M  END
>  <Energy>  (1368) 
1492.3992818004322

>  <compound_id>  (1368) 
36011

>  <target_id>  (1368) 
1

>  <reference_id>  (1368) 
45

>  <inspiration_ids>  (1368) 
[45, 122]

>  <energy_score>  (1368) 
1393.119862315679

>  <distance_score>  (1368) 
11.731750388082913

>  <path>  (1368) 
/opt/xchem-fragalysis-2/maxwin/BulkDock/SCRATCH/511013/C36011-P45/C36011-P45.minimised.mol

>  <scratch_subdir>  (1368) 
/opt/xchem-fragalysis-2/maxwin/BulkDock/SCRATCH/511013/C36011-P45

>  <fragmenstein_runtime>  (1368) 
15.98155665397644

>  <fragmenstein_outcome>  (1368) 
too moved

>  <fragmenstein_mode>  (1368) 
expansion

>  <fragmenstein_error>  (1368) 


$$$$
C36011-P122
     RDKit          3D

 43 46  0  0  0  0  0  0  0  0999 V2000
   -0.2860  -16.7647   11.6635 C   0  0  0  0  0  0  0  0  0  0  0  0
    0.3059  -17.8508   12.5493 C   0  0  0  0  0  0  0  0  0  0  0  0
    1.8300  -17.7040   12.7809 C   0  0  0  0  0  0  0  0  0  0  0  0
    2.6374  -17.9385   11.4827 C   0  0  0  0  0  0  0  0  0  0  0  0
    3.0994  -16.6377   10.8374 C   0  0  0  0  0  0  0  0  0  0  0  0
    2.3186  -18.5928   13.8451 N   0  0  0  0  0  0  0  0  0  0  0  0
    1.6406  -19.7249   14.1410 N   0  0  0  0  0  0  0  0  0  0  0  0
    2.3816  -20.3241   15.0978 C   0  0  0  0  0  0  0  0  0  0  0  0
    1.9030  -21.5916   15.7942 C   0  0  0  0  0  0  0  0  0  0  0  0
    0.7782  -22.2018   15.2902 C   0  0  0  0  0  0  0  0  0  0  0  0
    0.1015  -23.3696   15.8524 C   0  0  0  0  0  0  0  0  0  0  0  0
    0.5643  -23.8988   16.9887 C   0  0  0  0  0  0  0  0  0  0  0  0
    1.6830  -23.3204   17.5696 N   0  0  0  0  0  0  0  0  0  0  0  0
    2.2341  -23.6345   18.7837 C   0  0  0  0  0  0  0  0  0  0  0  0
    3.2852  -22.7695   18.9238 C   0  0  0  0  0  0  0  0  0  0  0  0
    3.4152  -21.9544   17.8247 N   0  0  0  0  0  0  0  0  0  0  0  0
    2.4082  -22.2305   17.0209 C   0  0  0  0  0  0  0  0  0  0  0  0
    3.5969  -19.6187   15.2799 N   0  0  0  0  0  0  0  0  0  0  0  0
    3.4976  -18.4917   14.5539 C   0  0  0  0  0  0  0  0  0  0  0  0
    4.4243  -17.3552   14.4955 C   0  0  0  0  0  0  0  0  0  0  0  0
    4.2170  -15.9869   14.6202 C   0  0  0  0  0  0  0  0  0  0  0  0
    5.4897  -15.3803   14.5564 C   0  0  0  0  0  0  0  0  0  0  0  0
    6.4521  -16.2808   14.3525 N   0  0  0  0  0  0  0  0  0  0  0  0
    5.7831  -17.4572   14.3108 N   0  0  0  0  0  0  0  0  0  0  0  0
   -0.0419  -15.7682   12.0445 H   0  0  0  0  0  0  0  0  0  0  0  0
    0.0761  -16.8466   10.6350 H   0  0  0  0  0  0  0  0  0  0  0  0
   -1.3766  -16.8576   11.6357 H   0  0  0  0  0  0  0  0  0  0  0  0
    0.0790  -18.8300   12.1087 H   0  0  0  0  0  0  0  0  0  0  0  0
   -0.2167  -17.8215   13.5118 H   0  0  0  0  0  0  0  0  0  0  0  0
    2.0003  -16.6900   13.1579 H   0  0  0  0  0  0  0  0  0  0  0  0
    2.0431  -18.5072   10.7574 H   0  0  0  0  0  0  0  0  0  0  0  0
    3.5315  -18.5445   11.6755 H   0  0  0  0  0  0  0  0  0  0  0  0
    3.6482  -16.8510    9.9146 H   0  0  0  0  0  0  0  0  0  0  0  0
    3.7686  -16.0858   11.5043 H   0  0  0  0  0  0  0  0  0  0  0  0
    2.2579  -15.9876   10.5851 H   0  0  0  0  0  0  0  0  0  0  0  0
    0.2991  -21.7976   14.3992 H   0  0  0  0  0  0  0  0  0  0  0  0
   -0.7736  -23.7620   15.3453 H   0  0  0  0  0  0  0  0  0  0  0  0
    0.1066  -24.7413   17.4905 H   0  0  0  0  0  0  0  0  0  0  0  0
    1.8381  -24.4052   19.4272 H   0  0  0  0  0  0  0  0  0  0  0  0
    3.9754  -22.6967   19.7491 H   0  0  0  0  0  0  0  0  0  0  0  0
    3.2714  -15.4916   14.7945 H   0  0  0  0  0  0  0  0  0  0  0  0
    5.7429  -14.3321   14.6514 H   0  0  0  0  0  0  0  0  0  0  0  0
    6.3146  -18.3082   14.1622 H   0  0  0  0  0  0  0  0  0  0  0  0
  1  2  1  0
  2  3  1  0
  3  4  1  0
  4  5  1  0
  3  6  1  0
  6  7  1  0
  7  8  2  0
  8  9  1  0
  9 10  2  0
 10 11  1  0
 11 12  2  0
 12 13  1  0
 13 14  1  0
 14 15  2  0
 15 16  1  0
 16 17  2  0
  8 18  1  0
 18 19  2  0
 19 20  1  0
 20 21  2  0
 21 22  1  0
 22 23  2  0
 23 24  1  0
 19  6  1  0
 24 20  1  0
 17  9  1  0
 17 13  1  0
  1 25  1  0
  1 26  1  0
  1 27  1  0
  2 28  1  0
  2 29  1  0
  3 30  1  0
  4 31  1  0
  4 32  1  0
  5 33  1  0
  5 34  1  0
  5 35  1  0
 10 36  1  0
 11 37  1  0
 12 38  1  0
 14 39  1  0
 15 40  1  0
 21 41  1  0
 22 42  1  0
 24 43  1  0
M  END
>  <Energy>  (1369) 
72.051535527176384

>  <compound_id>  (1369) 
36011

>  <target_id>  (1369) 
1

>  <reference_id>  (1369) 
122

>  <inspiration_ids>  (1369) 
[45, 122]

>  <energy_score>  (1369) 
-27.227883957562653

>  <distance_score>  (1369) 
15.090758666782577

>  <path>  (1369) 
/opt/xchem-fragalysis-2/maxwin/BulkDock/SCRATCH/511013/C36011-P122/C36011-P122.minimised.mol

>  <scratch_subdir>  (1369) 
/opt/xchem-fragalysis-2/maxwin/BulkDock/SCRATCH/511013/C36011-P122

>  <fragmenstein_runtime>  (1369) 
21.932015895843506

>  <fragmenstein_outcome>  (1369) 
too moved

>  <fragmenstein_mode>  (1369) 
expansion

>  <fragmenstein_error>  (1369) 


$$$$
C36007-P45
     RDKit          3D

 27 30  0  0  0  0  0  0  0  0999 V2000
    1.9799  -19.8913   21.4335 C   0  0  0  0  0  0  0  0  0  0  0  0
    0.8608  -18.6767   21.2717 C   0  0  0  0  0  0  0  0  0  0  0  0
   -0.3241  -18.1396   21.4006 C   0  0  0  0  0  0  0  0  0  0  0  0
    0.1763  -16.5619   20.6751 C   0  0  0  0  0  0  0  0  0  0  0  0
    0.7908  -15.6218   21.4130 N   0  0  0  0  0  0  0  0  0  0  0  0
    2.1805  -14.9787   20.6156 O   0  0  0  0  0  0  0  0  0  0  0  0
    2.2391  -15.1381   19.0363 C   0  0  0  0  0  0  0  0  0  0  0  0
    3.0497  -14.5006   17.9666 C   0  0  0  0  0  0  0  0  0  0  0  0
    4.2352  -13.7489   18.0181 C   0  0  0  0  0  0  0  0  0  0  0  0
    4.4632  -13.2376   16.7328 C   0  0  0  0  0  0  0  0  0  0  0  0
    3.5094  -13.6289   15.8929 N   0  0  0  0  0  0  0  0  0  0  0  0
    2.7350  -14.4577   16.6286 N   0  0  0  0  0  0  0  0  0  0  0  0
    0.9348  -16.1456   19.2910 N   0  0  0  0  0  0  0  0  0  0  0  0
   -0.6631  -19.1887   22.8228 C   0  0  0  0  0  0  0  0  0  0  0  0
   -1.7449  -19.8269   23.0348 N   0  0  0  0  0  0  0  0  0  0  0  0
   -1.6779  -20.9792   23.5843 C   0  0  0  0  0  0  0  0  0  0  0  0
   -0.4996  -21.6072   23.4792 C   0  0  0  0  0  0  0  0  0  0  0  0
    0.3313  -20.5238   23.3281 N   0  0  0  0  0  0  0  0  0  0  0  0
    1.6711  -20.8456   22.3532 C   0  0  0  0  0  0  0  0  0  0  0  0
    2.5605  -20.1128   20.5403 H   0  0  0  0  0  0  0  0  0  0  0  0
    1.3545  -17.8355   21.3599 H   0  0  0  0  0  0  0  0  0  0  0  0
    4.8340  -13.5338   18.8919 H   0  0  0  0  0  0  0  0  0  0  0  0
    5.2564  -12.5888   16.3824 H   0  0  0  0  0  0  0  0  0  0  0  0
    1.9548  -14.9010   16.1555 H   0  0  0  0  0  0  0  0  0  0  0  0
   -2.5627  -21.0975   24.1276 H   0  0  0  0  0  0  0  0  0  0  0  0
    0.0008  -22.5110   23.7611 H   0  0  0  0  0  0  0  0  0  0  0  0
    1.8911  -21.9137   22.2747 H   0  0  0  0  0  0  0  0  0  0  0  0
  1  2  1  0
  2  3  2  0
  3  4  1  0
  4  5  2  0
  5  6  1  0
  6  7  1  0
  7  8  1  0
  8  9  2  0
  9 10  1  0
 10 11  2  0
 11 12  1  0
  7 13  2  0
  3 14  1  0
 14 15  2  0
 15 16  1  0
 16 17  2  0
 17 18  1  0
 18 19  1  0
 19  1  2  0
 13  4  1  0
 18 14  1  0
 12  8  1  0
  1 20  1  0
  2 21  1  0
  9 22  1  0
 10 23  1  0
 12 24  1  0
 16 25  1  0
 17 26  1  0
 19 27  1  0
M  END
>  <Energy>  (1370) 
568.71002591617389

>  <compound_id>  (1370) 
36007

>  <target_id>  (1370) 
1

>  <reference_id>  (1370) 
45

>  <inspiration_ids>  (1370) 
[45, 122]

>  <energy_score>  (1370) 
501.3811740540566

>  <distance_score>  (1370) 
12.897758771407881

>  <path>  (1370) 
/opt/xchem-fragalysis-2/maxwin/BulkDock/SCRATCH/511013/C36007-P45/C36007-P45.minimised.mol

>  <scratch_subdir>  (1370) 
/opt/xchem-fragalysis-2/maxwin/BulkDock/SCRATCH/511013/C36007-P45

>  <fragmenstein_runtime>  (1370) 
10.090831995010376

>  <fragmenstein_outcome>  (1370) 
too moved

>  <fragmenstein_mode>  (1370) 
expansion

>  <fragmenstein_error>  (1370) 


$$$$
C36007-P122
     RDKit          3D

 27 30  0  0  0  0  0  0  0  0999 V2000
    4.9967  -19.6311   28.0645 C   0  0  0  0  0  0  0  0  0  0  0  0
    5.3092  -18.2995   27.5520 C   0  0  0  0  0  0  0  0  0  0  0  0
    4.5613  -17.1862   27.7963 C   0  0  0  0  0  0  0  0  0  0  0  0
    5.1231  -15.8336   27.4952 C   0  0  0  0  0  0  0  0  0  0  0  0
    4.9032  -14.7438   28.2455 N   0  0  0  0  0  0  0  0  0  0  0  0
    5.7000  -13.7517   27.6875 O   0  0  0  0  0  0  0  0  0  0  0  0
    6.3798  -14.2776   26.6122 C   0  0  0  0  0  0  0  0  0  0  0  0
    7.2763  -13.4517   25.8070 C   0  0  0  0  0  0  0  0  0  0  0  0
    7.4565  -12.0733   25.7654 C   0  0  0  0  0  0  0  0  0  0  0  0
    8.3989  -11.8313   24.7429 C   0  0  0  0  0  0  0  0  0  0  0  0
    8.8212  -12.9663   24.1842 N   0  0  0  0  0  0  0  0  0  0  0  0
    8.1547  -13.9261   24.8686 N   0  0  0  0  0  0  0  0  0  0  0  0
    6.0913  -15.5783   26.4763 N   0  0  0  0  0  0  0  0  0  0  0  0
    3.2921  -17.4350   28.5060 C   0  0  0  0  0  0  0  0  0  0  0  0
    2.2272  -16.6830   28.7352 N   0  0  0  0  0  0  0  0  0  0  0  0
    1.3389  -17.4524   29.4494 C   0  0  0  0  0  0  0  0  0  0  0  0
    1.8624  -18.6949   29.6948 C   0  0  0  0  0  0  0  0  0  0  0  0
    3.0791  -18.7084   29.0542 N   0  0  0  0  0  0  0  0  0  0  0  0
    3.9361  -19.7871   28.8673 C   0  0  0  0  0  0  0  0  0  0  0  0
    5.6788  -20.4481   27.8511 H   0  0  0  0  0  0  0  0  0  0  0  0
    6.2823  -18.2029   27.0727 H   0  0  0  0  0  0  0  0  0  0  0  0
    6.9475  -11.3409   26.3762 H   0  0  0  0  0  0  0  0  0  0  0  0
    8.7893  -10.8856   24.3882 H   0  0  0  0  0  0  0  0  0  0  0  0
    8.3305  -14.8968   24.6336 H   0  0  0  0  0  0  0  0  0  0  0  0
    0.3763  -17.0599   29.7522 H   0  0  0  0  0  0  0  0  0  0  0  0
    1.4683  -19.5599   30.2072 H   0  0  0  0  0  0  0  0  0  0  0  0
    3.6662  -20.7318   29.3227 H   0  0  0  0  0  0  0  0  0  0  0  0
  1  2  1  0
  2  3  2  0
  3  4  1  0
  4  5  2  0
  5  6  1  0
  6  7  1  0
  7  8  1  0
  8  9  2  0
  9 10  1  0
 10 11  2  0
 11 12  1  0
  7 13  2  0
  3 14  1  0
 14 15  2  0
 15 16  1  0
 16 17  2  0
 17 18  1  0
 18 19  1  0
 19  1  2  0
 13  4  1  0
 18 14  1  0
 12  8  1  0
  1 20  1  0
  2 21  1  0
  9 22  1  0
 10 23  1  0
 12 24  1  0
 16 25  1  0
 17 26  1  0
 19 27  1  0
M  END
>  <Energy>  (1371) 
48.962842090511934

>  <compound_id>  (1371) 
36007

>  <target_id>  (1371) 
1

>  <reference_id>  (1371) 
122

>  <inspiration_ids>  (1371) 
[45, 122]

>  <energy_score>  (1371) 
-18.3660097715956

>  <distance_score>  (1371) 
14.483433224599016

>  <path>  (1371) 
/opt/xchem-fragalysis-2/maxwin/BulkDock/SCRATCH/511013/C36007-P122/C36007-P122.minimised.mol

>  <scratch_subdir>  (1371) 
/opt/xchem-fragalysis-2/maxwin/BulkDock/SCRATCH/511013/C36007-P122

>  <fragmenstein_runtime>  (1371) 
14.984569787979126

>  <fragmenstein_outcome>  (1371) 
too moved

>  <fragmenstein_mode>  (1371) 
expansion

>  <fragmenstein_error>  (1371) 


$$$$
C36030-P45
     RDKit          3D

 30 33  0  0  0  0  0  0  0  0999 V2000
   -6.9022  -23.3469   28.1053 C   0  0  0  0  0  0  0  0  0  0  0  0
   -6.4767  -24.4598   27.3345 C   0  0  0  0  0  0  0  0  0  0  0  0
   -5.9633  -24.0739   26.1760 C   0  0  0  0  0  0  0  0  0  0  0  0
   -5.7226  -22.7208   25.9333 N   0  0  0  0  0  0  0  0  0  0  0  0
   -5.0707  -21.8067   24.6765 C   0  0  0  0  0  0  0  0  0  0  0  0
   -3.7447  -20.6880   24.4900 C   0  0  0  0  0  0  0  0  0  0  0  0
   -2.0628  -20.2004   23.2594 C   0  0  0  0  0  0  0  0  0  0  0  0
   -1.1446  -18.7611   21.9464 C   0  0  0  0  0  0  0  0  0  0  0  0
   -1.6929  -18.1559   20.6594 N   0  0  0  0  0  0  0  0  0  0  0  0
   -0.9977  -16.7610   20.2195 O   0  0  0  0  0  0  0  0  0  0  0  0
    0.5183  -16.6220   20.5511 C   0  0  0  0  0  0  0  0  0  0  0  0
    1.9605  -15.3071   20.1081 C   0  0  0  0  0  0  0  0  0  0  0  0
    3.1865  -15.2725   18.7799 C   0  0  0  0  0  0  0  0  0  0  0  0
    3.7030  -14.0235   18.6068 C   0  0  0  0  0  0  0  0  0  0  0  0
    2.5424  -13.7289   18.1471 N   0  0  0  0  0  0  0  0  0  0  0  0
    2.0059  -14.8728   18.3309 N   0  0  0  0  0  0  0  0  0  0  0  0
    0.3069  -17.8370   21.4840 N   0  0  0  0  0  0  0  0  0  0  0  0
   -4.5824  -20.6058   26.0590 N   0  0  0  0  0  0  0  0  0  0  0  0
   -5.3563  -21.8083   26.8660 C   0  0  0  0  0  0  0  0  0  0  0  0
   -6.4016  -22.1139   27.8363 C   0  0  0  0  0  0  0  0  0  0  0  0
   -7.8411  -23.4778   28.6232 H   0  0  0  0  0  0  0  0  0  0  0  0
   -6.6601  -25.4934   27.5789 H   0  0  0  0  0  0  0  0  0  0  0  0
   -5.5398  -24.7833   25.5303 H   0  0  0  0  0  0  0  0  0  0  0  0
   -5.4327  -22.6790   23.9981 H   0  0  0  0  0  0  0  0  0  0  0  0
   -1.2598  -20.8943   23.5153 H   0  0  0  0  0  0  0  0  0  0  0  0
   -2.4993  -20.8080   22.4813 H   0  0  0  0  0  0  0  0  0  0  0  0
    4.0379  -15.9163   18.8611 H   0  0  0  0  0  0  0  0  0  0  0  0
    4.5057  -13.4088   18.9793 H   0  0  0  0  0  0  0  0  0  0  0  0
    1.1549  -14.7010   17.8525 H   0  0  0  0  0  0  0  0  0  0  0  0
   -7.1606  -21.3538   27.9116 H   0  0  0  0  0  0  0  0  0  0  0  0
  1  2  1  0
  2  3  2  0
  3  4  1  0
  4  5  1  0
  5  6  2  0
  6  7  1  0
  7  8  1  0
  8  9  2  0
  9 10  1  0
 10 11  1  0
 11 12  1  0
 12 13  2  0
 13 14  1  0
 14 15  2  0
 15 16  1  0
 11 17  2  0
  6 18  1  0
 18 19  2  0
 19 20  1  0
 20  1  2  0
 19  4  1  0
 17  8  1  0
 16 12  1  0
  1 21  1  0
  2 22  1  0
  3 23  1  0
  5 24  1  0
  7 25  1  0
  7 26  1  0
 13 27  1  0
 14 28  1  0
 16 29  1  0
 20 30  1  0
M  END
>  <Energy>  (1372) 
1266.7625306551079

>  <compound_id>  (1372) 
36030

>  <target_id>  (1372) 
1

>  <reference_id>  (1372) 
45

>  <inspiration_ids>  (1372) 
[45, 122]

>  <energy_score>  (1372) 
1179.3682747923474

>  <distance_score>  (1372) 
10.991149244977725

>  <path>  (1372) 
/opt/xchem-fragalysis-2/maxwin/BulkDock/SCRATCH/511013/C36030-P45/C36030-P45.minimised.mol

>  <scratch_subdir>  (1372) 
/opt/xchem-fragalysis-2/maxwin/BulkDock/SCRATCH/511013/C36030-P45

>  <fragmenstein_runtime>  (1372) 
9.10334825515747

>  <fragmenstein_outcome>  (1372) 
too moved

>  <fragmenstein_mode>  (1372) 
expansion

>  <fragmenstein_error>  (1372) 


$$$$
C36030-P122
     RDKit          3D

 30 33  0  0  0  0  0  0  0  0999 V2000
   -3.3145  -27.5454   26.9278 C   0  0  0  0  0  0  0  0  0  0  0  0
   -3.3372  -27.5526   24.8966 C   0  0  0  0  0  0  0  0  0  0  0  0
   -2.9393  -26.2918   24.2785 C   0  0  0  0  0  0  0  0  0  0  0  0
   -2.3758  -25.2212   25.1017 N   0  0  0  0  0  0  0  0  0  0  0  0
   -1.5020  -23.6667   25.6965 C   0  0  0  0  0  0  0  0  0  0  0  0
   -0.6173  -22.5183   24.3825 C   0  0  0  0  0  0  0  0  0  0  0  0
   -1.3555  -20.7406   23.3470 C   0  0  0  0  0  0  0  0  0  0  0  0
   -1.2913  -18.9143   22.1151 C   0  0  0  0  0  0  0  0  0  0  0  0
   -0.2022  -18.0530   21.6310 N   0  0  0  0  0  0  0  0  0  0  0  0
   -0.3790  -16.9445   20.7283 O   0  0  0  0  0  0  0  0  0  0  0  0
   -1.6356  -16.8269   19.9481 C   0  0  0  0  0  0  0  0  0  0  0  0
   -1.8640  -15.5281   18.5785 C   0  0  0  0  0  0  0  0  0  0  0  0
   -2.4641  -15.1344   16.9994 C   0  0  0  0  0  0  0  0  0  0  0  0
   -2.0331  -13.9955   16.2901 C   0  0  0  0  0  0  0  0  0  0  0  0
   -1.2985  -13.3483   17.1388 N   0  0  0  0  0  0  0  0  0  0  0  0
   -1.7218  -13.9156   18.2926 N   0  0  0  0  0  0  0  0  0  0  0  0
   -2.1343  -18.1134   20.5994 N   0  0  0  0  0  0  0  0  0  0  0  0
   -0.3173  -23.8880   25.7159 N   0  0  0  0  0  0  0  0  0  0  0  0
   -1.4813  -25.3151   25.9722 C   0  0  0  0  0  0  0  0  0  0  0  0
   -2.7052  -26.0585   27.0626 C   0  0  0  0  0  0  0  0  0  0  0  0
   -4.2042  -27.9221   27.4216 H   0  0  0  0  0  0  0  0  0  0  0  0
   -3.7441  -28.2823   24.2769 H   0  0  0  0  0  0  0  0  0  0  0  0
   -3.0368  -26.1137   23.2165 H   0  0  0  0  0  0  0  0  0  0  0  0
   -1.8433  -23.5952   26.9419 H   0  0  0  0  0  0  0  0  0  0  0  0
   -2.1842  -20.4786   23.9992 H   0  0  0  0  0  0  0  0  0  0  0  0
   -2.0662  -21.2421   22.7518 H   0  0  0  0  0  0  0  0  0  0  0  0
   -3.3230  -15.7035   16.5999 H   0  0  0  0  0  0  0  0  0  0  0  0
   -2.2355  -13.6506   15.2867 H   0  0  0  0  0  0  0  0  0  0  0  0
   -1.9603  -13.1703   18.9407 H   0  0  0  0  0  0  0  0  0  0  0  0
   -3.3345  -25.2951   27.4580 H   0  0  0  0  0  0  0  0  0  0  0  0
  1  2  1  0
  2  3  2  0
  3  4  1  0
  4  5  1  0
  5  6  2  0
  6  7  1  0
  7  8  1  0
  8  9  2  0
  9 10  1  0
 10 11  1  0
 11 12  1  0
 12 13  2  0
 13 14  1  0
 14 15  2  0
 15 16  1  0
 11 17  2  0
  6 18  1  0
 18 19  2  0
 19 20  1  0
 20  1  2  0
 19  4  1  0
 17  8  1  0
 16 12  1  0
  1 21  1  0
  2 22  1  0
  3 23  1  0
  5 24  1  0
  7 25  1  0
  7 26  1  0
 13 27  1  0
 14 28  1  0
 16 29  1  0
 20 30  1  0
M  END
>  <Energy>  (1373) 
1850.4300486437805

>  <compound_id>  (1373) 
36030

>  <target_id>  (1373) 
1

>  <reference_id>  (1373) 
122

>  <inspiration_ids>  (1373) 
[45, 122]

>  <energy_score>  (1373) 
1763.0357927810687

>  <distance_score>  (1373) 
12.559512941564462

>  <path>  (1373) 
/opt/xchem-fragalysis-2/maxwin/BulkDock/SCRATCH/511013/C36030-P122/C36030-P122.minimised.mol

>  <scratch_subdir>  (1373) 
/opt/xchem-fragalysis-2/maxwin/BulkDock/SCRATCH/511013/C36030-P122

>  <fragmenstein_runtime>  (1373) 
11.755570650100708

>  <fragmenstein_outcome>  (1373) 
too moved

>  <fragmenstein_mode>  (1373) 
expansion

>  <fragmenstein_error>  (1373) 


$$$$
C11757-P94
     RDKit          3D

 37 40  0  0  0  0  0  0  0  0999 V2000
  -14.3057  -31.5712   28.9082 C   0  0  0  0  0  0  0  0  0  0  0  0
  -13.7835  -30.9742   27.6095 C   0  0  0  0  0  0  0  0  0  0  0  0
  -12.9918  -29.7665   27.9357 N   0  0  0  0  0  0  0  0  0  0  0  0
  -13.4092  -28.4396   28.3423 C   0  0  0  0  0  0  0  0  0  0  0  0
  -14.4963  -28.0076   28.5943 O   0  0  0  0  0  0  0  0  0  0  0  0
  -12.3192  -27.3956   28.3556 C   0  0  0  0  0  0  0  0  0  0  0  0
  -12.2579  -26.4822   27.2775 C   0  0  0  0  0  0  0  0  0  0  0  0
  -11.4402  -25.3511   27.2953 C   0  0  0  0  0  0  0  0  0  0  0  0
  -10.6913  -25.0339   28.4220 C   0  0  0  0  0  0  0  0  0  0  0  0
  -10.8315  -25.8771   29.5223 C   0  0  0  0  0  0  0  0  0  0  0  0
  -10.3818  -25.7674   30.8115 N   0  0  0  0  0  0  0  0  0  0  0  0
  -10.9227  -26.7912   31.5268 C   0  0  0  0  0  0  0  0  0  0  0  0
  -11.6162  -27.6144   30.7752 N   0  0  0  0  0  0  0  0  0  0  0  0
  -11.6035  -27.0426   29.5176 C   0  0  0  0  0  0  0  0  0  0  0  0
  -13.2265  -31.9531   26.5345 C   0  0  0  0  0  0  0  0  0  0  0  0
  -13.9859  -33.0880   26.1910 C   0  0  0  0  0  0  0  0  0  0  0  0
  -13.5507  -34.0366   25.2401 C   0  0  0  0  0  0  0  0  0  0  0  0
  -12.3430  -33.8501   24.5420 C   0  0  0  0  0  0  0  0  0  0  0  0
  -11.7853  -34.7130   23.6085 N   0  0  0  0  0  0  0  0  0  0  0  0
  -10.6625  -34.2019   23.1556 C   0  0  0  0  0  0  0  0  0  0  0  0
  -10.2231  -32.6701   23.7780 S   0  0  0  0  0  0  0  0  0  0  0  0
  -11.6111  -32.6957   24.8104 C   0  0  0  0  0  0  0  0  0  0  0  0
  -12.0153  -31.7712   25.8140 C   0  0  0  0  0  0  0  0  0  0  0  0
  -13.5138  -31.6518   29.6571 H   0  0  0  0  0  0  0  0  0  0  0  0
  -15.0489  -30.8970   29.3533 H   0  0  0  0  0  0  0  0  0  0  0  0
  -14.7935  -32.5405   28.7837 H   0  0  0  0  0  0  0  0  0  0  0  0
  -14.6827  -30.5667   27.1225 H   0  0  0  0  0  0  0  0  0  0  0  0
  -11.9791  -29.7950   27.8888 H   0  0  0  0  0  0  0  0  0  0  0  0
  -12.9154  -26.6095   26.4216 H   0  0  0  0  0  0  0  0  0  0  0  0
  -11.4398  -24.6725   26.4440 H   0  0  0  0  0  0  0  0  0  0  0  0
  -10.1039  -24.1255   28.4539 H   0  0  0  0  0  0  0  0  0  0  0  0
   -9.8314  -25.0139   31.1950 H   0  0  0  0  0  0  0  0  0  0  0  0
  -10.7819  -26.8690   32.5920 H   0  0  0  0  0  0  0  0  0  0  0  0
  -14.9428  -33.2768   26.6766 H   0  0  0  0  0  0  0  0  0  0  0  0
  -14.1482  -34.9207   25.0366 H   0  0  0  0  0  0  0  0  0  0  0  0
  -10.0517  -34.7063   22.4183 H   0  0  0  0  0  0  0  0  0  0  0  0
  -11.3239  -30.9749   26.0627 H   0  0  0  0  0  0  0  0  0  0  0  0
  1  2  1  0
  2  3  1  0
  3  4  1  0
  4  5  2  0
  4  6  1  0
  6  7  2  0
  7  8  1  0
  8  9  2  0
  9 10  1  0
 10 11  1  0
 11 12  1  0
 12 13  2  0
 13 14  1  0
  2 15  1  0
 15 16  2  0
 16 17  1  0
 17 18  2  0
 18 19  1  0
 19 20  2  0
 20 21  1  0
 21 22  1  0
 22 23  2  0
 14  6  1  0
 23 15  1  0
 14 10  2  0
 22 18  1  0
  1 24  1  0
  1 25  1  0
  1 26  1  0
  2 27  1  0
  3 28  1  0
  7 29  1  0
  8 30  1  0
  9 31  1  0
 11 32  1  0
 12 33  1  0
 16 34  1  0
 17 35  1  0
 20 36  1  0
 23 37  1  0
M  END
>  <Energy>  (1374) 
56.783803417764418

>  <compound_id>  (1374) 
11757

>  <target_id>  (1374) 
1

>  <reference_id>  (1374) 
94

>  <inspiration_ids>  (1374) 
[94, 68]

>  <energy_score>  (1374) 
-75.2174373960755

>  <distance_score>  (1374) 
4.518429868736264

>  <path>  (1374) 
/opt/xchem-fragalysis-2/maxwin/BulkDock/SCRATCH/511013/C11757-P94/C11757-P94.minimised.mol

>  <scratch_subdir>  (1374) 
/opt/xchem-fragalysis-2/maxwin/BulkDock/SCRATCH/511013/C11757-P94

>  <fragmenstein_runtime>  (1374) 
5.435163736343384

>  <fragmenstein_outcome>  (1374) 
too moved

>  <fragmenstein_mode>  (1374) 
expansion

>  <fragmenstein_error>  (1374) 


$$$$
C11757-P68
     RDKit          3D

 37 40  0  0  0  0  0  0  0  0999 V2000
  -14.1888  -30.5795   26.5986 C   0  0  0  0  0  0  0  0  0  0  0  0
  -12.5300  -30.5463   26.5399 C   0  0  0  0  0  0  0  0  0  0  0  0
  -11.2619  -29.0412   27.1362 N   0  0  0  0  0  0  0  0  0  0  0  0
  -11.1659  -27.3300   26.6576 C   0  0  0  0  0  0  0  0  0  0  0  0
  -11.8956  -26.8722   25.8244 O   0  0  0  0  0  0  0  0  0  0  0  0
  -10.0345  -25.9434   27.3403 C   0  0  0  0  0  0  0  0  0  0  0  0
  -10.4006  -24.8967   26.4691 C   0  0  0  0  0  0  0  0  0  0  0  0
  -11.0152  -23.6587   26.8387 C   0  0  0  0  0  0  0  0  0  0  0  0
  -10.8939  -23.0217   28.0788 C   0  0  0  0  0  0  0  0  0  0  0  0
  -10.1263  -23.7668   28.9607 C   0  0  0  0  0  0  0  0  0  0  0  0
  -10.3025  -23.8605   30.7607 N   0  0  0  0  0  0  0  0  0  0  0  0
   -9.1493  -24.6107   31.3344 C   0  0  0  0  0  0  0  0  0  0  0  0
   -8.5119  -25.1007   30.1891 N   0  0  0  0  0  0  0  0  0  0  0  0
   -9.5405  -25.0005   28.6833 C   0  0  0  0  0  0  0  0  0  0  0  0
  -12.4453  -32.3034   25.9303 C   0  0  0  0  0  0  0  0  0  0  0  0
  -13.5402  -33.1732   26.2716 C   0  0  0  0  0  0  0  0  0  0  0  0
  -13.7167  -34.5169   25.8214 C   0  0  0  0  0  0  0  0  0  0  0  0
  -12.7516  -35.1389   25.0188 C   0  0  0  0  0  0  0  0  0  0  0  0
  -12.7302  -36.4527   24.5817 N   0  0  0  0  0  0  0  0  0  0  0  0
  -11.6321  -36.6703   23.8903 C   0  0  0  0  0  0  0  0  0  0  0  0
  -10.5764  -35.3363   23.7082 S   0  0  0  0  0  0  0  0  0  0  0  0
  -11.6566  -34.3779   24.6609 C   0  0  0  0  0  0  0  0  0  0  0  0
  -11.5108  -33.0243   25.0824 C   0  0  0  0  0  0  0  0  0  0  0  0
  -14.5860  -30.9745   27.5379 H   0  0  0  0  0  0  0  0  0  0  0  0
  -14.6378  -31.1913   25.8040 H   0  0  0  0  0  0  0  0  0  0  0  0
  -14.6308  -29.6289   26.3165 H   0  0  0  0  0  0  0  0  0  0  0  0
  -12.6856  -30.1674   25.6019 H   0  0  0  0  0  0  0  0  0  0  0  0
  -10.5152  -29.2357   27.7766 H   0  0  0  0  0  0  0  0  0  0  0  0
  -10.5104  -25.2127   25.4641 H   0  0  0  0  0  0  0  0  0  0  0  0
  -11.6775  -23.1874   26.1107 H   0  0  0  0  0  0  0  0  0  0  0  0
  -11.4582  -22.1402   28.3523 H   0  0  0  0  0  0  0  0  0  0  0  0
  -10.9888  -23.2708   31.2291 H   0  0  0  0  0  0  0  0  0  0  0  0
   -8.9824  -24.6715   32.3858 H   0  0  0  0  0  0  0  0  0  0  0  0
  -14.3032  -32.8830   26.9921 H   0  0  0  0  0  0  0  0  0  0  0  0
  -14.5786  -35.0896   26.1543 H   0  0  0  0  0  0  0  0  0  0  0  0
  -11.4055  -37.6354   23.4554 H   0  0  0  0  0  0  0  0  0  0  0  0
  -10.5630  -32.6535   24.7132 H   0  0  0  0  0  0  0  0  0  0  0  0
  1  2  1  0
  2  3  1  0
  3  4  1  0
  4  5  2  0
  4  6  1  0
  6  7  2  0
  7  8  1  0
  8  9  2  0
  9 10  1  0
 10 11  1  0
 11 12  1  0
 12 13  2  0
 13 14  1  0
  2 15  1  0
 15 16  2  0
 16 17  1  0
 17 18  2  0
 18 19  1  0
 19 20  2  0
 20 21  1  0
 21 22  1  0
 22 23  2  0
 14  6  1  0
 23 15  1  0
 14 10  2  0
 22 18  1  0
  1 24  1  0
  1 25  1  0
  1 26  1  0
  2 27  1  0
  3 28  1  0
  7 29  1  0
  8 30  1  0
  9 31  1  0
 11 32  1  0
 12 33  1  0
 16 34  1  0
 17 35  1  0
 20 36  1  0
 23 37  1  0
M  END
>  <Energy>  (1375) 
585.15760633025047

>  <compound_id>  (1375) 
11757

>  <target_id>  (1375) 
1

>  <reference_id>  (1375) 
68

>  <inspiration_ids>  (1375) 
[94, 68]

>  <energy_score>  (1375) 
453.15636551642035

>  <distance_score>  (1375) 
3.9520297693639437

>  <path>  (1375) 
/opt/xchem-fragalysis-2/maxwin/BulkDock/SCRATCH/511013/C11757-P68/C11757-P68.minimised.mol

>  <scratch_subdir>  (1375) 
/opt/xchem-fragalysis-2/maxwin/BulkDock/SCRATCH/511013/C11757-P68

>  <fragmenstein_runtime>  (1375) 
7.6786487102508545

>  <fragmenstein_outcome>  (1375) 
too moved

>  <fragmenstein_mode>  (1375) 
expansion

>  <fragmenstein_error>  (1375) 


$$$$
C11758-P94
     RDKit          3D

 38 41  0  0  0  0  0  0  0  0999 V2000
  -11.3674  -22.6179   28.6824 C   0  0  0  0  0  0  0  0  0  0  0  0
  -11.2618  -24.0936   28.9243 C   0  0  0  0  0  0  0  0  0  0  0  0
  -11.1993  -24.5959   30.2267 C   0  0  0  0  0  0  0  0  0  0  0  0
  -11.3031  -25.9682   30.4761 C   0  0  0  0  0  0  0  0  0  0  0  0
  -11.5974  -26.8109   29.3907 C   0  0  0  0  0  0  0  0  0  0  0  0
  -12.1546  -28.0993   29.3192 N   0  0  0  0  0  0  0  0  0  0  0  0
  -11.9755  -28.5282   28.0632 C   0  0  0  0  0  0  0  0  0  0  0  0
  -12.0645  -29.8907   27.4934 N   0  0  0  0  0  0  0  0  0  0  0  0
  -11.0216  -30.7039   26.4013 C   0  0  0  0  0  0  0  0  0  0  0  0
  -11.6967  -31.7732   25.3236 C   0  0  0  0  0  0  0  0  0  0  0  0
  -11.0063  -33.0491   24.7309 C   0  0  0  0  0  0  0  0  0  0  0  0
  -11.4348  -34.3232   25.1501 C   0  0  0  0  0  0  0  0  0  0  0  0
  -10.7511  -35.5083   24.8085 C   0  0  0  0  0  0  0  0  0  0  0  0
   -9.6463  -35.4667   23.9416 C   0  0  0  0  0  0  0  0  0  0  0  0
   -8.8392  -36.5442   23.5912 N   0  0  0  0  0  0  0  0  0  0  0  0
   -7.9413  -36.1460   22.7201 C   0  0  0  0  0  0  0  0  0  0  0  0
   -8.0223  -34.5005   22.2498 S   0  0  0  0  0  0  0  0  0  0  0  0
   -9.3102  -34.2313   23.3804 C   0  0  0  0  0  0  0  0  0  0  0  0
   -9.9649  -33.0178   23.7711 C   0  0  0  0  0  0  0  0  0  0  0  0
  -11.6898  -27.3949   27.3158 N   0  0  0  0  0  0  0  0  0  0  0  0
  -11.4878  -26.3061   28.1165 C   0  0  0  0  0  0  0  0  0  0  0  0
  -11.2792  -24.9634   27.8313 C   0  0  0  0  0  0  0  0  0  0  0  0
  -11.6835  -22.0818   29.5832 H   0  0  0  0  0  0  0  0  0  0  0  0
  -12.1083  -22.4235   27.9079 H   0  0  0  0  0  0  0  0  0  0  0  0
  -10.4141  -22.2160   28.3495 H   0  0  0  0  0  0  0  0  0  0  0  0
  -11.1549  -23.9222   31.0805 H   0  0  0  0  0  0  0  0  0  0  0  0
  -11.3429  -26.3407   31.4943 H   0  0  0  0  0  0  0  0  0  0  0  0
  -12.3426  -30.5477   28.2190 H   0  0  0  0  0  0  0  0  0  0  0  0
  -10.3407  -31.2165   27.0495 H   0  0  0  0  0  0  0  0  0  0  0  0
  -10.3907  -29.9760   25.8740 H   0  0  0  0  0  0  0  0  0  0  0  0
  -12.6503  -32.0861   25.7678 H   0  0  0  0  0  0  0  0  0  0  0  0
  -11.9567  -31.2074   24.4337 H   0  0  0  0  0  0  0  0  0  0  0  0
  -12.2910  -34.4209   25.8170 H   0  0  0  0  0  0  0  0  0  0  0  0
  -11.0679  -36.4606   25.2235 H   0  0  0  0  0  0  0  0  0  0  0  0
   -7.2018  -36.8146   22.2999 H   0  0  0  0  0  0  0  0  0  0  0  0
   -9.6222  -32.0697   23.3585 H   0  0  0  0  0  0  0  0  0  0  0  0
  -11.7106  -27.3993   26.3075 H   0  0  0  0  0  0  0  0  0  0  0  0
  -11.2878  -24.5885   26.8132 H   0  0  0  0  0  0  0  0  0  0  0  0
  1  2  1  0
  2  3  2  0
  3  4  1  0
  4  5  2  0
  5  6  1  0
  6  7  2  0
  7  8  1  0
  8  9  1  0
  9 10  1  0
 10 11  1  0
 11 12  2  0
 12 13  1  0
 13 14  2  0
 14 15  1  0
 15 16  2  0
 16 17  1  0
 17 18  1  0
 18 19  2  0
  7 20  1  0
 20 21  1  0
 21 22  2  0
 22  2  1  0
 21  5  1  0
 19 11  1  0
 18 14  1  0
  1 23  1  0
  1 24  1  0
  1 25  1  0
  3 26  1  0
  4 27  1  0
  8 28  1  0
  9 29  1  0
  9 30  1  0
 10 31  1  0
 10 32  1  0
 12 33  1  0
 13 34  1  0
 16 35  1  0
 19 36  1  0
 20 37  1  0
 22 38  1  0
M  END
>  <Energy>  (1376) 
74.281396559382515

>  <compound_id>  (1376) 
11758

>  <target_id>  (1376) 
1

>  <reference_id>  (1376) 
94

>  <inspiration_ids>  (1376) 
[94, 68]

>  <energy_score>  (1376) 
-3.5618776254668205

>  <distance_score>  (1376) 
3.293915488568379

>  <path>  (1376) 
/opt/xchem-fragalysis-2/maxwin/BulkDock/SCRATCH/511013/C11758-P94/C11758-P94.minimised.mol

>  <scratch_subdir>  (1376) 
/opt/xchem-fragalysis-2/maxwin/BulkDock/SCRATCH/511013/C11758-P94

>  <fragmenstein_runtime>  (1376) 
2.6634232997894287

>  <fragmenstein_outcome>  (1376) 
too moved

>  <fragmenstein_mode>  (1376) 
expansion

>  <fragmenstein_error>  (1376) 


$$$$
C11758-P68
     RDKit          3D

 38 41  0  0  0  0  0  0  0  0999 V2000
  -13.7649  -23.0392   24.8036 C   0  0  0  0  0  0  0  0  0  0  0  0
  -13.3945  -24.2959   25.5440 C   0  0  0  0  0  0  0  0  0  0  0  0
  -14.2159  -25.3984   25.3302 C   0  0  0  0  0  0  0  0  0  0  0  0
  -13.7933  -26.6374   25.7572 C   0  0  0  0  0  0  0  0  0  0  0  0
  -12.4009  -26.7848   25.9303 C   0  0  0  0  0  0  0  0  0  0  0  0
  -11.6261  -27.8296   25.5062 N   0  0  0  0  0  0  0  0  0  0  0  0
  -10.3347  -27.5573   25.4376 C   0  0  0  0  0  0  0  0  0  0  0  0
   -9.1061  -28.2592   24.5539 N   0  0  0  0  0  0  0  0  0  0  0  0
   -8.7277  -29.8234   23.3497 C   0  0  0  0  0  0  0  0  0  0  0  0
  -10.0893  -31.1793   22.7693 C   0  0  0  0  0  0  0  0  0  0  0  0
  -10.1031  -32.7581   22.8875 C   0  0  0  0  0  0  0  0  0  0  0  0
  -10.2520  -33.4477   24.0891 C   0  0  0  0  0  0  0  0  0  0  0  0
  -10.1676  -34.8423   24.2304 C   0  0  0  0  0  0  0  0  0  0  0  0
  -10.0761  -35.6329   23.0876 C   0  0  0  0  0  0  0  0  0  0  0  0
   -9.9673  -37.0108   23.0606 N   0  0  0  0  0  0  0  0  0  0  0  0
   -9.9998  -37.4194   21.8155 C   0  0  0  0  0  0  0  0  0  0  0  0
  -10.2258  -36.2081   20.6302 S   0  0  0  0  0  0  0  0  0  0  0  0
  -10.1600  -34.9911   21.8535 C   0  0  0  0  0  0  0  0  0  0  0  0
  -10.2018  -33.5726   21.7461 C   0  0  0  0  0  0  0  0  0  0  0  0
  -10.3077  -26.2302   26.0205 N   0  0  0  0  0  0  0  0  0  0  0  0
  -11.5924  -25.7091   26.1238 C   0  0  0  0  0  0  0  0  0  0  0  0
  -12.1407  -24.4100   26.2322 C   0  0  0  0  0  0  0  0  0  0  0  0
  -13.0249  -22.2575   24.9843 H   0  0  0  0  0  0  0  0  0  0  0  0
  -14.7803  -22.7340   25.0559 H   0  0  0  0  0  0  0  0  0  0  0  0
  -13.7704  -23.2202   23.7245 H   0  0  0  0  0  0  0  0  0  0  0  0
  -15.1833  -25.2831   24.8456 H   0  0  0  0  0  0  0  0  0  0  0  0
  -14.4493  -27.4792   25.5984 H   0  0  0  0  0  0  0  0  0  0  0  0
   -9.2593  -27.7704   23.6524 H   0  0  0  0  0  0  0  0  0  0  0  0
   -7.8562  -30.2596   23.8089 H   0  0  0  0  0  0  0  0  0  0  0  0
   -8.4000  -29.2453   22.4905 H   0  0  0  0  0  0  0  0  0  0  0  0
  -11.1638  -31.0486   22.8902 H   0  0  0  0  0  0  0  0  0  0  0  0
  -10.1801  -30.9610   21.6757 H   0  0  0  0  0  0  0  0  0  0  0  0
  -10.5154  -32.9334   24.9891 H   0  0  0  0  0  0  0  0  0  0  0  0
  -10.2089  -35.3050   25.2104 H   0  0  0  0  0  0  0  0  0  0  0  0
   -9.9184  -38.4654   21.5506 H   0  0  0  0  0  0  0  0  0  0  0  0
  -10.3326  -33.1294   20.7688 H   0  0  0  0  0  0  0  0  0  0  0  0
   -9.5223  -25.6044   25.9791 H   0  0  0  0  0  0  0  0  0  0  0  0
  -11.5139  -23.5447   26.4125 H   0  0  0  0  0  0  0  0  0  0  0  0
  1  2  1  0
  2  3  2  0
  3  4  1  0
  4  5  2  0
  5  6  1  0
  6  7  2  0
  7  8  1  0
  8  9  1  0
  9 10  1  0
 10 11  1  0
 11 12  2  0
 12 13  1  0
 13 14  2  0
 14 15  1  0
 15 16  2  0
 16 17  1  0
 17 18  1  0
 18 19  2  0
  7 20  1  0
 20 21  1  0
 21 22  2  0
 22  2  1  0
 21  5  1  0
 19 11  1  0
 18 14  1  0
  1 23  1  0
  1 24  1  0
  1 25  1  0
  3 26  1  0
  4 27  1  0
  8 28  1  0
  9 29  1  0
  9 30  1  0
 10 31  1  0
 10 32  1  0
 12 33  1  0
 13 34  1  0
 16 35  1  0
 19 36  1  0
 20 37  1  0
 22 38  1  0
M  END
>  <Energy>  (1377) 
281.51480769255704

>  <compound_id>  (1377) 
11758

>  <target_id>  (1377) 
1

>  <reference_id>  (1377) 
68

>  <inspiration_ids>  (1377) 
[94, 68]

>  <energy_score>  (1377) 
214.24343199527982

>  <distance_score>  (1377) 
4.523494095666718

>  <path>  (1377) 
/opt/xchem-fragalysis-2/maxwin/BulkDock/SCRATCH/511013/C11758-P68/C11758-P68.minimised.mol

>  <scratch_subdir>  (1377) 
/opt/xchem-fragalysis-2/maxwin/BulkDock/SCRATCH/511013/C11758-P68

>  <fragmenstein_runtime>  (1377) 
6.852797031402588

>  <fragmenstein_outcome>  (1377) 
too moved

>  <fragmenstein_mode>  (1377) 
expansion

>  <fragmenstein_error>  (1377) 


$$$$
C11760-P94
     RDKit          3D

 46 49  0  0  0  0  0  0  0  0999 V2000
   -9.0690  -26.0834   28.3551 C   0  0  0  0  0  0  0  0  0  0  0  0
  -10.1242  -25.7530   27.3112 C   0  0  0  0  0  0  0  0  0  0  0  0
  -10.9532  -24.7434   27.4978 N   0  0  0  0  0  0  0  0  0  0  0  0
  -11.6308  -25.4079   28.4504 C   0  0  0  0  0  0  0  0  0  0  0  0
  -11.5709  -25.0756   29.8199 C   0  0  0  0  0  0  0  0  0  0  0  0
  -11.4281  -26.1511   30.6903 C   0  0  0  0  0  0  0  0  0  0  0  0
  -11.7340  -27.4452   30.2360 C   0  0  0  0  0  0  0  0  0  0  0  0
  -12.1435  -27.7488   28.8950 C   0  0  0  0  0  0  0  0  0  0  0  0
  -11.8067  -26.7578   27.9925 C   0  0  0  0  0  0  0  0  0  0  0  0
  -10.9649  -26.7827   26.8632 N   0  0  0  0  0  0  0  0  0  0  0  0
  -10.6304  -27.6516   25.6969 C   0  0  0  0  0  0  0  0  0  0  0  0
   -9.9866  -29.2145   25.6182 C   0  0  0  0  0  0  0  0  0  0  0  0
   -9.9672  -30.2583   24.4116 C   0  0  0  0  0  0  0  0  0  0  0  0
   -9.2804  -30.0459   23.4528 O   0  0  0  0  0  0  0  0  0  0  0  0
  -10.8489  -31.3870   24.7227 N   0  0  0  0  0  0  0  0  0  0  0  0
  -11.2362  -32.5477   23.9245 C   0  0  0  0  0  0  0  0  0  0  0  0
  -11.8297  -32.2239   22.5538 C   0  0  0  0  0  0  0  0  0  0  0  0
  -10.2104  -33.6629   23.8077 C   0  0  0  0  0  0  0  0  0  0  0  0
  -10.3810  -34.8370   24.5590 C   0  0  0  0  0  0  0  0  0  0  0  0
   -9.5436  -35.9449   24.3845 C   0  0  0  0  0  0  0  0  0  0  0  0
   -8.5284  -35.9058   23.4117 C   0  0  0  0  0  0  0  0  0  0  0  0
   -7.6528  -36.9391   23.1159 N   0  0  0  0  0  0  0  0  0  0  0  0
   -6.8684  -36.5662   22.1302 C   0  0  0  0  0  0  0  0  0  0  0  0
   -7.0998  -34.9861   21.5190 S   0  0  0  0  0  0  0  0  0  0  0  0
   -8.3667  -34.7393   22.6601 C   0  0  0  0  0  0  0  0  0  0  0  0
   -9.1682  -33.5993   22.8653 C   0  0  0  0  0  0  0  0  0  0  0  0
   -8.2645  -26.6707   27.9423 H   0  0  0  0  0  0  0  0  0  0  0  0
   -9.4441  -26.6894   29.1740 H   0  0  0  0  0  0  0  0  0  0  0  0
   -8.7250  -25.1685   28.8379 H   0  0  0  0  0  0  0  0  0  0  0  0
  -11.3483  -24.0639   30.1361 H   0  0  0  0  0  0  0  0  0  0  0  0
  -11.1857  -25.9770   31.7359 H   0  0  0  0  0  0  0  0  0  0  0  0
  -11.7362  -28.2304   30.9924 H   0  0  0  0  0  0  0  0  0  0  0  0
  -12.3528  -28.7626   28.5808 H   0  0  0  0  0  0  0  0  0  0  0  0
   -9.8087  -27.1123   25.3012 H   0  0  0  0  0  0  0  0  0  0  0  0
  -11.3610  -27.4289   24.9159 H   0  0  0  0  0  0  0  0  0  0  0  0
  -10.4148  -29.7958   26.4416 H   0  0  0  0  0  0  0  0  0  0  0  0
   -8.9126  -29.0949   25.7814 H   0  0  0  0  0  0  0  0  0  0  0  0
  -11.3367  -31.1973   25.5809 H   0  0  0  0  0  0  0  0  0  0  0  0
  -12.0764  -32.9638   24.4982 H   0  0  0  0  0  0  0  0  0  0  0  0
  -12.7812  -31.7003   22.6610 H   0  0  0  0  0  0  0  0  0  0  0  0
  -11.1594  -31.6082   21.9456 H   0  0  0  0  0  0  0  0  0  0  0  0
  -12.0463  -33.1376   21.9872 H   0  0  0  0  0  0  0  0  0  0  0  0
  -11.1846  -34.9119   25.2894 H   0  0  0  0  0  0  0  0  0  0  0  0
   -9.6857  -36.8457   24.9727 H   0  0  0  0  0  0  0  0  0  0  0  0
   -6.1081  -37.2174   21.7195 H   0  0  0  0  0  0  0  0  0  0  0  0
   -8.9996  -32.6988   22.2758 H   0  0  0  0  0  0  0  0  0  0  0  0
  1  2  1  0
  2  3  2  0
  3  4  1  0
  4  5  2  0
  5  6  1  0
  6  7  2  0
  7  8  1  0
  8  9  2  0
  9 10  1  0
 10 11  1  0
 11 12  1  0
 12 13  1  0
 13 14  2  0
 13 15  1  0
 15 16  1  0
 16 17  1  0
 16 18  1  0
 18 19  2  0
 19 20  1  0
 20 21  2  0
 21 22  1  0
 22 23  2  0
 23 24  1  0
 24 25  1  0
 25 26  2  0
 10  2  1  0
 26 18  1  0
  9  4  1  0
 25 21  1  0
  1 27  1  0
  1 28  1  0
  1 29  1  0
  5 30  1  0
  6 31  1  0
  7 32  1  0
  8 33  1  0
 11 34  1  0
 11 35  1  0
 12 36  1  0
 12 37  1  0
 15 38  1  0
 16 39  1  0
 17 40  1  0
 17 41  1  0
 17 42  1  0
 19 43  1  0
 20 44  1  0
 23 45  1  0
 26 46  1  0
M  END
>  <Energy>  (1378) 
156.47452234158254

>  <compound_id>  (1378) 
11760

>  <target_id>  (1378) 
1

>  <reference_id>  (1378) 
94

>  <inspiration_ids>  (1378) 
[94, 68]

>  <energy_score>  (1378) 
79.86184237226081

>  <distance_score>  (1378) 
4.255365080618385

>  <path>  (1378) 
/opt/xchem-fragalysis-2/maxwin/BulkDock/SCRATCH/511013/C11760-P94/C11760-P94.minimised.mol

>  <scratch_subdir>  (1378) 
/opt/xchem-fragalysis-2/maxwin/BulkDock/SCRATCH/511013/C11760-P94

>  <fragmenstein_runtime>  (1378) 
10.095283269882202

>  <fragmenstein_outcome>  (1378) 
too moved

>  <fragmenstein_mode>  (1378) 
expansion

>  <fragmenstein_error>  (1378) 


$$$$
C11760-P68
     RDKit          3D

 46 49  0  0  0  0  0  0  0  0999 V2000
  -15.7994  -24.6009   31.7787 C   0  0  0  0  0  0  0  0  0  0  0  0
  -14.7649  -23.8123   32.8134 C   0  0  0  0  0  0  0  0  0  0  0  0
  -13.0176  -24.4746   33.2048 N   0  0  0  0  0  0  0  0  0  0  0  0
  -11.6622  -23.0986   32.2025 C   0  0  0  0  0  0  0  0  0  0  0  0
  -10.8826  -23.3155   31.1444 C   0  0  0  0  0  0  0  0  0  0  0  0
  -10.8270  -22.4913   29.7624 C   0  0  0  0  0  0  0  0  0  0  0  0
  -11.5777  -21.5062   29.3424 C   0  0  0  0  0  0  0  0  0  0  0  0
  -12.3188  -21.0019   30.3306 C   0  0  0  0  0  0  0  0  0  0  0  0
  -12.6275  -21.4225   31.8986 C   0  0  0  0  0  0  0  0  0  0  0  0
  -14.5815  -21.9879   32.3369 N   0  0  0  0  0  0  0  0  0  0  0  0
  -15.7124  -21.6245   31.3386 C   0  0  0  0  0  0  0  0  0  0  0  0
  -17.2102  -22.0158   31.6023 C   0  0  0  0  0  0  0  0  0  0  0  0
  -18.2160  -22.1586   30.3480 C   0  0  0  0  0  0  0  0  0  0  0  0
  -18.8272  -21.1377   30.1543 O   0  0  0  0  0  0  0  0  0  0  0  0
  -18.2497  -23.4546   29.6253 N   0  0  0  0  0  0  0  0  0  0  0  0
  -19.1307  -23.9325   28.4862 C   0  0  0  0  0  0  0  0  0  0  0  0
  -19.3760  -22.8276   27.4554 C   0  0  0  0  0  0  0  0  0  0  0  0
  -18.8564  -25.2345   27.6432 C   0  0  0  0  0  0  0  0  0  0  0  0
  -19.8037  -26.2757   27.6844 C   0  0  0  0  0  0  0  0  0  0  0  0
  -19.8167  -27.3481   26.7514 C   0  0  0  0  0  0  0  0  0  0  0  0
  -18.8196  -27.4470   25.7591 C   0  0  0  0  0  0  0  0  0  0  0  0
  -18.6677  -28.4749   24.8440 N   0  0  0  0  0  0  0  0  0  0  0  0
  -17.7396  -28.1410   23.9814 C   0  0  0  0  0  0  0  0  0  0  0  0
  -16.8696  -26.6985   24.3168 S   0  0  0  0  0  0  0  0  0  0  0  0
  -17.8959  -26.4055   25.6715 C   0  0  0  0  0  0  0  0  0  0  0  0
  -17.9332  -25.3013   26.5706 C   0  0  0  0  0  0  0  0  0  0  0  0
  -16.8395  -24.5649   32.1041 H   0  0  0  0  0  0  0  0  0  0  0  0
  -15.5587  -25.6616   31.7396 H   0  0  0  0  0  0  0  0  0  0  0  0
  -15.7198  -24.1901   30.7751 H   0  0  0  0  0  0  0  0  0  0  0  0
  -10.1791  -24.1167   31.3347 H   0  0  0  0  0  0  0  0  0  0  0  0
  -10.2890  -22.9682   28.9162 H   0  0  0  0  0  0  0  0  0  0  0  0
  -11.7145  -21.3246   28.2905 H   0  0  0  0  0  0  0  0  0  0  0  0
  -13.1009  -20.4551   29.8088 H   0  0  0  0  0  0  0  0  0  0  0  0
  -15.6312  -20.5414   31.2622 H   0  0  0  0  0  0  0  0  0  0  0  0
  -15.4245  -22.1185   30.4193 H   0  0  0  0  0  0  0  0  0  0  0  0
  -17.3776  -22.8263   32.3001 H   0  0  0  0  0  0  0  0  0  0  0  0
  -17.6176  -21.1701   32.1806 H   0  0  0  0  0  0  0  0  0  0  0  0
  -17.6678  -24.1187   30.1105 H   0  0  0  0  0  0  0  0  0  0  0  0
  -20.0906  -24.0921   28.9953 H   0  0  0  0  0  0  0  0  0  0  0  0
  -20.1169  -23.1364   26.7078 H   0  0  0  0  0  0  0  0  0  0  0  0
  -18.4731  -22.5343   26.9182 H   0  0  0  0  0  0  0  0  0  0  0  0
  -19.7729  -21.9258   27.9318 H   0  0  0  0  0  0  0  0  0  0  0  0
  -20.6019  -26.2515   28.4274 H   0  0  0  0  0  0  0  0  0  0  0  0
  -20.5736  -28.1242   26.8244 H   0  0  0  0  0  0  0  0  0  0  0  0
  -17.5464  -28.7412   23.1021 H   0  0  0  0  0  0  0  0  0  0  0  0
  -17.3194  -24.4397   26.3357 H   0  0  0  0  0  0  0  0  0  0  0  0
  1  2  1  0
  2  3  2  0
  3  4  1  0
  4  5  2  0
  5  6  1  0
  6  7  2  0
  7  8  1  0
  8  9  2  0
  9 10  1  0
 10 11  1  0
 11 12  1  0
 12 13  1  0
 13 14  2  0
 13 15  1  0
 15 16  1  0
 16 17  1  0
 16 18  1  0
 18 19  2  0
 19 20  1  0
 20 21  2  0
 21 22  1  0
 22 23  2  0
 23 24  1  0
 24 25  1  0
 25 26  2  0
 10  2  1  0
 26 18  1  0
  9  4  1  0
 25 21  1  0
  1 27  1  0
  1 28  1  0
  1 29  1  0
  5 30  1  0
  6 31  1  0
  7 32  1  0
  8 33  1  0
 11 34  1  0
 11 35  1  0
 12 36  1  0
 12 37  1  0
 15 38  1  0
 16 39  1  0
 17 40  1  0
 17 41  1  0
 17 42  1  0
 19 43  1  0
 20 44  1  0
 23 45  1  0
 26 46  1  0
M  END
>  <Energy>  (1379) 
823.55980054908616

>  <compound_id>  (1379) 
11760

>  <target_id>  (1379) 
1

>  <reference_id>  (1379) 
68

>  <inspiration_ids>  (1379) 
[94, 68]

>  <energy_score>  (1379) 
746.947120579775

>  <distance_score>  (1379) 
10.280085734362805

>  <path>  (1379) 
/opt/xchem-fragalysis-2/maxwin/BulkDock/SCRATCH/511013/C11760-P68/C11760-P68.minimised.mol

>  <scratch_subdir>  (1379) 
/opt/xchem-fragalysis-2/maxwin/BulkDock/SCRATCH/511013/C11760-P68

>  <fragmenstein_runtime>  (1379) 
15.906904220581055

>  <fragmenstein_outcome>  (1379) 
too moved

>  <fragmenstein_mode>  (1379) 
expansion

>  <fragmenstein_error>  (1379) 


$$$$
C11763-P94
     RDKit          3D

 40 44  0  0  0  0  0  0  0  0999 V2000
  -14.9540  -32.4007   25.6977 O   0  0  0  0  0  0  0  0  0  0  0  0
  -13.8442  -32.3100   26.0683 C   0  0  0  0  0  0  0  0  0  0  0  0
  -13.2240  -31.4355   27.2178 N   0  0  0  0  0  0  0  0  0  0  0  0
  -13.8678  -30.5690   28.2042 C   0  0  0  0  0  0  0  0  0  0  0  0
  -14.6123  -29.4496   27.8659 C   0  0  0  0  0  0  0  0  0  0  0  0
  -14.0487  -28.1546   28.1966 C   0  0  0  0  0  0  0  0  0  0  0  0
  -12.8950  -28.0844   28.9812 C   0  0  0  0  0  0  0  0  0  0  0  0
  -12.0160  -26.9151   28.9762 N   0  0  0  0  0  0  0  0  0  0  0  0
  -11.9457  -26.0187   27.9384 C   0  0  0  0  0  0  0  0  0  0  0  0
  -11.5721  -24.8252   28.3178 N   0  0  0  0  0  0  0  0  0  0  0  0
  -11.3518  -24.9502   29.6444 C   0  0  0  0  0  0  0  0  0  0  0  0
  -11.2114  -23.9388   30.5864 C   0  0  0  0  0  0  0  0  0  0  0  0
  -10.8752  -24.2856   31.8800 C   0  0  0  0  0  0  0  0  0  0  0  0
  -10.7288  -25.6200   32.2183 C   0  0  0  0  0  0  0  0  0  0  0  0
  -10.9931  -26.6556   31.3158 C   0  0  0  0  0  0  0  0  0  0  0  0
  -11.3454  -26.2893   30.0270 C   0  0  0  0  0  0  0  0  0  0  0  0
  -12.7157  -29.1106   29.8188 N   0  0  0  0  0  0  0  0  0  0  0  0
  -13.1404  -30.3369   29.3701 C   0  0  0  0  0  0  0  0  0  0  0  0
  -12.7568  -33.2825   25.4074 C   0  0  0  0  0  0  0  0  0  0  0  0
  -12.7788  -34.6196   25.8388 C   0  0  0  0  0  0  0  0  0  0  0  0
  -11.7910  -35.5715   25.4660 C   0  0  0  0  0  0  0  0  0  0  0  0
  -10.7564  -35.2370   24.5710 C   0  0  0  0  0  0  0  0  0  0  0  0
   -9.7075  -36.0672   24.1750 N   0  0  0  0  0  0  0  0  0  0  0  0
   -8.9670  -35.4409   23.2900 C   0  0  0  0  0  0  0  0  0  0  0  0
   -9.4689  -33.8490   22.8870 S   0  0  0  0  0  0  0  0  0  0  0  0
  -10.7741  -33.9429   24.0358 C   0  0  0  0  0  0  0  0  0  0  0  0
  -11.7494  -32.9514   24.4559 C   0  0  0  0  0  0  0  0  0  0  0  0
  -12.2232  -31.5365   27.2153 H   0  0  0  0  0  0  0  0  0  0  0  0
  -15.3614  -29.5002   27.0757 H   0  0  0  0  0  0  0  0  0  0  0  0
  -14.4289  -27.2873   27.6606 H   0  0  0  0  0  0  0  0  0  0  0  0
  -12.2402  -26.2776   26.9293 H   0  0  0  0  0  0  0  0  0  0  0  0
  -11.3622  -22.9048   30.2992 H   0  0  0  0  0  0  0  0  0  0  0  0
  -10.7430  -23.5156   32.6333 H   0  0  0  0  0  0  0  0  0  0  0  0
  -10.4670  -25.8731   33.2427 H   0  0  0  0  0  0  0  0  0  0  0  0
  -10.9780  -27.6886   31.6370 H   0  0  0  0  0  0  0  0  0  0  0  0
  -12.7247  -31.1619   29.9414 H   0  0  0  0  0  0  0  0  0  0  0  0
  -13.5479  -34.9350   26.5455 H   0  0  0  0  0  0  0  0  0  0  0  0
  -11.8255  -36.5744   25.8840 H   0  0  0  0  0  0  0  0  0  0  0  0
   -8.0958  -35.8897   22.8308 H   0  0  0  0  0  0  0  0  0  0  0  0
  -11.6876  -31.9469   24.0423 H   0  0  0  0  0  0  0  0  0  0  0  0
  1  2  2  0
  2  3  1  0
  3  4  1  0
  4  5  2  0
  5  6  1  0
  6  7  2  0
  7  8  1  0
  8  9  1  0
  9 10  2  0
 10 11  1  0
 11 12  2  0
 12 13  1  0
 13 14  2  0
 14 15  1  0
 15 16  2  0
  7 17  1  0
 17 18  2  0
  2 19  1  0
 19 20  2  0
 20 21  1  0
 21 22  2  0
 22 23  1  0
 23 24  2  0
 24 25  1  0
 25 26  1  0
 26 27  2  0
 18  4  1  0
 27 19  1  0
 16  8  1  0
 26 22  1  0
 16 11  1  0
  3 28  1  0
  5 29  1  0
  6 30  1  0
  9 31  1  0
 12 32  1  0
 13 33  1  0
 14 34  1  0
 15 35  1  0
 18 36  1  0
 20 37  1  0
 21 38  1  0
 24 39  1  0
 27 40  1  0
M  END
>  <Energy>  (1380) 
182.86765836411232

>  <compound_id>  (1380) 
11763

>  <target_id>  (1380) 
1

>  <reference_id>  (1380) 
94

>  <inspiration_ids>  (1380) 
[94, 68]

>  <energy_score>  (1380) 
16.055973770659648

>  <distance_score>  (1380) 
4.094088387593787

>  <path>  (1380) 
/opt/xchem-fragalysis-2/maxwin/BulkDock/SCRATCH/511013/C11763-P94/C11763-P94.minimised.mol

>  <scratch_subdir>  (1380) 
/opt/xchem-fragalysis-2/maxwin/BulkDock/SCRATCH/511013/C11763-P94

>  <fragmenstein_runtime>  (1380) 
7.08269190788269

>  <fragmenstein_outcome>  (1380) 
too moved

>  <fragmenstein_mode>  (1380) 
expansion

>  <fragmenstein_error>  (1380) 


$$$$
C11763-P68
     RDKit          3D

 40 44  0  0  0  0  0  0  0  0999 V2000
  -11.5293  -32.4420   26.0698 O   0  0  0  0  0  0  0  0  0  0  0  0
  -12.4821  -31.7231   26.1447 C   0  0  0  0  0  0  0  0  0  0  0  0
  -12.5788  -30.2792   26.4890 N   0  0  0  0  0  0  0  0  0  0  0  0
  -11.2473  -29.0201   27.0452 C   0  0  0  0  0  0  0  0  0  0  0  0
  -10.0486  -28.9593   27.5748 C   0  0  0  0  0  0  0  0  0  0  0  0
  -10.2242  -27.9389   28.4439 C   0  0  0  0  0  0  0  0  0  0  0  0
  -11.5109  -28.0166   28.9789 C   0  0  0  0  0  0  0  0  0  0  0  0
  -12.1232  -28.2962   30.6405 N   0  0  0  0  0  0  0  0  0  0  0  0
  -12.3730  -29.4189   31.5959 C   0  0  0  0  0  0  0  0  0  0  0  0
  -11.1793  -29.5508   32.1687 N   0  0  0  0  0  0  0  0  0  0  0  0
  -10.6734  -28.4690   31.4701 C   0  0  0  0  0  0  0  0  0  0  0  0
   -9.4594  -27.7237   30.6455 C   0  0  0  0  0  0  0  0  0  0  0  0
   -8.9113  -26.4148   31.2265 C   0  0  0  0  0  0  0  0  0  0  0  0
   -9.6535  -25.8775   32.3056 C   0  0  0  0  0  0  0  0  0  0  0  0
  -11.0609  -26.8125   32.7830 C   0  0  0  0  0  0  0  0  0  0  0  0
  -11.6645  -27.7354   31.9640 C   0  0  0  0  0  0  0  0  0  0  0  0
  -12.0101  -27.4221   27.8854 N   0  0  0  0  0  0  0  0  0  0  0  0
  -11.5439  -27.7437   26.6737 C   0  0  0  0  0  0  0  0  0  0  0  0
  -13.7104  -32.4621   25.7037 C   0  0  0  0  0  0  0  0  0  0  0  0
  -14.4062  -33.1479   26.6950 C   0  0  0  0  0  0  0  0  0  0  0  0
  -14.6359  -34.5338   26.5586 C   0  0  0  0  0  0  0  0  0  0  0  0
  -14.1132  -35.2483   25.4538 C   0  0  0  0  0  0  0  0  0  0  0  0
  -14.0564  -36.6260   25.3093 N   0  0  0  0  0  0  0  0  0  0  0  0
  -13.4308  -36.9293   24.1925 C   0  0  0  0  0  0  0  0  0  0  0  0
  -12.9268  -35.6132   23.2217 S   0  0  0  0  0  0  0  0  0  0  0  0
  -13.5397  -34.5250   24.4130 C   0  0  0  0  0  0  0  0  0  0  0  0
  -13.4365  -33.1249   24.4637 C   0  0  0  0  0  0  0  0  0  0  0  0
  -13.5325  -29.9727   26.3760 H   0  0  0  0  0  0  0  0  0  0  0  0
   -9.1400  -29.1610   27.0921 H   0  0  0  0  0  0  0  0  0  0  0  0
   -9.9385  -26.9467   28.0721 H   0  0  0  0  0  0  0  0  0  0  0  0
  -13.3448  -29.8047   31.8798 H   0  0  0  0  0  0  0  0  0  0  0  0
   -8.7918  -28.3535   30.0351 H   0  0  0  0  0  0  0  0  0  0  0  0
   -8.1098  -25.8716   30.7462 H   0  0  0  0  0  0  0  0  0  0  0  0
   -9.5015  -24.8569   32.6321 H   0  0  0  0  0  0  0  0  0  0  0  0
  -11.3791  -27.0584   33.7750 H   0  0  0  0  0  0  0  0  0  0  0  0
  -12.0876  -27.3378   25.8450 H   0  0  0  0  0  0  0  0  0  0  0  0
  -14.5919  -32.6886   27.6642 H   0  0  0  0  0  0  0  0  0  0  0  0
  -15.0855  -35.0912   27.3767 H   0  0  0  0  0  0  0  0  0  0  0  0
  -13.2559  -37.9538   23.8904 H   0  0  0  0  0  0  0  0  0  0  0  0
  -12.8116  -32.6476   23.7097 H   0  0  0  0  0  0  0  0  0  0  0  0
  1  2  2  0
  2  3  1  0
  3  4  1  0
  4  5  2  0
  5  6  1  0
  6  7  2  0
  7  8  1  0
  8  9  1  0
  9 10  2  0
 10 11  1  0
 11 12  2  0
 12 13  1  0
 13 14  2  0
 14 15  1  0
 15 16  2  0
  7 17  1  0
 17 18  2  0
  2 19  1  0
 19 20  2  0
 20 21  1  0
 21 22  2  0
 22 23  1  0
 23 24  2  0
 24 25  1  0
 25 26  1  0
 26 27  2  0
 18  4  1  0
 27 19  1  0
 16  8  1  0
 26 22  1  0
 16 11  1  0
  3 28  1  0
  5 29  1  0
  6 30  1  0
  9 31  1  0
 12 32  1  0
 13 33  1  0
 14 34  1  0
 15 35  1  0
 18 36  1  0
 20 37  1  0
 21 38  1  0
 24 39  1  0
 27 40  1  0
M  END
>  <Energy>  (1381) 
808.96815229984395

>  <compound_id>  (1381) 
11763

>  <target_id>  (1381) 
1

>  <reference_id>  (1381) 
68

>  <inspiration_ids>  (1381) 
[94, 68]

>  <energy_score>  (1381) 
608.7126951130558

>  <distance_score>  (1381) 
5.137482778962015

>  <path>  (1381) 
/opt/xchem-fragalysis-2/maxwin/BulkDock/SCRATCH/511013/C11763-P68/C11763-P68.minimised.mol

>  <scratch_subdir>  (1381) 
/opt/xchem-fragalysis-2/maxwin/BulkDock/SCRATCH/511013/C11763-P68

>  <fragmenstein_runtime>  (1381) 
14.835639953613281

>  <fragmenstein_outcome>  (1381) 
too moved

>  <fragmenstein_mode>  (1381) 
expansion

>  <fragmenstein_error>  (1381) 


$$$$
C11766-P94
     RDKit          3D

 44 48  0  0  0  0  0  0  0  0999 V2000
  -10.1098  -30.5868   26.5527 O   0  0  0  0  0  0  0  0  0  0  0  0
  -10.1876  -29.8925   25.6409 C   0  0  0  0  0  0  0  0  0  0  0  0
   -9.9512  -30.6771   24.3763 C   0  0  0  0  0  0  0  0  0  0  0  0
  -10.8129  -31.7939   24.2444 C   0  0  0  0  0  0  0  0  0  0  0  0
  -10.5332  -32.8694   23.3918 C   0  0  0  0  0  0  0  0  0  0  0  0
   -9.3251  -32.8704   22.6784 C   0  0  0  0  0  0  0  0  0  0  0  0
   -8.8521  -33.9165   21.8983 N   0  0  0  0  0  0  0  0  0  0  0  0
   -7.6564  -33.6055   21.4504 C   0  0  0  0  0  0  0  0  0  0  0  0
   -7.0595  -32.0581   21.8668 S   0  0  0  0  0  0  0  0  0  0  0  0
   -8.4891  -31.7556   22.7847 C   0  0  0  0  0  0  0  0  0  0  0  0
   -8.7998  -30.6355   23.5976 C   0  0  0  0  0  0  0  0  0  0  0  0
  -10.6157  -28.2534   25.4763 N   0  0  0  0  0  0  0  0  0  0  0  0
  -10.8866  -27.2286   26.2964 C   0  0  0  0  0  0  0  0  0  0  0  0
  -12.1756  -26.1754   25.3802 C   0  0  0  0  0  0  0  0  0  0  0  0
  -13.1388  -25.7318   26.4668 C   0  0  0  0  0  0  0  0  0  0  0  0
  -12.0272  -25.7142   27.4261 C   0  0  0  0  0  0  0  0  0  0  0  0
  -12.0713  -25.6881   28.9509 C   0  0  0  0  0  0  0  0  0  0  0  0
  -11.1001  -26.1050   29.7558 N   0  0  0  0  0  0  0  0  0  0  0  0
  -10.4422  -24.9092   29.7048 C   0  0  0  0  0  0  0  0  0  0  0  0
   -9.4015  -24.7527   28.8251 C   0  0  0  0  0  0  0  0  0  0  0  0
   -9.7092  -23.7256   27.9198 C   0  0  0  0  0  0  0  0  0  0  0  0
  -10.6667  -22.6872   28.1457 C   0  0  0  0  0  0  0  0  0  0  0  0
  -11.3425  -22.5703   29.3300 C   0  0  0  0  0  0  0  0  0  0  0  0
  -11.3561  -23.8430   29.8389 C   0  0  0  0  0  0  0  0  0  0  0  0
  -12.4631  -24.6163   29.7870 N   0  0  0  0  0  0  0  0  0  0  0  0
  -11.2932  -27.2266   27.0155 C   0  0  0  0  0  0  0  0  0  0  0  0
  -11.6866  -31.8684   24.8896 H   0  0  0  0  0  0  0  0  0  0  0  0
  -11.1909  -33.7299   23.3439 H   0  0  0  0  0  0  0  0  0  0  0  0
   -7.0721  -34.2796   20.8393 H   0  0  0  0  0  0  0  0  0  0  0  0
   -8.0431  -29.8833   23.7614 H   0  0  0  0  0  0  0  0  0  0  0  0
   -9.7267  -26.7383   26.6640 H   0  0  0  0  0  0  0  0  0  0  0  0
  -10.3474  -26.6867   25.4066 H   0  0  0  0  0  0  0  0  0  0  0  0
  -12.6277  -26.7200   24.5586 H   0  0  0  0  0  0  0  0  0  0  0  0
  -11.6176  -25.3081   24.9981 H   0  0  0  0  0  0  0  0  0  0  0  0
  -13.5860  -24.7640   26.2400 H   0  0  0  0  0  0  0  0  0  0  0  0
  -13.9100  -26.4696   26.6990 H   0  0  0  0  0  0  0  0  0  0  0  0
  -11.3706  -24.9236   27.0892 H   0  0  0  0  0  0  0  0  0  0  0  0
   -8.8121  -25.6208   28.5717 H   0  0  0  0  0  0  0  0  0  0  0  0
   -9.3186  -23.8576   26.9260 H   0  0  0  0  0  0  0  0  0  0  0  0
  -10.9704  -22.0004   27.3628 H   0  0  0  0  0  0  0  0  0  0  0  0
  -12.1669  -21.8761   29.4306 H   0  0  0  0  0  0  0  0  0  0  0  0
  -12.7526  -24.8761   30.7078 H   0  0  0  0  0  0  0  0  0  0  0  0
  -10.7318  -27.4086   28.0600 H   0  0  0  0  0  0  0  0  0  0  0  0
  -12.1285  -27.9697   27.4460 H   0  0  0  0  0  0  0  0  0  0  0  0
  1  2  2  0
  2  3  1  0
  3  4  2  0
  4  5  1  0
  5  6  2  0
  6  7  1  0
  7  8  2  0
  8  9  1  0
  9 10  1  0
 10 11  2  0
  2 12  1  0
 12 13  1  0
 13 14  1  0
 14 15  1  0
 15 16  1  0
 16 17  1  0
 17 18  2  0
 18 19  1  0
 19 20  2  0
 20 21  1  0
 21 22  2  0
 22 23  1  0
 23 24  2  0
 24 25  1  0
 16 26  1  0
 11  3  1  0
 26 12  1  0
 10  6  1  0
 25 17  1  0
 24 19  1  0
  4 27  1  0
  5 28  1  0
  8 29  1  0
 11 30  1  0
 13 31  1  0
 13 32  1  0
 14 33  1  0
 14 34  1  0
 15 35  1  0
 15 36  1  0
 16 37  1  0
 20 38  1  0
 21 39  1  0
 22 40  1  0
 23 41  1  0
 25 42  1  0
 26 43  1  0
 26 44  1  0
M  END
>  <Energy>  (1382) 
972.96137606642162

>  <compound_id>  (1382) 
11766

>  <target_id>  (1382) 
1

>  <reference_id>  (1382) 
94

>  <inspiration_ids>  (1382) 
[94, 68]

>  <energy_score>  (1382) 
854.1652670988232

>  <distance_score>  (1382) 
3.6611870106793956

>  <path>  (1382) 
/opt/xchem-fragalysis-2/maxwin/BulkDock/SCRATCH/511013/C11766-P94/C11766-P94.minimised.mol

>  <scratch_subdir>  (1382) 
/opt/xchem-fragalysis-2/maxwin/BulkDock/SCRATCH/511013/C11766-P94

>  <fragmenstein_runtime>  (1382) 
8.900933027267456

>  <fragmenstein_outcome>  (1382) 
too moved

>  <fragmenstein_mode>  (1382) 
expansion

>  <fragmenstein_error>  (1382) 


$$$$
C11766-P68
     RDKit          3D

 44 48  0  0  0  0  0  0  0  0999 V2000
  -11.1715  -31.0029   23.1782 O   0  0  0  0  0  0  0  0  0  0  0  0
  -10.0292  -30.6255   23.5041 C   0  0  0  0  0  0  0  0  0  0  0  0
   -9.1930  -31.6489   23.1718 C   0  0  0  0  0  0  0  0  0  0  0  0
   -9.3287  -32.8254   24.1085 C   0  0  0  0  0  0  0  0  0  0  0  0
   -9.8849  -34.1515   24.0173 C   0  0  0  0  0  0  0  0  0  0  0  0
  -10.4519  -34.5669   22.8289 C   0  0  0  0  0  0  0  0  0  0  0  0
  -10.9563  -35.8255   22.5666 N   0  0  0  0  0  0  0  0  0  0  0  0
  -11.4686  -35.8304   21.3601 C   0  0  0  0  0  0  0  0  0  0  0  0
  -11.4099  -34.3465   20.5125 S   0  0  0  0  0  0  0  0  0  0  0  0
  -10.4932  -33.6470   21.7934 C   0  0  0  0  0  0  0  0  0  0  0  0
   -9.9206  -32.3321   21.9161 C   0  0  0  0  0  0  0  0  0  0  0  0
   -9.6385  -28.7963   24.6848 N   0  0  0  0  0  0  0  0  0  0  0  0
  -10.4793  -27.6452   25.1914 C   0  0  0  0  0  0  0  0  0  0  0  0
  -10.1975  -26.2137   26.4506 C   0  0  0  0  0  0  0  0  0  0  0  0
  -10.0955  -27.1332   27.6925 C   0  0  0  0  0  0  0  0  0  0  0  0
  -11.1022  -28.1521   27.6193 C   0  0  0  0  0  0  0  0  0  0  0  0
  -11.7905  -28.1643   29.5318 C   0  0  0  0  0  0  0  0  0  0  0  0
  -12.8085  -28.6167   30.3289 N   0  0  0  0  0  0  0  0  0  0  0  0
  -12.7710  -29.3614   31.5941 C   0  0  0  0  0  0  0  0  0  0  0  0
  -13.5951  -30.3097   32.2381 C   0  0  0  0  0  0  0  0  0  0  0  0
  -13.6709  -30.3029   33.6160 C   0  0  0  0  0  0  0  0  0  0  0  0
  -13.0469  -29.2787   34.2797 C   0  0  0  0  0  0  0  0  0  0  0  0
  -12.2054  -28.4026   33.5902 C   0  0  0  0  0  0  0  0  0  0  0  0
  -11.8946  -28.6273   32.2402 C   0  0  0  0  0  0  0  0  0  0  0  0
  -11.0567  -28.3622   31.1350 N   0  0  0  0  0  0  0  0  0  0  0  0
  -11.1364  -27.7072   25.5870 C   0  0  0  0  0  0  0  0  0  0  0  0
   -8.5219  -32.9451   24.8460 H   0  0  0  0  0  0  0  0  0  0  0  0
   -9.7455  -34.8546   24.8341 H   0  0  0  0  0  0  0  0  0  0  0  0
  -11.9308  -36.7100   20.9318 H   0  0  0  0  0  0  0  0  0  0  0  0
  -10.2435  -31.6274   21.1335 H   0  0  0  0  0  0  0  0  0  0  0  0
   -9.3918  -27.3322   25.0935 H   0  0  0  0  0  0  0  0  0  0  0  0
  -10.7835  -27.2472   24.0666 H   0  0  0  0  0  0  0  0  0  0  0  0
   -9.4518  -25.4949   26.1197 H   0  0  0  0  0  0  0  0  0  0  0  0
  -11.0789  -25.5581   26.4569 H   0  0  0  0  0  0  0  0  0  0  0  0
   -9.3526  -27.9280   27.7557 H   0  0  0  0  0  0  0  0  0  0  0  0
  -10.0196  -26.5542   28.5832 H   0  0  0  0  0  0  0  0  0  0  0  0
  -10.6379  -29.1366   27.5570 H   0  0  0  0  0  0  0  0  0  0  0  0
  -14.1789  -31.0439   31.7019 H   0  0  0  0  0  0  0  0  0  0  0  0
  -14.2952  -31.0153   34.1435 H   0  0  0  0  0  0  0  0  0  0  0  0
  -13.2149  -29.1472   35.3404 H   0  0  0  0  0  0  0  0  0  0  0  0
  -11.8084  -27.5913   34.1475 H   0  0  0  0  0  0  0  0  0  0  0  0
  -10.1373  -27.9858   31.1634 H   0  0  0  0  0  0  0  0  0  0  0  0
  -12.1464  -28.3019   25.4707 H   0  0  0  0  0  0  0  0  0  0  0  0
  -11.9358  -26.7339   25.4701 H   0  0  0  0  0  0  0  0  0  0  0  0
  1  2  2  0
  2  3  1  0
  3  4  2  0
  4  5  1  0
  5  6  2  0
  6  7  1  0
  7  8  2  0
  8  9  1  0
  9 10  1  0
 10 11  2  0
  2 12  1  0
 12 13  1  0
 13 14  1  0
 14 15  1  0
 15 16  1  0
 16 17  1  0
 17 18  2  0
 18 19  1  0
 19 20  2  0
 20 21  1  0
 21 22  2  0
 22 23  1  0
 23 24  2  0
 24 25  1  0
 16 26  1  0
 11  3  1  0
 26 12  1  0
 10  6  1  0
 25 17  1  0
 24 19  1  0
  4 27  1  0
  5 28  1  0
  8 29  1  0
 11 30  1  0
 13 31  1  0
 13 32  1  0
 14 33  1  0
 14 34  1  0
 15 35  1  0
 15 36  1  0
 16 37  1  0
 20 38  1  0
 21 39  1  0
 22 40  1  0
 23 41  1  0
 25 42  1  0
 26 43  1  0
 26 44  1  0
M  END
>  <Energy>  (1383) 
1619.526194869464

>  <compound_id>  (1383) 
11766

>  <target_id>  (1383) 
1

>  <reference_id>  (1383) 
68

>  <inspiration_ids>  (1383) 
[94, 68]

>  <energy_score>  (1383) 
1500.730085901869

>  <distance_score>  (1383) 
4.796720186600834

>  <path>  (1383) 
/opt/xchem-fragalysis-2/maxwin/BulkDock/SCRATCH/511013/C11766-P68/C11766-P68.minimised.mol

>  <scratch_subdir>  (1383) 
/opt/xchem-fragalysis-2/maxwin/BulkDock/SCRATCH/511013/C11766-P68

>  <fragmenstein_runtime>  (1383) 
12.014536380767822

>  <fragmenstein_outcome>  (1383) 
too moved

>  <fragmenstein_mode>  (1383) 
expansion

>  <fragmenstein_error>  (1383) 


$$$$
C11767-P94
     RDKit          3D

 44 48  0  0  0  0  0  0  0  0999 V2000
   -9.5684  -31.4294   23.0218 O   0  0  0  0  0  0  0  0  0  0  0  0
  -10.2846  -31.7131   23.8735 C   0  0  0  0  0  0  0  0  0  0  0  0
  -10.9396  -33.0558   23.7347 C   0  0  0  0  0  0  0  0  0  0  0  0
  -11.9146  -33.5331   24.6033 C   0  0  0  0  0  0  0  0  0  0  0  0
  -12.1795  -34.9128   24.6765 C   0  0  0  0  0  0  0  0  0  0  0  0
  -11.4453  -35.8285   23.8880 C   0  0  0  0  0  0  0  0  0  0  0  0
  -11.5379  -37.2115   23.9284 N   0  0  0  0  0  0  0  0  0  0  0  0
  -10.6838  -37.7341   23.0767 C   0  0  0  0  0  0  0  0  0  0  0  0
   -9.7427  -36.6348   22.1658 S   0  0  0  0  0  0  0  0  0  0  0  0
  -10.5091  -35.3274   22.9852 C   0  0  0  0  0  0  0  0  0  0  0  0
  -10.2671  -33.9533   22.8704 C   0  0  0  0  0  0  0  0  0  0  0  0
  -10.6590  -31.0065   25.2592 N   0  0  0  0  0  0  0  0  0  0  0  0
  -10.2166  -29.9478   25.9613 C   0  0  0  0  0  0  0  0  0  0  0  0
  -11.4990  -29.5537   27.3503 C   0  0  0  0  0  0  0  0  0  0  0  0
  -11.6754  -27.9442   27.3837 C   0  0  0  0  0  0  0  0  0  0  0  0
  -11.3620  -26.9670   28.5023 C   0  0  0  0  0  0  0  0  0  0  0  0
  -11.1234  -27.1706   29.7785 N   0  0  0  0  0  0  0  0  0  0  0  0
  -11.0826  -25.9300   30.3768 C   0  0  0  0  0  0  0  0  0  0  0  0
  -10.9046  -25.5788   31.7192 C   0  0  0  0  0  0  0  0  0  0  0  0
  -11.1369  -24.2521   32.1009 C   0  0  0  0  0  0  0  0  0  0  0  0
  -11.5052  -23.2894   31.1600 C   0  0  0  0  0  0  0  0  0  0  0  0
  -11.6092  -23.6071   29.8016 C   0  0  0  0  0  0  0  0  0  0  0  0
  -11.3844  -24.9393   29.4566 C   0  0  0  0  0  0  0  0  0  0  0  0
  -11.4770  -25.6064   28.2675 N   0  0  0  0  0  0  0  0  0  0  0  0
  -10.8072  -27.6666   26.1293 C   0  0  0  0  0  0  0  0  0  0  0  0
  -10.0129  -29.2455   25.6924 C   0  0  0  0  0  0  0  0  0  0  0  0
  -12.4209  -32.8577   25.2865 H   0  0  0  0  0  0  0  0  0  0  0  0
  -12.9065  -35.2928   25.3882 H   0  0  0  0  0  0  0  0  0  0  0  0
  -10.5824  -38.8036   22.9477 H   0  0  0  0  0  0  0  0  0  0  0  0
   -9.4737  -33.6003   22.2128 H   0  0  0  0  0  0  0  0  0  0  0  0
  -10.2613  -30.8084   26.7947 H   0  0  0  0  0  0  0  0  0  0  0  0
   -9.0527  -30.4789   26.3199 H   0  0  0  0  0  0  0  0  0  0  0  0
  -12.3634  -30.1963   27.1132 H   0  0  0  0  0  0  0  0  0  0  0  0
  -11.3571  -30.1182   28.2414 H   0  0  0  0  0  0  0  0  0  0  0  0
  -12.7264  -27.6489   27.2729 H   0  0  0  0  0  0  0  0  0  0  0  0
  -10.6693  -26.3398   32.4524 H   0  0  0  0  0  0  0  0  0  0  0  0
  -11.0764  -23.9838   33.1520 H   0  0  0  0  0  0  0  0  0  0  0  0
  -11.7140  -22.2760   31.4931 H   0  0  0  0  0  0  0  0  0  0  0  0
  -11.8945  -22.8621   29.0675 H   0  0  0  0  0  0  0  0  0  0  0  0
  -11.7414  -25.1821   27.3905 H   0  0  0  0  0  0  0  0  0  0  0  0
   -9.9930  -26.9847   26.3644 H   0  0  0  0  0  0  0  0  0  0  0  0
  -11.3175  -27.2247   25.2656 H   0  0  0  0  0  0  0  0  0  0  0  0
  -10.1483  -28.9081   24.5195 H   0  0  0  0  0  0  0  0  0  0  0  0
   -8.8030  -28.9852   25.5035 H   0  0  0  0  0  0  0  0  0  0  0  0
  1  2  2  0
  2  3  1  0
  3  4  2  0
  4  5  1  0
  5  6  2  0
  6  7  1  0
  7  8  2  0
  8  9  1  0
  9 10  1  0
 10 11  2  0
  2 12  1  0
 12 13  1  0
 13 14  1  0
 14 15  1  0
 15 16  1  0
 16 17  2  0
 17 18  1  0
 18 19  2  0
 19 20  1  0
 20 21  2  0
 21 22  1  0
 22 23  2  0
 23 24  1  0
 15 25  1  0
 25 26  1  0
 11  3  1  0
 26 12  1  0
 10  6  1  0
 24 16  1  0
 23 18  1  0
  4 27  1  0
  5 28  1  0
  8 29  1  0
 11 30  1  0
 13 31  1  0
 13 32  1  0
 14 33  1  0
 14 34  1  0
 15 35  1  0
 19 36  1  0
 20 37  1  0
 21 38  1  0
 22 39  1  0
 24 40  1  0
 25 41  1  0
 25 42  1  0
 26 43  1  0
 26 44  1  0
M  END
>  <Energy>  (1384) 
819.44656667665777

>  <compound_id>  (1384) 
11767

>  <target_id>  (1384) 
1

>  <reference_id>  (1384) 
94

>  <inspiration_ids>  (1384) 
[94, 68]

>  <energy_score>  (1384) 
720.8543831585764

>  <distance_score>  (1384) 
3.180425666457088

>  <path>  (1384) 
/opt/xchem-fragalysis-2/maxwin/BulkDock/SCRATCH/511013/C11767-P94/C11767-P94.minimised.mol

>  <scratch_subdir>  (1384) 
/opt/xchem-fragalysis-2/maxwin/BulkDock/SCRATCH/511013/C11767-P94

>  <fragmenstein_runtime>  (1384) 
10.452107191085815

>  <fragmenstein_outcome>  (1384) 
too moved

>  <fragmenstein_mode>  (1384) 
expansion

>  <fragmenstein_error>  (1384) 


$$$$
C11767-P68
     RDKit          3D

 44 48  0  0  0  0  0  0  0  0999 V2000
  -12.2791  -31.1161   26.4511 O   0  0  0  0  0  0  0  0  0  0  0  0
  -12.9192  -30.2323   26.0811 C   0  0  0  0  0  0  0  0  0  0  0  0
  -14.6078  -30.7739   25.8989 C   0  0  0  0  0  0  0  0  0  0  0  0
  -14.8105  -31.5664   27.0643 C   0  0  0  0  0  0  0  0  0  0  0  0
  -14.5524  -32.9763   27.1619 C   0  0  0  0  0  0  0  0  0  0  0  0
  -14.1445  -33.6721   26.0158 C   0  0  0  0  0  0  0  0  0  0  0  0
  -13.6306  -34.9556   25.9053 N   0  0  0  0  0  0  0  0  0  0  0  0
  -13.4605  -35.2435   24.6328 C   0  0  0  0  0  0  0  0  0  0  0  0
  -14.0123  -34.0668   23.5098 S   0  0  0  0  0  0  0  0  0  0  0  0
  -14.3728  -33.0104   24.8169 C   0  0  0  0  0  0  0  0  0  0  0  0
  -14.9165  -31.7007   24.8601 C   0  0  0  0  0  0  0  0  0  0  0  0
  -12.5012  -28.3576   25.7921 N   0  0  0  0  0  0  0  0  0  0  0  0
  -10.7349  -27.7664   25.9644 C   0  0  0  0  0  0  0  0  0  0  0  0
   -9.9968  -28.4400   27.5549 C   0  0  0  0  0  0  0  0  0  0  0  0
  -10.1231  -27.3534   28.5772 C   0  0  0  0  0  0  0  0  0  0  0  0
   -9.0988  -27.1638   30.2220 C   0  0  0  0  0  0  0  0  0  0  0  0
   -9.2987  -26.4297   31.5825 N   0  0  0  0  0  0  0  0  0  0  0  0
   -9.2027  -24.7681   31.4812 C   0  0  0  0  0  0  0  0  0  0  0  0
  -10.5039  -23.7719   31.3735 C   0  0  0  0  0  0  0  0  0  0  0  0
  -10.8837  -22.5969   30.1690 C   0  0  0  0  0  0  0  0  0  0  0  0
  -10.4132  -22.9173   28.8262 C   0  0  0  0  0  0  0  0  0  0  0  0
   -9.4467  -24.0900   28.6988 C   0  0  0  0  0  0  0  0  0  0  0  0
   -8.6086  -24.8141   30.0748 C   0  0  0  0  0  0  0  0  0  0  0  0
   -8.0725  -26.1456   30.3221 N   0  0  0  0  0  0  0  0  0  0  0  0
  -10.3086  -26.3136   27.2621 C   0  0  0  0  0  0  0  0  0  0  0  0
  -11.2911  -27.3880   26.0537 C   0  0  0  0  0  0  0  0  0  0  0  0
  -14.9793  -31.1043   28.0297 H   0  0  0  0  0  0  0  0  0  0  0  0
  -14.5605  -33.4632   28.1324 H   0  0  0  0  0  0  0  0  0  0  0  0
  -13.0393  -36.1845   24.3034 H   0  0  0  0  0  0  0  0  0  0  0  0
  -15.5257  -31.3852   24.0242 H   0  0  0  0  0  0  0  0  0  0  0  0
  -10.0491  -27.5772   24.9376 H   0  0  0  0  0  0  0  0  0  0  0  0
   -9.9995  -28.5721   25.7475 H   0  0  0  0  0  0  0  0  0  0  0  0
  -10.5933  -29.2990   27.6645 H   0  0  0  0  0  0  0  0  0  0  0  0
   -9.0027  -28.8364   27.4759 H   0  0  0  0  0  0  0  0  0  0  0  0
  -11.0706  -27.7763   28.9267 H   0  0  0  0  0  0  0  0  0  0  0  0
  -11.0423  -23.7636   32.2543 H   0  0  0  0  0  0  0  0  0  0  0  0
  -11.6099  -21.8146   30.3501 H   0  0  0  0  0  0  0  0  0  0  0  0
  -10.8552  -22.4121   27.9783 H   0  0  0  0  0  0  0  0  0  0  0  0
   -9.0476  -24.2540   27.7070 H   0  0  0  0  0  0  0  0  0  0  0  0
   -7.0949  -26.3912   30.2773 H   0  0  0  0  0  0  0  0  0  0  0  0
  -10.7309  -25.3077   27.1047 H   0  0  0  0  0  0  0  0  0  0  0  0
   -9.5458  -25.9751   26.5917 H   0  0  0  0  0  0  0  0  0  0  0  0
  -12.1979  -26.8686   26.6638 H   0  0  0  0  0  0  0  0  0  0  0  0
  -11.5670  -26.4026   25.3353 H   0  0  0  0  0  0  0  0  0  0  0  0
  1  2  2  0
  2  3  1  0
  3  4  2  0
  4  5  1  0
  5  6  2  0
  6  7  1  0
  7  8  2  0
  8  9  1  0
  9 10  1  0
 10 11  2  0
  2 12  1  0
 12 13  1  0
 13 14  1  0
 14 15  1  0
 15 16  1  0
 16 17  2  0
 17 18  1  0
 18 19  2  0
 19 20  1  0
 20 21  2  0
 21 22  1  0
 22 23  2  0
 23 24  1  0
 15 25  1  0
 25 26  1  0
 11  3  1  0
 26 12  1  0
 10  6  1  0
 24 16  1  0
 23 18  1  0
  4 27  1  0
  5 28  1  0
  8 29  1  0
 11 30  1  0
 13 31  1  0
 13 32  1  0
 14 33  1  0
 14 34  1  0
 15 35  1  0
 19 36  1  0
 20 37  1  0
 21 38  1  0
 22 39  1  0
 24 40  1  0
 25 41  1  0
 25 42  1  0
 26 43  1  0
 26 44  1  0
M  END
>  <Energy>  (1385) 
1370.4601887572921

>  <compound_id>  (1385) 
11767

>  <target_id>  (1385) 
1

>  <reference_id>  (1385) 
68

>  <inspiration_ids>  (1385) 
[94, 68]

>  <energy_score>  (1385) 
1271.868005239219

>  <distance_score>  (1385) 
5.116554431821035

>  <path>  (1385) 
/opt/xchem-fragalysis-2/maxwin/BulkDock/SCRATCH/511013/C11767-P68/C11767-P68.minimised.mol

>  <scratch_subdir>  (1385) 
/opt/xchem-fragalysis-2/maxwin/BulkDock/SCRATCH/511013/C11767-P68

>  <fragmenstein_runtime>  (1385) 
10.088599681854248

>  <fragmenstein_outcome>  (1385) 
too moved

>  <fragmenstein_mode>  (1385) 
expansion

>  <fragmenstein_error>  (1385) 


$$$$
C11768-P94
     RDKit          3D

 38 41  0  0  0  0  0  0  0  0999 V2000
  -13.2219  -32.4837   25.5617 C   0  0  0  0  0  0  0  0  0  0  0  0
  -11.8476  -31.9963   25.0681 C   0  0  0  0  0  0  0  0  0  0  0  0
  -11.2730  -30.8145   25.8688 N   0  0  0  0  0  0  0  0  0  0  0  0
  -11.7485  -30.2573   27.2887 C   0  0  0  0  0  0  0  0  0  0  0  0
  -11.8639  -28.5349   27.8368 C   0  0  0  0  0  0  0  0  0  0  0  0
  -11.5109  -27.4410   27.1614 N   0  0  0  0  0  0  0  0  0  0  0  0
  -11.4385  -26.3787   28.0245 C   0  0  0  0  0  0  0  0  0  0  0  0
  -11.2393  -25.0239   27.7715 C   0  0  0  0  0  0  0  0  0  0  0  0
  -11.2443  -24.1621   28.8615 C   0  0  0  0  0  0  0  0  0  0  0  0
  -11.3690  -22.4713   28.5873 Cl  0  0  0  0  0  0  0  0  0  0  0  0
  -11.2278  -24.6429   30.1679 C   0  0  0  0  0  0  0  0  0  0  0  0
  -11.3333  -26.0112   30.4305 C   0  0  0  0  0  0  0  0  0  0  0  0
  -11.5942  -26.8208   29.3171 C   0  0  0  0  0  0  0  0  0  0  0  0
  -12.1774  -28.0761   29.1313 N   0  0  0  0  0  0  0  0  0  0  0  0
  -10.9594  -33.2379   24.6281 C   0  0  0  0  0  0  0  0  0  0  0  0
  -11.1766  -34.5322   25.1572 C   0  0  0  0  0  0  0  0  0  0  0  0
  -10.3821  -35.6500   24.8361 C   0  0  0  0  0  0  0  0  0  0  0  0
   -9.3539  -35.5327   23.8929 C   0  0  0  0  0  0  0  0  0  0  0  0
   -8.4637  -36.5392   23.5364 N   0  0  0  0  0  0  0  0  0  0  0  0
   -7.6648  -36.0879   22.5980 C   0  0  0  0  0  0  0  0  0  0  0  0
   -7.9407  -34.4801   22.0738 S   0  0  0  0  0  0  0  0  0  0  0  0
   -9.1923  -34.2974   23.2579 C   0  0  0  0  0  0  0  0  0  0  0  0
   -9.9669  -33.1470   23.6197 C   0  0  0  0  0  0  0  0  0  0  0  0
  -13.8692  -31.6789   25.9118 H   0  0  0  0  0  0  0  0  0  0  0  0
  -13.7553  -33.0056   24.7581 H   0  0  0  0  0  0  0  0  0  0  0  0
  -13.1804  -33.1591   26.4158 H   0  0  0  0  0  0  0  0  0  0  0  0
  -12.0558  -31.5417   24.0944 H   0  0  0  0  0  0  0  0  0  0  0  0
  -10.2700  -30.6815   25.7165 H   0  0  0  0  0  0  0  0  0  0  0  0
  -10.9048  -30.5705   27.8523 H   0  0  0  0  0  0  0  0  0  0  0  0
  -12.6773  -30.7295   27.6236 H   0  0  0  0  0  0  0  0  0  0  0  0
  -11.2054  -24.6594   26.7521 H   0  0  0  0  0  0  0  0  0  0  0  0
  -11.2125  -23.9515   31.0082 H   0  0  0  0  0  0  0  0  0  0  0  0
  -11.4120  -26.3743   31.4502 H   0  0  0  0  0  0  0  0  0  0  0  0
  -12.5027  -28.6686   29.8774 H   0  0  0  0  0  0  0  0  0  0  0  0
  -11.9583  -34.7217   25.8876 H   0  0  0  0  0  0  0  0  0  0  0  0
  -10.5579  -36.6048   25.3218 H   0  0  0  0  0  0  0  0  0  0  0  0
   -6.8825  -36.6925   22.1593 H   0  0  0  0  0  0  0  0  0  0  0  0
   -9.7734  -32.1927   23.1293 H   0  0  0  0  0  0  0  0  0  0  0  0
  1  2  1  0
  2  3  1  0
  3  4  1  0
  4  5  1  0
  5  6  2  0
  6  7  1  0
  7  8  2  0
  8  9  1  0
  9 10  1  0
  9 11  2  0
 11 12  1  0
 12 13  2  0
 13 14  1  0
  2 15  1  0
 15 16  2  0
 16 17  1  0
 17 18  2  0
 18 19  1  0
 19 20  2  0
 20 21  1  0
 21 22  1  0
 22 23  2  0
 14  5  1  0
 23 15  1  0
 13  7  1  0
 22 18  1  0
  1 24  1  0
  1 25  1  0
  1 26  1  0
  2 27  1  0
  3 28  1  0
  4 29  1  0
  4 30  1  0
  8 31  1  0
 11 32  1  0
 12 33  1  0
 14 34  1  0
 16 35  1  0
 17 36  1  0
 20 37  1  0
 23 38  1  0
M  END
>  <Energy>  (1386) 
106.91020328502044

>  <compound_id>  (1386) 
11768

>  <target_id>  (1386) 
1

>  <reference_id>  (1386) 
94

>  <inspiration_ids>  (1386) 
[94, 68]

>  <energy_score>  (1386) 
-7.425887443872966

>  <distance_score>  (1386) 
3.4845200993983996

>  <path>  (1386) 
/opt/xchem-fragalysis-2/maxwin/BulkDock/SCRATCH/511013/C11768-P94/C11768-P94.minimised.mol

>  <scratch_subdir>  (1386) 
/opt/xchem-fragalysis-2/maxwin/BulkDock/SCRATCH/511013/C11768-P94

>  <fragmenstein_runtime>  (1386) 
4.158236980438232

>  <fragmenstein_outcome>  (1386) 
too moved

>  <fragmenstein_mode>  (1386) 
expansion

>  <fragmenstein_error>  (1386) 


$$$$
C11768-P68
     RDKit          3D

 38 41  0  0  0  0  0  0  0  0999 V2000
  -14.8603  -30.4185   25.9420 C   0  0  0  0  0  0  0  0  0  0  0  0
  -13.2631  -30.3015   26.0147 C   0  0  0  0  0  0  0  0  0  0  0  0
  -12.4947  -28.4976   25.7067 N   0  0  0  0  0  0  0  0  0  0  0  0
  -13.5025  -27.2503   25.7648 C   0  0  0  0  0  0  0  0  0  0  0  0
  -12.6369  -26.0648   25.9509 C   0  0  0  0  0  0  0  0  0  0  0  0
  -11.3168  -26.1404   25.9137 N   0  0  0  0  0  0  0  0  0  0  0  0
  -10.9349  -24.9400   26.3999 C   0  0  0  0  0  0  0  0  0  0  0  0
   -9.7450  -24.5304   26.8918 C   0  0  0  0  0  0  0  0  0  0  0  0
   -9.7172  -23.5353   27.8373 C   0  0  0  0  0  0  0  0  0  0  0  0
   -8.1370  -22.8091   28.0566 Cl  0  0  0  0  0  0  0  0  0  0  0  0
  -10.8282  -22.7164   28.0088 C   0  0  0  0  0  0  0  0  0  0  0  0
  -11.7721  -22.7636   26.9932 C   0  0  0  0  0  0  0  0  0  0  0  0
  -11.9624  -24.0267   26.4515 C   0  0  0  0  0  0  0  0  0  0  0  0
  -13.0350  -24.7432   25.9815 N   0  0  0  0  0  0  0  0  0  0  0  0
  -12.9850  -32.0287   25.5029 C   0  0  0  0  0  0  0  0  0  0  0  0
  -13.6299  -32.9952   26.3081 C   0  0  0  0  0  0  0  0  0  0  0  0
  -13.5946  -34.3859   26.0363 C   0  0  0  0  0  0  0  0  0  0  0  0
  -12.8067  -34.8890   24.9871 C   0  0  0  0  0  0  0  0  0  0  0  0
  -12.5004  -36.2164   24.7323 N   0  0  0  0  0  0  0  0  0  0  0  0
  -11.7354  -36.2914   23.6649 C   0  0  0  0  0  0  0  0  0  0  0  0
  -11.3964  -34.8117   22.8698 S   0  0  0  0  0  0  0  0  0  0  0  0
  -12.2695  -33.9703   24.0991 C   0  0  0  0  0  0  0  0  0  0  0  0
  -12.4768  -32.5811   24.2656 C   0  0  0  0  0  0  0  0  0  0  0  0
  -15.3376  -29.4546   25.7561 H   0  0  0  0  0  0  0  0  0  0  0  0
  -15.2198  -31.0543   25.1204 H   0  0  0  0  0  0  0  0  0  0  0  0
  -15.2373  -30.9021   26.8473 H   0  0  0  0  0  0  0  0  0  0  0  0
  -12.9733  -30.5713   26.9878 H   0  0  0  0  0  0  0  0  0  0  0  0
  -12.0588  -28.3074   24.8319 H   0  0  0  0  0  0  0  0  0  0  0  0
  -14.0769  -27.1530   24.8353 H   0  0  0  0  0  0  0  0  0  0  0  0
  -14.2509  -27.2630   26.5457 H   0  0  0  0  0  0  0  0  0  0  0  0
   -8.8872  -24.8733   26.3973 H   0  0  0  0  0  0  0  0  0  0  0  0
  -10.8003  -21.8335   28.6385 H   0  0  0  0  0  0  0  0  0  0  0  0
  -12.4460  -21.9352   26.8500 H   0  0  0  0  0  0  0  0  0  0  0  0
  -13.9497  -24.3575   25.8038 H   0  0  0  0  0  0  0  0  0  0  0  0
  -14.1647  -32.6995   27.2105 H   0  0  0  0  0  0  0  0  0  0  0  0
  -14.0904  -35.0812   26.7083 H   0  0  0  0  0  0  0  0  0  0  0  0
  -11.3566  -37.2341   23.2915 H   0  0  0  0  0  0  0  0  0  0  0  0
  -12.1532  -31.9765   23.4197 H   0  0  0  0  0  0  0  0  0  0  0  0
  1  2  1  0
  2  3  1  0
  3  4  1  0
  4  5  1  0
  5  6  2  0
  6  7  1  0
  7  8  2  0
  8  9  1  0
  9 10  1  0
  9 11  2  0
 11 12  1  0
 12 13  2  0
 13 14  1  0
  2 15  1  0
 15 16  2  0
 16 17  1  0
 17 18  2  0
 18 19  1  0
 19 20  2  0
 20 21  1  0
 21 22  1  0
 22 23  2  0
 14  5  1  0
 23 15  1  0
 13  7  1  0
 22 18  1  0
  1 24  1  0
  1 25  1  0
  1 26  1  0
  2 27  1  0
  3 28  1  0
  4 29  1  0
  4 30  1  0
  8 31  1  0
 11 32  1  0
 12 33  1  0
 14 34  1  0
 16 35  1  0
 17 36  1  0
 20 37  1  0
 23 38  1  0
M  END
>  <Energy>  (1387) 
239.03295696879761

>  <compound_id>  (1387) 
11768

>  <target_id>  (1387) 
1

>  <reference_id>  (1387) 
68

>  <inspiration_ids>  (1387) 
[94, 68]

>  <energy_score>  (1387) 
146.2935844253011

>  <distance_score>  (1387) 
5.041037312251087

>  <path>  (1387) 
/opt/xchem-fragalysis-2/maxwin/BulkDock/SCRATCH/511013/C11768-P68/C11768-P68.minimised.mol

>  <scratch_subdir>  (1387) 
/opt/xchem-fragalysis-2/maxwin/BulkDock/SCRATCH/511013/C11768-P68

>  <fragmenstein_runtime>  (1387) 
8.827271223068237

>  <fragmenstein_outcome>  (1387) 
too moved

>  <fragmenstein_mode>  (1387) 
expansion

>  <fragmenstein_error>  (1387) 


$$$$
C11769-P94
     RDKit          3D

 41 45  0  0  0  0  0  0  0  0999 V2000
  -10.4979  -30.4706   26.7889 O   0  0  0  0  0  0  0  0  0  0  0  0
  -10.3155  -29.8785   25.7552 C   0  0  0  0  0  0  0  0  0  0  0  0
  -10.4294  -28.4122   25.4346 N   0  0  0  0  0  0  0  0  0  0  0  0
  -10.9125  -27.2241   26.2923 C   0  0  0  0  0  0  0  0  0  0  0  0
  -11.4288  -26.1507   25.5612 C   0  0  0  0  0  0  0  0  0  0  0  0
  -12.7147  -25.6585   25.8458 C   0  0  0  0  0  0  0  0  0  0  0  0
  -13.4757  -26.2801   26.8279 C   0  0  0  0  0  0  0  0  0  0  0  0
  -12.8369  -27.1633   27.6920 C   0  0  0  0  0  0  0  0  0  0  0  0
  -11.4385  -27.2673   27.6095 C   0  0  0  0  0  0  0  0  0  0  0  0
  -10.9085  -26.2382   28.6046 C   0  0  0  0  0  0  0  0  0  0  0  0
  -11.0880  -24.9342   28.4531 N   0  0  0  0  0  0  0  0  0  0  0  0
  -11.2105  -24.4287   29.7137 C   0  0  0  0  0  0  0  0  0  0  0  0
  -11.6702  -23.1726   30.1317 C   0  0  0  0  0  0  0  0  0  0  0  0
  -11.7180  -22.9085   31.5033 C   0  0  0  0  0  0  0  0  0  0  0  0
  -11.3105  -23.8721   32.4285 C   0  0  0  0  0  0  0  0  0  0  0  0
  -10.8300  -25.1225   32.0242 C   0  0  0  0  0  0  0  0  0  0  0  0
  -10.8200  -25.3676   30.6533 C   0  0  0  0  0  0  0  0  0  0  0  0
  -10.5325  -26.4861   29.9088 N   0  0  0  0  0  0  0  0  0  0  0  0
  -10.0336  -30.8436   24.6240 C   0  0  0  0  0  0  0  0  0  0  0  0
  -10.8791  -31.9739   24.5832 C   0  0  0  0  0  0  0  0  0  0  0  0
  -10.6227  -33.0743   23.7546 C   0  0  0  0  0  0  0  0  0  0  0  0
   -9.4709  -33.0672   22.9530 C   0  0  0  0  0  0  0  0  0  0  0  0
   -9.0181  -34.1282   22.1826 N   0  0  0  0  0  0  0  0  0  0  0  0
   -7.8838  -33.7894   21.6125 C   0  0  0  0  0  0  0  0  0  0  0  0
   -7.3254  -32.2000   21.9062 S   0  0  0  0  0  0  0  0  0  0  0  0
   -8.6765  -31.9171   22.9419 C   0  0  0  0  0  0  0  0  0  0  0  0
   -8.9677  -30.7751   23.7310 C   0  0  0  0  0  0  0  0  0  0  0  0
  -10.2885  -28.2777   24.4503 H   0  0  0  0  0  0  0  0  0  0  0  0
  -10.8986  -25.7329   24.7318 H   0  0  0  0  0  0  0  0  0  0  0  0
  -13.1468  -24.8456   25.2734 H   0  0  0  0  0  0  0  0  0  0  0  0
  -14.5212  -26.0415   26.9434 H   0  0  0  0  0  0  0  0  0  0  0  0
  -13.3649  -27.6285   28.5099 H   0  0  0  0  0  0  0  0  0  0  0  0
  -11.9907  -22.4440   29.3972 H   0  0  0  0  0  0  0  0  0  0  0  0
  -12.0967  -21.9556   31.8585 H   0  0  0  0  0  0  0  0  0  0  0  0
  -11.4033  -23.6581   33.4911 H   0  0  0  0  0  0  0  0  0  0  0  0
  -10.5344  -25.8744   32.7460 H   0  0  0  0  0  0  0  0  0  0  0  0
  -10.2804  -27.3757   30.3055 H   0  0  0  0  0  0  0  0  0  0  0  0
  -11.7279  -32.0321   25.2631 H   0  0  0  0  0  0  0  0  0  0  0  0
  -11.2606  -33.9511   23.7788 H   0  0  0  0  0  0  0  0  0  0  0  0
   -7.3276  -34.4668   20.9789 H   0  0  0  0  0  0  0  0  0  0  0  0
   -8.2608  -29.9587   23.7587 H   0  0  0  0  0  0  0  0  0  0  0  0
  1  2  2  0
  2  3  1  0
  3  4  1  0
  4  5  2  0
  5  6  1  0
  6  7  2  0
  7  8  1  0
  8  9  2  0
  9 10  1  0
 10 11  2  0
 11 12  1  0
 12 13  2  0
 13 14  1  0
 14 15  2  0
 15 16  1  0
 16 17  2  0
 17 18  1  0
  2 19  1  0
 19 20  2  0
 20 21  1  0
 21 22  2  0
 22 23  1  0
 23 24  2  0
 24 25  1  0
 25 26  1  0
 26 27  2  0
  9  4  1  0
 18 10  1  0
 27 19  1  0
 17 12  1  0
 26 22  1  0
  3 28  1  0
  5 29  1  0
  6 30  1  0
  7 31  1  0
  8 32  1  0
 13 33  1  0
 14 34  1  0
 15 35  1  0
 16 36  1  0
 18 37  1  0
 20 38  1  0
 21 39  1  0
 24 40  1  0
 27 41  1  0
M  END
>  <Energy>  (1388) 
162.64957535183649

>  <compound_id>  (1388) 
11769

>  <target_id>  (1388) 
1

>  <reference_id>  (1388) 
94

>  <inspiration_ids>  (1388) 
[94, 68]

>  <energy_score>  (1388) 
33.56936832436975

>  <distance_score>  (1388) 
4.02562044264672

>  <path>  (1388) 
/opt/xchem-fragalysis-2/maxwin/BulkDock/SCRATCH/511013/C11769-P94/C11769-P94.minimised.mol

>  <scratch_subdir>  (1388) 
/opt/xchem-fragalysis-2/maxwin/BulkDock/SCRATCH/511013/C11769-P94

>  <fragmenstein_runtime>  (1388) 
9.678136110305786

>  <fragmenstein_outcome>  (1388) 
too moved

>  <fragmenstein_mode>  (1388) 
expansion

>  <fragmenstein_error>  (1388) 


$$$$
C11769-P68
     RDKit          3D

 41 45  0  0  0  0  0  0  0  0999 V2000
  -14.5220  -30.5137   26.7358 O   0  0  0  0  0  0  0  0  0  0  0  0
  -13.5291  -31.0920   26.4137 C   0  0  0  0  0  0  0  0  0  0  0  0
  -12.1106  -30.7060   26.5230 N   0  0  0  0  0  0  0  0  0  0  0  0
  -11.2433  -29.1544   27.3581 C   0  0  0  0  0  0  0  0  0  0  0  0
  -10.0984  -28.6629   26.9291 C   0  0  0  0  0  0  0  0  0  0  0  0
  -10.2744  -27.6882   25.9206 C   0  0  0  0  0  0  0  0  0  0  0  0
  -11.2619  -26.8219   25.9653 C   0  0  0  0  0  0  0  0  0  0  0  0
  -12.0013  -27.1334   27.0042 C   0  0  0  0  0  0  0  0  0  0  0  0
  -11.4885  -28.1268   28.2468 C   0  0  0  0  0  0  0  0  0  0  0  0
  -12.0958  -28.2162   30.0693 C   0  0  0  0  0  0  0  0  0  0  0  0
  -11.5614  -28.9431   31.0601 N   0  0  0  0  0  0  0  0  0  0  0  0
  -10.3631  -28.2591   31.1008 C   0  0  0  0  0  0  0  0  0  0  0  0
   -9.2317  -27.8516   30.1831 C   0  0  0  0  0  0  0  0  0  0  0  0
   -8.4228  -26.5610   30.4558 C   0  0  0  0  0  0  0  0  0  0  0  0
   -8.6552  -25.5862   31.4328 C   0  0  0  0  0  0  0  0  0  0  0  0
   -9.6539  -25.8828   32.2977 C   0  0  0  0  0  0  0  0  0  0  0  0
  -10.6428  -27.3099   32.0506 C   0  0  0  0  0  0  0  0  0  0  0  0
  -11.8853  -27.6693   31.7401 N   0  0  0  0  0  0  0  0  0  0  0  0
  -13.6311  -32.5495   25.8666 C   0  0  0  0  0  0  0  0  0  0  0  0
  -14.3899  -33.4651   26.5934 C   0  0  0  0  0  0  0  0  0  0  0  0
  -14.2818  -34.8539   26.3524 C   0  0  0  0  0  0  0  0  0  0  0  0
  -13.3658  -35.3524   25.3981 C   0  0  0  0  0  0  0  0  0  0  0  0
  -13.0356  -36.6782   25.1674 N   0  0  0  0  0  0  0  0  0  0  0  0
  -12.1353  -36.7549   24.2111 C   0  0  0  0  0  0  0  0  0  0  0  0
  -11.6400  -35.2689   23.5187 S   0  0  0  0  0  0  0  0  0  0  0  0
  -12.6764  -34.4315   24.6174 C   0  0  0  0  0  0  0  0  0  0  0  0
  -12.8460  -33.0450   24.7974 C   0  0  0  0  0  0  0  0  0  0  0  0
  -11.5272  -31.4831   26.2247 H   0  0  0  0  0  0  0  0  0  0  0  0
   -9.2055  -29.2097   27.1019 H   0  0  0  0  0  0  0  0  0  0  0  0
   -9.5800  -27.6499   25.1065 H   0  0  0  0  0  0  0  0  0  0  0  0
  -11.4056  -25.9469   25.4128 H   0  0  0  0  0  0  0  0  0  0  0  0
  -12.9508  -26.5811   27.1026 H   0  0  0  0  0  0  0  0  0  0  0  0
   -8.7914  -28.5971   29.5161 H   0  0  0  0  0  0  0  0  0  0  0  0
   -7.3873  -26.5581   30.1038 H   0  0  0  0  0  0  0  0  0  0  0  0
   -8.6559  -24.5831   31.1901 H   0  0  0  0  0  0  0  0  0  0  0  0
  -10.1210  -24.9941   32.7120 H   0  0  0  0  0  0  0  0  0  0  0  0
  -12.5373  -28.1651   32.3231 H   0  0  0  0  0  0  0  0  0  0  0  0
  -15.0183  -33.1192   27.4143 H   0  0  0  0  0  0  0  0  0  0  0  0
  -14.8461  -35.5547   26.9628 H   0  0  0  0  0  0  0  0  0  0  0  0
  -11.7343  -37.7014   23.8707 H   0  0  0  0  0  0  0  0  0  0  0  0
  -12.3251  -32.4072   24.1039 H   0  0  0  0  0  0  0  0  0  0  0  0
  1  2  2  0
  2  3  1  0
  3  4  1  0
  4  5  2  0
  5  6  1  0
  6  7  2  0
  7  8  1  0
  8  9  2  0
  9 10  1  0
 10 11  2  0
 11 12  1  0
 12 13  2  0
 13 14  1  0
 14 15  2  0
 15 16  1  0
 16 17  2  0
 17 18  1  0
  2 19  1  0
 19 20  2  0
 20 21  1  0
 21 22  2  0
 22 23  1  0
 23 24  2  0
 24 25  1  0
 25 26  1  0
 26 27  2  0
  9  4  1  0
 18 10  1  0
 27 19  1  0
 17 12  1  0
 26 22  1  0
  3 28  1  0
  5 29  1  0
  6 30  1  0
  7 31  1  0
  8 32  1  0
 13 33  1  0
 14 34  1  0
 15 35  1  0
 16 36  1  0
 18 37  1  0
 20 38  1  0
 21 39  1  0
 24 40  1  0
 27 41  1  0
M  END
>  <Energy>  (1389) 
686.45613045092045

>  <compound_id>  (1389) 
11769

>  <target_id>  (1389) 
1

>  <reference_id>  (1389) 
68

>  <inspiration_ids>  (1389) 
[94, 68]

>  <energy_score>  (1389) 
557.3759234234617

>  <distance_score>  (1389) 
4.550243774999654

>  <path>  (1389) 
/opt/xchem-fragalysis-2/maxwin/BulkDock/SCRATCH/511013/C11769-P68/C11769-P68.minimised.mol

>  <scratch_subdir>  (1389) 
/opt/xchem-fragalysis-2/maxwin/BulkDock/SCRATCH/511013/C11769-P68

>  <fragmenstein_runtime>  (1389) 
11.663336515426636

>  <fragmenstein_outcome>  (1389) 
too moved

>  <fragmenstein_mode>  (1389) 
expansion

>  <fragmenstein_error>  (1389) 


$$$$
C11770-P94
     RDKit          3D

 41 45  0  0  0  0  0  0  0  0999 V2000
  -15.3908  -32.0904   25.4392 O   0  0  0  0  0  0  0  0  0  0  0  0
  -14.5984  -32.6027   26.1748 C   0  0  0  0  0  0  0  0  0  0  0  0
  -14.1964  -32.2571   27.5128 N   0  0  0  0  0  0  0  0  0  0  0  0
  -14.5392  -31.1597   28.3279 C   0  0  0  0  0  0  0  0  0  0  0  0
  -15.0835  -30.0123   27.7849 C   0  0  0  0  0  0  0  0  0  0  0  0
  -14.4978  -28.7876   28.1455 C   0  0  0  0  0  0  0  0  0  0  0  0
  -13.3586  -28.7572   28.9749 C   0  0  0  0  0  0  0  0  0  0  0  0
  -12.3752  -27.6475   28.8151 C   0  0  0  0  0  0  0  0  0  0  0  0
  -12.2097  -26.9785   27.6903 N   0  0  0  0  0  0  0  0  0  0  0  0
  -11.6929  -25.7640   28.0356 C   0  0  0  0  0  0  0  0  0  0  0  0
  -11.5894  -24.6016   27.2689 C   0  0  0  0  0  0  0  0  0  0  0  0
  -11.4462  -23.3941   27.9537 C   0  0  0  0  0  0  0  0  0  0  0  0
  -11.3628  -23.3699   29.3456 C   0  0  0  0  0  0  0  0  0  0  0  0
  -11.2485  -24.5452   30.0996 C   0  0  0  0  0  0  0  0  0  0  0  0
  -11.4246  -25.7300   29.3929 C   0  0  0  0  0  0  0  0  0  0  0  0
  -11.5863  -27.0421   29.7944 N   0  0  0  0  0  0  0  0  0  0  0  0
  -13.2050  -29.8277   29.8413 C   0  0  0  0  0  0  0  0  0  0  0  0
  -13.8359  -31.0348   29.5307 C   0  0  0  0  0  0  0  0  0  0  0  0
  -13.7647  -33.7510   25.6575 C   0  0  0  0  0  0  0  0  0  0  0  0
  -13.7339  -34.9868   26.3020 C   0  0  0  0  0  0  0  0  0  0  0  0
  -12.7600  -35.9417   25.9575 C   0  0  0  0  0  0  0  0  0  0  0  0
  -11.7915  -35.6580   24.9681 C   0  0  0  0  0  0  0  0  0  0  0  0
  -10.7465  -36.4873   24.5840 N   0  0  0  0  0  0  0  0  0  0  0  0
  -10.0374  -35.8934   23.6502 C   0  0  0  0  0  0  0  0  0  0  0  0
  -10.5660  -34.3383   23.1676 S   0  0  0  0  0  0  0  0  0  0  0  0
  -11.8572  -34.4264   24.3110 C   0  0  0  0  0  0  0  0  0  0  0  0
  -12.8424  -33.4659   24.6282 C   0  0  0  0  0  0  0  0  0  0  0  0
  -13.5653  -32.9587   27.8567 H   0  0  0  0  0  0  0  0  0  0  0  0
  -15.7323  -30.0440   26.9131 H   0  0  0  0  0  0  0  0  0  0  0  0
  -14.7571  -27.9008   27.5626 H   0  0  0  0  0  0  0  0  0  0  0  0
  -11.7908  -24.6202   26.2043 H   0  0  0  0  0  0  0  0  0  0  0  0
  -11.4989  -22.4597   27.4023 H   0  0  0  0  0  0  0  0  0  0  0  0
  -11.3632  -22.4090   29.8565 H   0  0  0  0  0  0  0  0  0  0  0  0
  -11.1628  -24.5219   31.1806 H   0  0  0  0  0  0  0  0  0  0  0  0
  -11.5269  -27.3325   30.7578 H   0  0  0  0  0  0  0  0  0  0  0  0
  -12.4946  -29.8152   30.6626 H   0  0  0  0  0  0  0  0  0  0  0  0
  -13.5784  -31.8931   30.1355 H   0  0  0  0  0  0  0  0  0  0  0  0
  -14.4378  -35.2115   27.0999 H   0  0  0  0  0  0  0  0  0  0  0  0
  -12.7197  -36.8959   26.4755 H   0  0  0  0  0  0  0  0  0  0  0  0
   -9.1671  -36.3548   23.2019 H   0  0  0  0  0  0  0  0  0  0  0  0
  -12.8370  -32.4959   24.1370 H   0  0  0  0  0  0  0  0  0  0  0  0
  1  2  2  0
  2  3  1  0
  3  4  1  0
  4  5  2  0
  5  6  1  0
  6  7  2  0
  7  8  1  0
  8  9  2  0
  9 10  1  0
 10 11  2  0
 11 12  1  0
 12 13  2  0
 13 14  1  0
 14 15  2  0
 15 16  1  0
  7 17  1  0
 17 18  2  0
  2 19  1  0
 19 20  2  0
 20 21  1  0
 21 22  2  0
 22 23  1  0
 23 24  2  0
 24 25  1  0
 25 26  1  0
 26 27  2  0
 18  4  1  0
 27 19  1  0
 16  8  1  0
 26 22  1  0
 15 10  1  0
  3 28  1  0
  5 29  1  0
  6 30  1  0
 11 31  1  0
 12 32  1  0
 13 33  1  0
 14 34  1  0
 16 35  1  0
 17 36  1  0
 18 37  1  0
 20 38  1  0
 21 39  1  0
 24 40  1  0
 27 41  1  0
M  END
>  <Energy>  (1390) 
93.975058503572669

>  <compound_id>  (1390) 
11770

>  <target_id>  (1390) 
1

>  <reference_id>  (1390) 
94

>  <inspiration_ids>  (1390) 
[94, 68]

>  <energy_score>  (1390) 
-12.559553489007499

>  <distance_score>  (1390) 
4.038927989610837

>  <path>  (1390) 
/opt/xchem-fragalysis-2/maxwin/BulkDock/SCRATCH/511013/C11770-P94/C11770-P94.minimised.mol

>  <scratch_subdir>  (1390) 
/opt/xchem-fragalysis-2/maxwin/BulkDock/SCRATCH/511013/C11770-P94

>  <fragmenstein_runtime>  (1390) 
7.132626056671143

>  <fragmenstein_outcome>  (1390) 
too moved

>  <fragmenstein_mode>  (1390) 
expansion

>  <fragmenstein_error>  (1390) 


$$$$
C11770-P68
     RDKit          3D

 41 45  0  0  0  0  0  0  0  0999 V2000
  -15.4339  -30.5086   25.7543 O   0  0  0  0  0  0  0  0  0  0  0  0
  -14.2892  -30.8063   25.9787 C   0  0  0  0  0  0  0  0  0  0  0  0
  -13.0475  -29.9437   26.0728 N   0  0  0  0  0  0  0  0  0  0  0  0
  -12.7931  -28.0593   25.7462 C   0  0  0  0  0  0  0  0  0  0  0  0
  -14.1004  -27.3401   25.5759 C   0  0  0  0  0  0  0  0  0  0  0  0
  -14.2529  -25.9858   25.4955 C   0  0  0  0  0  0  0  0  0  0  0  0
  -13.1589  -25.1938   25.7748 C   0  0  0  0  0  0  0  0  0  0  0  0
  -13.2507  -23.7249   25.4608 C   0  0  0  0  0  0  0  0  0  0  0  0
  -12.2351  -22.9083   25.2538 N   0  0  0  0  0  0  0  0  0  0  0  0
  -12.6444  -22.0380   24.2625 C   0  0  0  0  0  0  0  0  0  0  0  0
  -11.9240  -21.1730   23.4283 C   0  0  0  0  0  0  0  0  0  0  0  0
  -12.6152  -20.3522   22.5362 C   0  0  0  0  0  0  0  0  0  0  0  0
  -14.0051  -20.3953   22.4638 C   0  0  0  0  0  0  0  0  0  0  0  0
  -14.7406  -21.2931   23.2373 C   0  0  0  0  0  0  0  0  0  0  0  0
  -14.0079  -22.1290   24.0828 C   0  0  0  0  0  0  0  0  0  0  0  0
  -14.3812  -23.0957   24.9836 N   0  0  0  0  0  0  0  0  0  0  0  0
  -11.8965  -25.8581   26.0461 C   0  0  0  0  0  0  0  0  0  0  0  0
  -11.6787  -27.2667   26.0221 C   0  0  0  0  0  0  0  0  0  0  0  0
  -13.9958  -32.3064   26.0881 C   0  0  0  0  0  0  0  0  0  0  0  0
  -14.7654  -33.1444   26.8848 C   0  0  0  0  0  0  0  0  0  0  0  0
  -14.6002  -34.5502   26.8262 C   0  0  0  0  0  0  0  0  0  0  0  0
  -13.6501  -35.1448   25.9593 C   0  0  0  0  0  0  0  0  0  0  0  0
  -13.3171  -36.4886   25.8637 N   0  0  0  0  0  0  0  0  0  0  0  0
  -12.3913  -36.6575   24.9427 C   0  0  0  0  0  0  0  0  0  0  0  0
  -11.8475  -35.2405   24.1495 S   0  0  0  0  0  0  0  0  0  0  0  0
  -12.9175  -34.3045   25.1295 C   0  0  0  0  0  0  0  0  0  0  0  0
  -13.1040  -32.9105   25.1635 C   0  0  0  0  0  0  0  0  0  0  0  0
  -12.2797  -30.5067   26.3563 H   0  0  0  0  0  0  0  0  0  0  0  0
  -15.0210  -27.9243   25.4939 H   0  0  0  0  0  0  0  0  0  0  0  0
  -15.2306  -25.5974   25.2313 H   0  0  0  0  0  0  0  0  0  0  0  0
  -10.8446  -21.1661   23.4286 H   0  0  0  0  0  0  0  0  0  0  0  0
  -12.0601  -19.6845   21.8829 H   0  0  0  0  0  0  0  0  0  0  0  0
  -14.5267  -19.7356   21.7745 H   0  0  0  0  0  0  0  0  0  0  0  0
  -15.8213  -21.3373   23.1825 H   0  0  0  0  0  0  0  0  0  0  0  0
  -15.3289  -23.4095   25.1026 H   0  0  0  0  0  0  0  0  0  0  0  0
  -11.0303  -25.2149   26.2534 H   0  0  0  0  0  0  0  0  0  0  0  0
  -10.7183  -27.6625   26.3133 H   0  0  0  0  0  0  0  0  0  0  0  0
  -15.5190  -32.7255   27.5492 H   0  0  0  0  0  0  0  0  0  0  0  0
  -15.1982  -35.1904   27.4706 H   0  0  0  0  0  0  0  0  0  0  0  0
  -11.9940  -37.6341   24.6951 H   0  0  0  0  0  0  0  0  0  0  0  0
  -12.5860  -32.3528   24.4028 H   0  0  0  0  0  0  0  0  0  0  0  0
  1  2  2  0
  2  3  1  0
  3  4  1  0
  4  5  2  0
  5  6  1  0
  6  7  2  0
  7  8  1  0
  8  9  2  0
  9 10  1  0
 10 11  2  0
 11 12  1  0
 12 13  2  0
 13 14  1  0
 14 15  2  0
 15 16  1  0
  7 17  1  0
 17 18  2  0
  2 19  1  0
 19 20  2  0
 20 21  1  0
 21 22  2  0
 22 23  1  0
 23 24  2  0
 24 25  1  0
 25 26  1  0
 26 27  2  0
 18  4  1  0
 27 19  1  0
 16  8  1  0
 26 22  1  0
 15 10  1  0
  3 28  1  0
  5 29  1  0
  6 30  1  0
 11 31  1  0
 12 32  1  0
 13 33  1  0
 14 34  1  0
 16 35  1  0
 17 36  1  0
 18 37  1  0
 20 38  1  0
 21 39  1  0
 24 40  1  0
 27 41  1  0
M  END
>  <Energy>  (1391) 
156.43657883224225

>  <compound_id>  (1391) 
11770

>  <target_id>  (1391) 
1

>  <reference_id>  (1391) 
68

>  <inspiration_ids>  (1391) 
[94, 68]

>  <energy_score>  (1391) 
49.901966839663714

>  <distance_score>  (1391) 
6.7510393672140125

>  <path>  (1391) 
/opt/xchem-fragalysis-2/maxwin/BulkDock/SCRATCH/511013/C11770-P68/C11770-P68.minimised.mol

>  <scratch_subdir>  (1391) 
/opt/xchem-fragalysis-2/maxwin/BulkDock/SCRATCH/511013/C11770-P68

>  <fragmenstein_runtime>  (1391) 
12.888385534286499

>  <fragmenstein_outcome>  (1391) 
too moved

>  <fragmenstein_mode>  (1391) 
expansion

>  <fragmenstein_error>  (1391) 


$$$$
C11763-P94
     RDKit          3D

 40 44  0  0  0  0  0  0  0  0999 V2000
  -14.9540  -32.4007   25.6977 O   0  0  0  0  0  0  0  0  0  0  0  0
  -13.8442  -32.3100   26.0683 C   0  0  0  0  0  0  0  0  0  0  0  0
  -13.2240  -31.4355   27.2178 N   0  0  0  0  0  0  0  0  0  0  0  0
  -13.8678  -30.5690   28.2042 C   0  0  0  0  0  0  0  0  0  0  0  0
  -14.6123  -29.4496   27.8659 C   0  0  0  0  0  0  0  0  0  0  0  0
  -14.0487  -28.1546   28.1966 C   0  0  0  0  0  0  0  0  0  0  0  0
  -12.8950  -28.0844   28.9812 C   0  0  0  0  0  0  0  0  0  0  0  0
  -12.0160  -26.9151   28.9762 N   0  0  0  0  0  0  0  0  0  0  0  0
  -11.9457  -26.0187   27.9384 C   0  0  0  0  0  0  0  0  0  0  0  0
  -11.5721  -24.8252   28.3178 N   0  0  0  0  0  0  0  0  0  0  0  0
  -11.3518  -24.9502   29.6444 C   0  0  0  0  0  0  0  0  0  0  0  0
  -11.2114  -23.9388   30.5864 C   0  0  0  0  0  0  0  0  0  0  0  0
  -10.8752  -24.2856   31.8800 C   0  0  0  0  0  0  0  0  0  0  0  0
  -10.7288  -25.6200   32.2183 C   0  0  0  0  0  0  0  0  0  0  0  0
  -10.9931  -26.6556   31.3158 C   0  0  0  0  0  0  0  0  0  0  0  0
  -11.3454  -26.2893   30.0270 C   0  0  0  0  0  0  0  0  0  0  0  0
  -12.7157  -29.1106   29.8188 N   0  0  0  0  0  0  0  0  0  0  0  0
  -13.1404  -30.3369   29.3701 C   0  0  0  0  0  0  0  0  0  0  0  0
  -12.7568  -33.2825   25.4074 C   0  0  0  0  0  0  0  0  0  0  0  0
  -12.7788  -34.6196   25.8388 C   0  0  0  0  0  0  0  0  0  0  0  0
  -11.7910  -35.5715   25.4660 C   0  0  0  0  0  0  0  0  0  0  0  0
  -10.7564  -35.2370   24.5710 C   0  0  0  0  0  0  0  0  0  0  0  0
   -9.7075  -36.0672   24.1750 N   0  0  0  0  0  0  0  0  0  0  0  0
   -8.9670  -35.4409   23.2900 C   0  0  0  0  0  0  0  0  0  0  0  0
   -9.4689  -33.8490   22.8870 S   0  0  0  0  0  0  0  0  0  0  0  0
  -10.7741  -33.9429   24.0358 C   0  0  0  0  0  0  0  0  0  0  0  0
  -11.7494  -32.9514   24.4559 C   0  0  0  0  0  0  0  0  0  0  0  0
  -12.2232  -31.5365   27.2153 H   0  0  0  0  0  0  0  0  0  0  0  0
  -15.3614  -29.5002   27.0757 H   0  0  0  0  0  0  0  0  0  0  0  0
  -14.4289  -27.2873   27.6606 H   0  0  0  0  0  0  0  0  0  0  0  0
  -12.2402  -26.2776   26.9293 H   0  0  0  0  0  0  0  0  0  0  0  0
  -11.3622  -22.9048   30.2992 H   0  0  0  0  0  0  0  0  0  0  0  0
  -10.7430  -23.5156   32.6333 H   0  0  0  0  0  0  0  0  0  0  0  0
  -10.4670  -25.8731   33.2427 H   0  0  0  0  0  0  0  0  0  0  0  0
  -10.9780  -27.6886   31.6370 H   0  0  0  0  0  0  0  0  0  0  0  0
  -12.7247  -31.1619   29.9414 H   0  0  0  0  0  0  0  0  0  0  0  0
  -13.5479  -34.9350   26.5455 H   0  0  0  0  0  0  0  0  0  0  0  0
  -11.8255  -36.5744   25.8840 H   0  0  0  0  0  0  0  0  0  0  0  0
   -8.0958  -35.8897   22.8308 H   0  0  0  0  0  0  0  0  0  0  0  0
  -11.6876  -31.9469   24.0423 H   0  0  0  0  0  0  0  0  0  0  0  0
  1  2  2  0
  2  3  1  0
  3  4  1  0
  4  5  2  0
  5  6  1  0
  6  7  2  0
  7  8  1  0
  8  9  1  0
  9 10  2  0
 10 11  1  0
 11 12  2  0
 12 13  1  0
 13 14  2  0
 14 15  1  0
 15 16  2  0
  7 17  1  0
 17 18  2  0
  2 19  1  0
 19 20  2  0
 20 21  1  0
 21 22  2  0
 22 23  1  0
 23 24  2  0
 24 25  1  0
 25 26  1  0
 26 27  2  0
 18  4  1  0
 27 19  1  0
 16  8  1  0
 26 22  1  0
 16 11  1  0
  3 28  1  0
  5 29  1  0
  6 30  1  0
  9 31  1  0
 12 32  1  0
 13 33  1  0
 14 34  1  0
 15 35  1  0
 18 36  1  0
 20 37  1  0
 21 38  1  0
 24 39  1  0
 27 40  1  0
M  END
>  <Energy>  (1392) 
182.86765836411232

>  <compound_id>  (1392) 
11763

>  <target_id>  (1392) 
1

>  <reference_id>  (1392) 
94

>  <inspiration_ids>  (1392) 
[94, 68]

>  <energy_score>  (1392) 
16.055973770659648

>  <distance_score>  (1392) 
4.094088387593787

>  <path>  (1392) 
/opt/xchem-fragalysis-2/maxwin/BulkDock/SCRATCH/511013/C11763-P94/C11763-P94.minimised.mol

>  <scratch_subdir>  (1392) 
/opt/xchem-fragalysis-2/maxwin/BulkDock/SCRATCH/511013/C11763-P94

>  <fragmenstein_runtime>  (1392) 
6.7229437828063965

>  <fragmenstein_outcome>  (1392) 
too moved

>  <fragmenstein_mode>  (1392) 
expansion

>  <fragmenstein_error>  (1392) 


$$$$
C11763-P68
     RDKit          3D

 40 44  0  0  0  0  0  0  0  0999 V2000
  -11.5293  -32.4420   26.0698 O   0  0  0  0  0  0  0  0  0  0  0  0
  -12.4821  -31.7231   26.1447 C   0  0  0  0  0  0  0  0  0  0  0  0
  -12.5788  -30.2792   26.4890 N   0  0  0  0  0  0  0  0  0  0  0  0
  -11.2473  -29.0201   27.0452 C   0  0  0  0  0  0  0  0  0  0  0  0
  -10.0486  -28.9593   27.5748 C   0  0  0  0  0  0  0  0  0  0  0  0
  -10.2242  -27.9389   28.4439 C   0  0  0  0  0  0  0  0  0  0  0  0
  -11.5109  -28.0166   28.9789 C   0  0  0  0  0  0  0  0  0  0  0  0
  -12.1232  -28.2962   30.6405 N   0  0  0  0  0  0  0  0  0  0  0  0
  -12.3730  -29.4189   31.5959 C   0  0  0  0  0  0  0  0  0  0  0  0
  -11.1793  -29.5508   32.1687 N   0  0  0  0  0  0  0  0  0  0  0  0
  -10.6734  -28.4690   31.4701 C   0  0  0  0  0  0  0  0  0  0  0  0
   -9.4594  -27.7237   30.6455 C   0  0  0  0  0  0  0  0  0  0  0  0
   -8.9113  -26.4148   31.2265 C   0  0  0  0  0  0  0  0  0  0  0  0
   -9.6535  -25.8775   32.3056 C   0  0  0  0  0  0  0  0  0  0  0  0
  -11.0609  -26.8125   32.7830 C   0  0  0  0  0  0  0  0  0  0  0  0
  -11.6645  -27.7354   31.9640 C   0  0  0  0  0  0  0  0  0  0  0  0
  -12.0101  -27.4221   27.8854 N   0  0  0  0  0  0  0  0  0  0  0  0
  -11.5439  -27.7437   26.6737 C   0  0  0  0  0  0  0  0  0  0  0  0
  -13.7104  -32.4621   25.7037 C   0  0  0  0  0  0  0  0  0  0  0  0
  -14.4062  -33.1479   26.6950 C   0  0  0  0  0  0  0  0  0  0  0  0
  -14.6359  -34.5338   26.5586 C   0  0  0  0  0  0  0  0  0  0  0  0
  -14.1132  -35.2483   25.4538 C   0  0  0  0  0  0  0  0  0  0  0  0
  -14.0564  -36.6260   25.3093 N   0  0  0  0  0  0  0  0  0  0  0  0
  -13.4308  -36.9293   24.1925 C   0  0  0  0  0  0  0  0  0  0  0  0
  -12.9268  -35.6132   23.2217 S   0  0  0  0  0  0  0  0  0  0  0  0
  -13.5397  -34.5250   24.4130 C   0  0  0  0  0  0  0  0  0  0  0  0
  -13.4365  -33.1249   24.4637 C   0  0  0  0  0  0  0  0  0  0  0  0
  -13.5325  -29.9727   26.3760 H   0  0  0  0  0  0  0  0  0  0  0  0
   -9.1400  -29.1610   27.0921 H   0  0  0  0  0  0  0  0  0  0  0  0
   -9.9385  -26.9467   28.0721 H   0  0  0  0  0  0  0  0  0  0  0  0
  -13.3448  -29.8047   31.8798 H   0  0  0  0  0  0  0  0  0  0  0  0
   -8.7918  -28.3535   30.0351 H   0  0  0  0  0  0  0  0  0  0  0  0
   -8.1098  -25.8716   30.7462 H   0  0  0  0  0  0  0  0  0  0  0  0
   -9.5015  -24.8569   32.6321 H   0  0  0  0  0  0  0  0  0  0  0  0
  -11.3791  -27.0584   33.7750 H   0  0  0  0  0  0  0  0  0  0  0  0
  -12.0876  -27.3378   25.8450 H   0  0  0  0  0  0  0  0  0  0  0  0
  -14.5919  -32.6886   27.6642 H   0  0  0  0  0  0  0  0  0  0  0  0
  -15.0855  -35.0912   27.3767 H   0  0  0  0  0  0  0  0  0  0  0  0
  -13.2559  -37.9538   23.8904 H   0  0  0  0  0  0  0  0  0  0  0  0
  -12.8116  -32.6476   23.7097 H   0  0  0  0  0  0  0  0  0  0  0  0
  1  2  2  0
  2  3  1  0
  3  4  1  0
  4  5  2  0
  5  6  1  0
  6  7  2  0
  7  8  1  0
  8  9  1  0
  9 10  2  0
 10 11  1  0
 11 12  2  0
 12 13  1  0
 13 14  2  0
 14 15  1  0
 15 16  2  0
  7 17  1  0
 17 18  2  0
  2 19  1  0
 19 20  2  0
 20 21  1  0
 21 22  2  0
 22 23  1  0
 23 24  2  0
 24 25  1  0
 25 26  1  0
 26 27  2  0
 18  4  1  0
 27 19  1  0
 16  8  1  0
 26 22  1  0
 16 11  1  0
  3 28  1  0
  5 29  1  0
  6 30  1  0
  9 31  1  0
 12 32  1  0
 13 33  1  0
 14 34  1  0
 15 35  1  0
 18 36  1  0
 20 37  1  0
 21 38  1  0
 24 39  1  0
 27 40  1  0
M  END
>  <Energy>  (1393) 
808.96815229984395

>  <compound_id>  (1393) 
11763

>  <target_id>  (1393) 
1

>  <reference_id>  (1393) 
68

>  <inspiration_ids>  (1393) 
[94, 68]

>  <energy_score>  (1393) 
608.7126951130558

>  <distance_score>  (1393) 
5.137482778962015

>  <path>  (1393) 
/opt/xchem-fragalysis-2/maxwin/BulkDock/SCRATCH/511013/C11763-P68/C11763-P68.minimised.mol

>  <scratch_subdir>  (1393) 
/opt/xchem-fragalysis-2/maxwin/BulkDock/SCRATCH/511013/C11763-P68

>  <fragmenstein_runtime>  (1393) 
14.300611734390259

>  <fragmenstein_outcome>  (1393) 
too moved

>  <fragmenstein_mode>  (1393) 
expansion

>  <fragmenstein_error>  (1393) 


$$$$
C11771-P94
     RDKit          3D

 41 45  0  0  0  0  0  0  0  0999 V2000
  -10.5265  -30.4857   26.8148 O   0  0  0  0  0  0  0  0  0  0  0  0
  -10.3549  -29.9939   25.7331 C   0  0  0  0  0  0  0  0  0  0  0  0
  -10.4486  -28.5762   25.2874 N   0  0  0  0  0  0  0  0  0  0  0  0
  -10.8878  -27.3194   26.0313 C   0  0  0  0  0  0  0  0  0  0  0  0
  -11.3401  -26.2974   25.2041 C   0  0  0  0  0  0  0  0  0  0  0  0
  -11.4709  -24.9512   25.5623 C   0  0  0  0  0  0  0  0  0  0  0  0
  -11.3029  -24.5975   26.8596 C   0  0  0  0  0  0  0  0  0  0  0  0
  -11.2101  -25.6157   27.7896 C   0  0  0  0  0  0  0  0  0  0  0  0
  -11.2202  -25.2315   29.1848 C   0  0  0  0  0  0  0  0  0  0  0  0
  -10.7688  -25.9221   30.2036 N   0  0  0  0  0  0  0  0  0  0  0  0
  -11.0180  -25.1340   31.2930 C   0  0  0  0  0  0  0  0  0  0  0  0
  -10.8426  -25.4202   32.6333 C   0  0  0  0  0  0  0  0  0  0  0  0
  -11.3181  -24.4952   33.5540 C   0  0  0  0  0  0  0  0  0  0  0  0
  -11.8603  -23.2684   33.1718 C   0  0  0  0  0  0  0  0  0  0  0  0
  -11.9750  -22.9295   31.8333 C   0  0  0  0  0  0  0  0  0  0  0  0
  -11.5844  -23.9189   30.9401 C   0  0  0  0  0  0  0  0  0  0  0  0
  -11.7401  -24.0271   29.5988 N   0  0  0  0  0  0  0  0  0  0  0  0
  -11.1059  -26.9709   27.3674 C   0  0  0  0  0  0  0  0  0  0  0  0
  -10.1053  -31.0131   24.6449 C   0  0  0  0  0  0  0  0  0  0  0  0
  -10.9602  -32.1313   24.6472 C   0  0  0  0  0  0  0  0  0  0  0  0
  -10.7202  -33.2487   23.8368 C   0  0  0  0  0  0  0  0  0  0  0  0
   -9.5852  -33.2625   23.0089 C   0  0  0  0  0  0  0  0  0  0  0  0
   -9.1547  -34.3391   22.2473 N   0  0  0  0  0  0  0  0  0  0  0  0
   -8.0358  -34.0148   21.6397 C   0  0  0  0  0  0  0  0  0  0  0  0
   -7.4705  -32.4191   21.8808 S   0  0  0  0  0  0  0  0  0  0  0  0
   -8.7875  -32.1153   22.9534 C   0  0  0  0  0  0  0  0  0  0  0  0
   -9.0568  -30.9598   23.7263 C   0  0  0  0  0  0  0  0  0  0  0  0
  -10.3230  -28.5346   24.2839 H   0  0  0  0  0  0  0  0  0  0  0  0
  -11.7540  -26.6084   24.2643 H   0  0  0  0  0  0  0  0  0  0  0  0
  -11.7074  -24.1540   24.8729 H   0  0  0  0  0  0  0  0  0  0  0  0
  -11.3515  -23.5458   27.1203 H   0  0  0  0  0  0  0  0  0  0  0  0
  -10.4545  -26.3749   32.9394 H   0  0  0  0  0  0  0  0  0  0  0  0
  -11.2840  -24.7619   34.6006 H   0  0  0  0  0  0  0  0  0  0  0  0
  -12.2273  -22.5890   33.9360 H   0  0  0  0  0  0  0  0  0  0  0  0
  -12.4469  -22.0106   31.5178 H   0  0  0  0  0  0  0  0  0  0  0  0
  -12.2714  -23.3905   29.0240 H   0  0  0  0  0  0  0  0  0  0  0  0
  -11.2143  -27.7032   28.1574 H   0  0  0  0  0  0  0  0  0  0  0  0
  -11.7955  -32.1661   25.3444 H   0  0  0  0  0  0  0  0  0  0  0  0
  -11.3592  -34.1237   23.8924 H   0  0  0  0  0  0  0  0  0  0  0  0
   -7.4982  -34.7072   21.0062 H   0  0  0  0  0  0  0  0  0  0  0  0
   -8.3633  -30.1281   23.7103 H   0  0  0  0  0  0  0  0  0  0  0  0
  1  2  2  0
  2  3  1  0
  3  4  1  0
  4  5  2  0
  5  6  1  0
  6  7  2  0
  7  8  1  0
  8  9  1  0
  9 10  2  0
 10 11  1  0
 11 12  2  0
 12 13  1  0
 13 14  2  0
 14 15  1  0
 15 16  2  0
 16 17  1  0
  8 18  2  0
  2 19  1  0
 19 20  2  0
 20 21  1  0
 21 22  2  0
 22 23  1  0
 23 24  2  0
 24 25  1  0
 25 26  1  0
 26 27  2  0
 18  4  1  0
 27 19  1  0
 17  9  1  0
 26 22  1  0
 16 11  1  0
  3 28  1  0
  5 29  1  0
  6 30  1  0
  7 31  1  0
 12 32  1  0
 13 33  1  0
 14 34  1  0
 15 35  1  0
 17 36  1  0
 18 37  1  0
 20 38  1  0
 21 39  1  0
 24 40  1  0
 27 41  1  0
M  END
>  <Energy>  (1394) 
92.032553863896538

>  <compound_id>  (1394) 
11771

>  <target_id>  (1394) 
1

>  <reference_id>  (1394) 
94

>  <inspiration_ids>  (1394) 
[94, 68]

>  <energy_score>  (1394) 
-25.78758221575538

>  <distance_score>  (1394) 
3.667541429660235

>  <path>  (1394) 
/opt/xchem-fragalysis-2/maxwin/BulkDock/SCRATCH/511013/C11771-P94/C11771-P94.minimised.mol

>  <scratch_subdir>  (1394) 
/opt/xchem-fragalysis-2/maxwin/BulkDock/SCRATCH/511013/C11771-P94

>  <fragmenstein_runtime>  (1394) 
7.85899543762207

>  <fragmenstein_outcome>  (1394) 
too moved

>  <fragmenstein_mode>  (1394) 
expansion

>  <fragmenstein_error>  (1394) 


$$$$
C11771-P68
     RDKit          3D

 41 45  0  0  0  0  0  0  0  0999 V2000
  -11.5448  -32.3531   26.0927 O   0  0  0  0  0  0  0  0  0  0  0  0
  -12.4925  -31.6287   26.1853 C   0  0  0  0  0  0  0  0  0  0  0  0
  -12.5741  -30.1733   26.5290 N   0  0  0  0  0  0  0  0  0  0  0  0
  -11.1966  -28.8921   27.0275 C   0  0  0  0  0  0  0  0  0  0  0  0
  -11.3126  -27.6994   26.1501 C   0  0  0  0  0  0  0  0  0  0  0  0
  -12.3358  -26.7935   26.3116 C   0  0  0  0  0  0  0  0  0  0  0  0
  -12.9012  -26.9300   27.5897 C   0  0  0  0  0  0  0  0  0  0  0  0
  -12.0275  -27.8729   28.9375 C   0  0  0  0  0  0  0  0  0  0  0  0
  -12.1457  -28.3586   30.7563 C   0  0  0  0  0  0  0  0  0  0  0  0
  -11.2532  -28.9906   31.4648 N   0  0  0  0  0  0  0  0  0  0  0  0
  -10.3860  -28.0476   31.3240 C   0  0  0  0  0  0  0  0  0  0  0  0
   -9.2400  -27.6158   30.3708 C   0  0  0  0  0  0  0  0  0  0  0  0
   -8.4366  -26.3193   30.6785 C   0  0  0  0  0  0  0  0  0  0  0  0
   -8.8325  -25.3837   31.7037 C   0  0  0  0  0  0  0  0  0  0  0  0
   -9.8684  -25.6876   32.5509 C   0  0  0  0  0  0  0  0  0  0  0  0
  -10.8009  -27.1385   32.3206 C   0  0  0  0  0  0  0  0  0  0  0  0
  -12.0184  -27.6877   32.3309 N   0  0  0  0  0  0  0  0  0  0  0  0
  -10.9476  -28.2844   28.1758 C   0  0  0  0  0  0  0  0  0  0  0  0
  -13.7355  -32.3643   25.7728 C   0  0  0  0  0  0  0  0  0  0  0  0
  -14.4442  -33.0030   26.7854 C   0  0  0  0  0  0  0  0  0  0  0  0
  -14.7037  -34.3881   26.6932 C   0  0  0  0  0  0  0  0  0  0  0  0
  -14.1984  -35.1501   25.6117 C   0  0  0  0  0  0  0  0  0  0  0  0
  -14.1692  -36.5328   25.5113 N   0  0  0  0  0  0  0  0  0  0  0  0
  -13.5533  -36.8845   24.4032 C   0  0  0  0  0  0  0  0  0  0  0  0
  -13.0237  -35.6109   23.3906 S   0  0  0  0  0  0  0  0  0  0  0  0
  -13.6113  -34.4736   24.5480 C   0  0  0  0  0  0  0  0  0  0  0  0
  -13.4774  -33.0759   24.5551 C   0  0  0  0  0  0  0  0  0  0  0  0
  -13.5272  -29.8616   26.4358 H   0  0  0  0  0  0  0  0  0  0  0  0
  -10.5498  -27.5201   25.4072 H   0  0  0  0  0  0  0  0  0  0  0  0
  -12.5528  -25.9196   25.7277 H   0  0  0  0  0  0  0  0  0  0  0  0
  -13.5450  -26.1075   27.7261 H   0  0  0  0  0  0  0  0  0  0  0  0
   -8.8123  -28.4024   29.7405 H   0  0  0  0  0  0  0  0  0  0  0  0
   -7.4322  -26.2887   30.3016 H   0  0  0  0  0  0  0  0  0  0  0  0
   -8.4435  -24.5305   32.1576 H   0  0  0  0  0  0  0  0  0  0  0  0
  -10.3776  -24.7446   32.7263 H   0  0  0  0  0  0  0  0  0  0  0  0
  -12.8605  -27.2849   32.6988 H   0  0  0  0  0  0  0  0  0  0  0  0
  -10.1088  -27.5977   28.1460 H   0  0  0  0  0  0  0  0  0  0  0  0
  -14.6173  -32.5112   27.7409 H   0  0  0  0  0  0  0  0  0  0  0  0
  -15.1618  -34.9087   27.5308 H   0  0  0  0  0  0  0  0  0  0  0  0
  -13.4011  -37.9216   24.1333 H   0  0  0  0  0  0  0  0  0  0  0  0
  -12.8416  -32.6396   23.7856 H   0  0  0  0  0  0  0  0  0  0  0  0
  1  2  2  0
  2  3  1  0
  3  4  1  0
  4  5  2  0
  5  6  1  0
  6  7  2  0
  7  8  1  0
  8  9  1  0
  9 10  2  0
 10 11  1  0
 11 12  2  0
 12 13  1  0
 13 14  2  0
 14 15  1  0
 15 16  2  0
 16 17  1  0
  8 18  2  0
  2 19  1  0
 19 20  2  0
 20 21  1  0
 21 22  2  0
 22 23  1  0
 23 24  2  0
 24 25  1  0
 25 26  1  0
 26 27  2  0
 18  4  1  0
 27 19  1  0
 17  9  1  0
 26 22  1  0
 16 11  1  0
  3 28  1  0
  5 29  1  0
  6 30  1  0
  7 31  1  0
 12 32  1  0
 13 33  1  0
 14 34  1  0
 15 35  1  0
 17 36  1  0
 18 37  1  0
 20 38  1  0
 21 39  1  0
 24 40  1  0
 27 41  1  0
M  END
>  <Energy>  (1395) 
661.18507986288034

>  <compound_id>  (1395) 
11771

>  <target_id>  (1395) 
1

>  <reference_id>  (1395) 
68

>  <inspiration_ids>  (1395) 
[94, 68]

>  <energy_score>  (1395) 
543.3649437832333

>  <distance_score>  (1395) 
4.748393647499412

>  <path>  (1395) 
/opt/xchem-fragalysis-2/maxwin/BulkDock/SCRATCH/511013/C11771-P68/C11771-P68.minimised.mol

>  <scratch_subdir>  (1395) 
/opt/xchem-fragalysis-2/maxwin/BulkDock/SCRATCH/511013/C11771-P68

>  <fragmenstein_runtime>  (1395) 
10.769493818283081

>  <fragmenstein_outcome>  (1395) 
too moved

>  <fragmenstein_mode>  (1395) 
expansion

>  <fragmenstein_error>  (1395) 


$$$$
C11772-P94
     RDKit          3D

 34 37  0  0  0  0  0  0  0  0999 V2000
  -10.5567  -30.4009   26.7424 O   0  0  0  0  0  0  0  0  0  0  0  0
  -10.2828  -29.6772   25.8294 C   0  0  0  0  0  0  0  0  0  0  0  0
   -9.6485  -30.2863   24.4833 C   0  0  0  0  0  0  0  0  0  0  0  0
   -9.8032  -31.8158   24.0890 C   0  0  0  0  0  0  0  0  0  0  0  0
  -10.7944  -32.6750   24.5720 C   0  0  0  0  0  0  0  0  0  0  0  0
  -10.7272  -34.0858   24.3747 C   0  0  0  0  0  0  0  0  0  0  0  0
   -9.6773  -34.6714   23.6320 C   0  0  0  0  0  0  0  0  0  0  0  0
   -9.3962  -36.0304   23.4913 N   0  0  0  0  0  0  0  0  0  0  0  0
   -8.3532  -36.1825   22.7062 C   0  0  0  0  0  0  0  0  0  0  0  0
   -7.6804  -34.7497   22.0557 S   0  0  0  0  0  0  0  0  0  0  0  0
   -8.7969  -33.8045   22.9847 C   0  0  0  0  0  0  0  0  0  0  0  0
   -8.8620  -32.3936   23.1871 C   0  0  0  0  0  0  0  0  0  0  0  0
  -10.4929  -28.0382   25.6615 N   0  0  0  0  0  0  0  0  0  0  0  0
  -11.0253  -26.9404   26.7165 C   0  0  0  0  0  0  0  0  0  0  0  0
  -11.4466  -25.7922   25.9798 C   0  0  0  0  0  0  0  0  0  0  0  0
  -11.6943  -24.4970   26.4717 C   0  0  0  0  0  0  0  0  0  0  0  0
  -11.5454  -24.1960   27.8057 C   0  0  0  0  0  0  0  0  0  0  0  0
  -11.3045  -25.2818   28.6244 C   0  0  0  0  0  0  0  0  0  0  0  0
  -11.2083  -25.2779   30.0020 N   0  0  0  0  0  0  0  0  0  0  0  0
  -11.0145  -26.5542   30.3885 C   0  0  0  0  0  0  0  0  0  0  0  0
  -11.0487  -27.3515   29.3432 N   0  0  0  0  0  0  0  0  0  0  0  0
  -11.1189  -26.6197   28.1685 C   0  0  0  0  0  0  0  0  0  0  0  0
   -9.8968  -29.6955   23.6132 H   0  0  0  0  0  0  0  0  0  0  0  0
   -8.5851  -30.0860   24.5890 H   0  0  0  0  0  0  0  0  0  0  0  0
  -11.5815  -32.2824   25.2133 H   0  0  0  0  0  0  0  0  0  0  0  0
  -11.4550  -34.7296   24.8603 H   0  0  0  0  0  0  0  0  0  0  0  0
   -7.9538  -37.1566   22.4579 H   0  0  0  0  0  0  0  0  0  0  0  0
   -8.0989  -31.7619   22.7330 H   0  0  0  0  0  0  0  0  0  0  0  0
  -10.2302  -27.7567   24.7397 H   0  0  0  0  0  0  0  0  0  0  0  0
  -11.6380  -25.9257   24.9184 H   0  0  0  0  0  0  0  0  0  0  0  0
  -12.0054  -23.7128   25.7828 H   0  0  0  0  0  0  0  0  0  0  0  0
  -11.7167  -23.1952   28.1860 H   0  0  0  0  0  0  0  0  0  0  0  0
  -11.3305  -24.4793   30.6088 H   0  0  0  0  0  0  0  0  0  0  0  0
  -10.8912  -26.8563   31.4204 H   0  0  0  0  0  0  0  0  0  0  0  0
  1  2  2  0
  2  3  1  0
  3  4  1  0
  4  5  2  0
  5  6  1  0
  6  7  2  0
  7  8  1  0
  8  9  2  0
  9 10  1  0
 10 11  1  0
 11 12  2  0
  2 13  1  0
 13 14  1  0
 14 15  2  0
 15 16  1  0
 16 17  2  0
 17 18  1  0
 18 19  1  0
 19 20  1  0
 20 21  2  0
 21 22  1  0
 12  4  1  0
 22 14  1  0
 11  7  1  0
 22 18  2  0
  3 23  1  0
  3 24  1  0
  5 25  1  0
  6 26  1  0
  9 27  1  0
 12 28  1  0
 13 29  1  0
 15 30  1  0
 16 31  1  0
 17 32  1  0
 19 33  1  0
 20 34  1  0
M  END
>  <Energy>  (1396) 
143.60212263594596

>  <compound_id>  (1396) 
11772

>  <target_id>  (1396) 
1

>  <reference_id>  (1396) 
94

>  <inspiration_ids>  (1396) 
[94, 68]

>  <energy_score>  (1396) 
28.27095662036902

>  <distance_score>  (1396) 
3.381554473663042

>  <path>  (1396) 
/opt/xchem-fragalysis-2/maxwin/BulkDock/SCRATCH/511013/C11772-P94/C11772-P94.minimised.mol

>  <scratch_subdir>  (1396) 
/opt/xchem-fragalysis-2/maxwin/BulkDock/SCRATCH/511013/C11772-P94

>  <fragmenstein_runtime>  (1396) 
1.8795716762542725

>  <fragmenstein_outcome>  (1396) 
too moved

>  <fragmenstein_mode>  (1396) 
expansion

>  <fragmenstein_error>  (1396) 


$$$$
C11772-P68
     RDKit          3D

 34 37  0  0  0  0  0  0  0  0999 V2000
  -18.5942  -29.7901   23.9161 O   0  0  0  0  0  0  0  0  0  0  0  0
  -17.6292  -29.8244   24.6317 C   0  0  0  0  0  0  0  0  0  0  0  0
  -17.2566  -31.1926   25.2647 C   0  0  0  0  0  0  0  0  0  0  0  0
  -15.9535  -31.9346   24.9471 C   0  0  0  0  0  0  0  0  0  0  0  0
  -15.1049  -32.2706   26.0089 C   0  0  0  0  0  0  0  0  0  0  0  0
  -13.9794  -33.0855   25.8222 C   0  0  0  0  0  0  0  0  0  0  0  0
  -13.6246  -33.5605   24.5501 C   0  0  0  0  0  0  0  0  0  0  0  0
  -12.5111  -34.3308   24.2477 N   0  0  0  0  0  0  0  0  0  0  0  0
  -12.4937  -34.5756   22.9579 C   0  0  0  0  0  0  0  0  0  0  0  0
  -13.7977  -33.9319   22.0476 S   0  0  0  0  0  0  0  0  0  0  0  0
  -14.4667  -33.2386   23.4839 C   0  0  0  0  0  0  0  0  0  0  0  0
  -15.6496  -32.4649   23.6722 C   0  0  0  0  0  0  0  0  0  0  0  0
  -16.7640  -28.7589   25.1072 N   0  0  0  0  0  0  0  0  0  0  0  0
  -16.7372  -27.3755   24.7999 C   0  0  0  0  0  0  0  0  0  0  0  0
  -17.7895  -26.7287   24.1539 C   0  0  0  0  0  0  0  0  0  0  0  0
  -17.7074  -25.3701   23.8120 C   0  0  0  0  0  0  0  0  0  0  0  0
  -16.5630  -24.6058   24.0563 C   0  0  0  0  0  0  0  0  0  0  0  0
  -15.5120  -25.2650   24.6776 C   0  0  0  0  0  0  0  0  0  0  0  0
  -14.2604  -24.8365   25.0427 N   0  0  0  0  0  0  0  0  0  0  0  0
  -13.6505  -25.8623   25.7108 C   0  0  0  0  0  0  0  0  0  0  0  0
  -14.4197  -26.9234   25.7562 N   0  0  0  0  0  0  0  0  0  0  0  0
  -15.5816  -26.5921   25.0899 C   0  0  0  0  0  0  0  0  0  0  0  0
  -17.3362  -31.0488   26.3510 H   0  0  0  0  0  0  0  0  0  0  0  0
  -18.0726  -31.8884   25.0219 H   0  0  0  0  0  0  0  0  0  0  0  0
  -15.3295  -31.9450   27.0243 H   0  0  0  0  0  0  0  0  0  0  0  0
  -13.3831  -33.3703   26.6720 H   0  0  0  0  0  0  0  0  0  0  0  0
  -11.7083  -35.1537   22.4886 H   0  0  0  0  0  0  0  0  0  0  0  0
  -16.3105  -32.2788   22.8273 H   0  0  0  0  0  0  0  0  0  0  0  0
  -15.9974  -29.1629   25.6256 H   0  0  0  0  0  0  0  0  0  0  0  0
  -18.6984  -27.2723   23.9049 H   0  0  0  0  0  0  0  0  0  0  0  0
  -18.5578  -24.9022   23.3172 H   0  0  0  0  0  0  0  0  0  0  0  0
  -16.5047  -23.5621   23.7659 H   0  0  0  0  0  0  0  0  0  0  0  0
  -13.8974  -23.8976   24.9306 H   0  0  0  0  0  0  0  0  0  0  0  0
  -12.6618  -25.7664   26.1419 H   0  0  0  0  0  0  0  0  0  0  0  0
  1  2  2  0
  2  3  1  0
  3  4  1  0
  4  5  2  0
  5  6  1  0
  6  7  2  0
  7  8  1  0
  8  9  2  0
  9 10  1  0
 10 11  1  0
 11 12  2  0
  2 13  1  0
 13 14  1  0
 14 15  2  0
 15 16  1  0
 16 17  2  0
 17 18  1  0
 18 19  1  0
 19 20  1  0
 20 21  2  0
 21 22  1  0
 12  4  1  0
 22 14  1  0
 11  7  1  0
 22 18  2  0
  3 23  1  0
  3 24  1  0
  5 25  1  0
  6 26  1  0
  9 27  1  0
 12 28  1  0
 13 29  1  0
 15 30  1  0
 16 31  1  0
 17 32  1  0
 19 33  1  0
 20 34  1  0
M  END
>  <Energy>  (1397) 
61.37859951248339

>  <compound_id>  (1397) 
11772

>  <target_id>  (1397) 
1

>  <reference_id>  (1397) 
68

>  <inspiration_ids>  (1397) 
[94, 68]

>  <energy_score>  (1397) 
-90.13564102359396

>  <distance_score>  (1397) 
7.244238965963733

>  <path>  (1397) 
/opt/xchem-fragalysis-2/maxwin/BulkDock/SCRATCH/511013/C11772-P68/C11772-P68.minimised.mol

>  <scratch_subdir>  (1397) 
/opt/xchem-fragalysis-2/maxwin/BulkDock/SCRATCH/511013/C11772-P68

>  <fragmenstein_runtime>  (1397) 
9.884002447128296

>  <fragmenstein_outcome>  (1397) 
too moved

>  <fragmenstein_mode>  (1397) 
expansion

>  <fragmenstein_error>  (1397) 


$$$$
C11780-P94
     RDKit          3D

 39 42  0  0  0  0  0  0  0  0999 V2000
  -13.0632  -30.0190   29.8578 C   0  0  0  0  0  0  0  0  0  0  0  0
  -12.7075  -29.2065   28.6123 C   0  0  0  0  0  0  0  0  0  0  0  0
  -11.9836  -30.1278   27.5150 O   0  0  0  0  0  0  0  0  0  0  0  0
  -12.6570  -31.1623   26.8192 C   0  0  0  0  0  0  0  0  0  0  0  0
  -13.8315  -31.4004   27.1076 O   0  0  0  0  0  0  0  0  0  0  0  0
  -11.9716  -32.0922   25.6581 C   0  0  0  0  0  0  0  0  0  0  0  0
  -12.5475  -33.3852   25.5211 C   0  0  0  0  0  0  0  0  0  0  0  0
  -11.9130  -34.4772   24.8633 C   0  0  0  0  0  0  0  0  0  0  0  0
  -10.7076  -34.2920   24.1677 C   0  0  0  0  0  0  0  0  0  0  0  0
   -9.9237  -35.2895   23.5856 N   0  0  0  0  0  0  0  0  0  0  0  0
   -8.9392  -34.7284   22.9221 C   0  0  0  0  0  0  0  0  0  0  0  0
   -8.9103  -33.0110   22.9406 S   0  0  0  0  0  0  0  0  0  0  0  0
  -10.2397  -32.9757   24.0663 C   0  0  0  0  0  0  0  0  0  0  0  0
  -10.8327  -31.8786   24.8336 C   0  0  0  0  0  0  0  0  0  0  0  0
  -11.9825  -27.7176   28.8262 C   0  0  0  0  0  0  0  0  0  0  0  0
  -11.7592  -26.9586   27.7655 N   0  0  0  0  0  0  0  0  0  0  0  0
  -11.4795  -25.6892   28.1852 C   0  0  0  0  0  0  0  0  0  0  0  0
  -11.3552  -24.5245   27.4324 C   0  0  0  0  0  0  0  0  0  0  0  0
  -11.3747  -23.2998   28.1002 C   0  0  0  0  0  0  0  0  0  0  0  0
  -11.4658  -23.2425   29.4859 C   0  0  0  0  0  0  0  0  0  0  0  0
  -11.4152  -24.4041   30.2559 C   0  0  0  0  0  0  0  0  0  0  0  0
  -11.4396  -25.6184   29.5556 C   0  0  0  0  0  0  0  0  0  0  0  0
  -11.5460  -26.9479   29.9435 N   0  0  0  0  0  0  0  0  0  0  0  0
  -11.3251  -27.2713   31.3291 C   0  0  0  0  0  0  0  0  0  0  0  0
  -13.7122  -30.8578   29.5860 H   0  0  0  0  0  0  0  0  0  0  0  0
  -13.6064  -29.4177   30.5861 H   0  0  0  0  0  0  0  0  0  0  0  0
  -12.2097  -30.4748   30.3625 H   0  0  0  0  0  0  0  0  0  0  0  0
  -13.6759  -28.9325   28.1764 H   0  0  0  0  0  0  0  0  0  0  0  0
  -13.4607  -33.6129   26.0761 H   0  0  0  0  0  0  0  0  0  0  0  0
  -12.3487  -35.4705   24.9209 H   0  0  0  0  0  0  0  0  0  0  0  0
   -8.2029  -35.2957   22.3686 H   0  0  0  0  0  0  0  0  0  0  0  0
  -10.3452  -30.9048   24.8037 H   0  0  0  0  0  0  0  0  0  0  0  0
  -11.3875  -24.5667   26.3499 H   0  0  0  0  0  0  0  0  0  0  0  0
  -11.3986  -22.3792   27.5240 H   0  0  0  0  0  0  0  0  0  0  0  0
  -11.5446  -22.2774   29.9801 H   0  0  0  0  0  0  0  0  0  0  0  0
  -11.4657  -24.3556   31.3382 H   0  0  0  0  0  0  0  0  0  0  0  0
  -11.7554  -26.5179   31.9834 H   0  0  0  0  0  0  0  0  0  0  0  0
  -11.7597  -28.2484   31.5135 H   0  0  0  0  0  0  0  0  0  0  0  0
  -10.2461  -27.3136   31.4681 H   0  0  0  0  0  0  0  0  0  0  0  0
  1  2  1  0
  2  3  1  0
  3  4  1  0
  4  5  2  0
  4  6  1  0
  6  7  2  0
  7  8  1  0
  8  9  2  0
  9 10  1  0
 10 11  2  0
 11 12  1  0
 12 13  1  0
 13 14  2  0
  2 15  1  0
 15 16  2  0
 16 17  1  0
 17 18  2  0
 18 19  1  0
 19 20  2  0
 20 21  1  0
 21 22  2  0
 22 23  1  0
 23 24  1  0
 14  6  1  0
 23 15  1  0
 13  9  1  0
 22 17  1  0
  1 25  1  0
  1 26  1  0
  1 27  1  0
  2 28  1  0
  7 29  1  0
  8 30  1  0
 11 31  1  0
 14 32  1  0
 18 33  1  0
 19 34  1  0
 20 35  1  0
 21 36  1  0
 24 37  1  0
 24 38  1  0
 24 39  1  0
M  END
>  <Energy>  (1398) 
112.10976194218733

>  <compound_id>  (1398) 
11780

>  <target_id>  (1398) 
1

>  <reference_id>  (1398) 
94

>  <inspiration_ids>  (1398) 
[94, 68]

>  <energy_score>  (1398) 
-18.122458927814137

>  <distance_score>  (1398) 
3.9309016032547603

>  <path>  (1398) 
/opt/xchem-fragalysis-2/maxwin/BulkDock/SCRATCH/511013/C11780-P94/C11780-P94.minimised.mol

>  <scratch_subdir>  (1398) 
/opt/xchem-fragalysis-2/maxwin/BulkDock/SCRATCH/511013/C11780-P94

>  <fragmenstein_runtime>  (1398) 
3.2189993858337402

>  <fragmenstein_outcome>  (1398) 
too moved

>  <fragmenstein_mode>  (1398) 
expansion

>  <fragmenstein_error>  (1398) 


$$$$
C11780-P68
     RDKit          3D

 39 42  0  0  0  0  0  0  0  0999 V2000
  -12.5806  -29.4307   31.2681 C   0  0  0  0  0  0  0  0  0  0  0  0
  -11.9025  -28.5017   29.7096 C   0  0  0  0  0  0  0  0  0  0  0  0
  -11.5592  -29.1977   27.8395 O   0  0  0  0  0  0  0  0  0  0  0  0
  -12.6777  -30.4241   26.7423 C   0  0  0  0  0  0  0  0  0  0  0  0
  -13.8636  -30.0577   26.4705 O   0  0  0  0  0  0  0  0  0  0  0  0
  -12.4449  -32.0471   26.1447 C   0  0  0  0  0  0  0  0  0  0  0  0
  -13.7046  -32.7020   26.3677 C   0  0  0  0  0  0  0  0  0  0  0  0
  -14.0657  -34.0234   25.9619 C   0  0  0  0  0  0  0  0  0  0  0  0
  -13.1641  -34.8192   25.2425 C   0  0  0  0  0  0  0  0  0  0  0  0
  -13.3210  -36.1300   24.8266 N   0  0  0  0  0  0  0  0  0  0  0  0
  -12.2488  -36.5202   24.1706 C   0  0  0  0  0  0  0  0  0  0  0  0
  -10.9991  -35.3636   24.0096 S   0  0  0  0  0  0  0  0  0  0  0  0
  -11.9512  -34.2439   24.9208 C   0  0  0  0  0  0  0  0  0  0  0  0
  -11.6179  -32.9220   25.3340 C   0  0  0  0  0  0  0  0  0  0  0  0
  -10.5585  -28.2413   31.0200 C   0  0  0  0  0  0  0  0  0  0  0  0
   -9.4284  -27.8134   30.4116 N   0  0  0  0  0  0  0  0  0  0  0  0
   -8.9235  -26.6035   31.0790 C   0  0  0  0  0  0  0  0  0  0  0  0
   -8.2119  -25.7316   30.3338 C   0  0  0  0  0  0  0  0  0  0  0  0
   -9.0676  -24.7802   29.1298 C   0  0  0  0  0  0  0  0  0  0  0  0
  -10.0461  -24.1158   29.6869 C   0  0  0  0  0  0  0  0  0  0  0  0
   -9.9706  -24.3265   31.5001 C   0  0  0  0  0  0  0  0  0  0  0  0
   -9.6322  -25.9081   32.1595 C   0  0  0  0  0  0  0  0  0  0  0  0
  -10.8802  -27.2763   32.2225 N   0  0  0  0  0  0  0  0  0  0  0  0
  -11.9646  -27.5254   33.2062 C   0  0  0  0  0  0  0  0  0  0  0  0
  -11.8620  -29.4766   32.0732 H   0  0  0  0  0  0  0  0  0  0  0  0
  -12.6124  -30.5425   31.3050 H   0  0  0  0  0  0  0  0  0  0  0  0
  -13.5985  -29.1798   31.5728 H   0  0  0  0  0  0  0  0  0  0  0  0
  -12.3441  -27.5888   29.4645 H   0  0  0  0  0  0  0  0  0  0  0  0
  -14.4844  -32.1813   26.9319 H   0  0  0  0  0  0  0  0  0  0  0  0
  -15.0420  -34.4222   26.2246 H   0  0  0  0  0  0  0  0  0  0  0  0
  -12.1593  -37.5139   23.7504 H   0  0  0  0  0  0  0  0  0  0  0  0
  -10.6395  -32.6851   24.9413 H   0  0  0  0  0  0  0  0  0  0  0  0
   -7.2894  -26.3138   30.1562 H   0  0  0  0  0  0  0  0  0  0  0  0
   -8.9163  -24.4499   28.1042 H   0  0  0  0  0  0  0  0  0  0  0  0
  -10.4355  -23.1928   29.1560 H   0  0  0  0  0  0  0  0  0  0  0  0
  -10.7550  -23.7825   32.0138 H   0  0  0  0  0  0  0  0  0  0  0  0
  -12.3659  -28.5232   33.2789 H   0  0  0  0  0  0  0  0  0  0  0  0
  -12.8291  -26.9146   33.1057 H   0  0  0  0  0  0  0  0  0  0  0  0
  -11.6618  -27.5189   34.2298 H   0  0  0  0  0  0  0  0  0  0  0  0
  1  2  1  0
  2  3  1  0
  3  4  1  0
  4  5  2  0
  4  6  1  0
  6  7  2  0
  7  8  1  0
  8  9  2  0
  9 10  1  0
 10 11  2  0
 11 12  1  0
 12 13  1  0
 13 14  2  0
  2 15  1  0
 15 16  2  0
 16 17  1  0
 17 18  2  0
 18 19  1  0
 19 20  2  0
 20 21  1  0
 21 22  2  0
 22 23  1  0
 23 24  1  0
 14  6  1  0
 23 15  1  0
 13  9  1  0
 22 17  1  0
  1 25  1  0
  1 26  1  0
  1 27  1  0
  2 28  1  0
  7 29  1  0
  8 30  1  0
 11 31  1  0
 14 32  1  0
 18 33  1  0
 19 34  1  0
 20 35  1  0
 21 36  1  0
 24 37  1  0
 24 38  1  0
 24 39  1  0
M  END
>  <Energy>  (1399) 
835.89543103301651

>  <compound_id>  (1399) 
11780

>  <target_id>  (1399) 
1

>  <reference_id>  (1399) 
68

>  <inspiration_ids>  (1399) 
[94, 68]

>  <energy_score>  (1399) 
722.4678080135205

>  <distance_score>  (1399) 
4.421641729850981

>  <path>  (1399) 
/opt/xchem-fragalysis-2/maxwin/BulkDock/SCRATCH/511013/C11780-P68/C11780-P68.minimised.mol

>  <scratch_subdir>  (1399) 
/opt/xchem-fragalysis-2/maxwin/BulkDock/SCRATCH/511013/C11780-P68

>  <fragmenstein_runtime>  (1399) 
6.8280723094940186

>  <fragmenstein_outcome>  (1399) 
too moved

>  <fragmenstein_mode>  (1399) 
expansion

>  <fragmenstein_error>  (1399) 


$$$$
C11760-P94
     RDKit          3D

 46 49  0  0  0  0  0  0  0  0999 V2000
   -9.0690  -26.0834   28.3551 C   0  0  0  0  0  0  0  0  0  0  0  0
  -10.1242  -25.7530   27.3112 C   0  0  0  0  0  0  0  0  0  0  0  0
  -10.9532  -24.7434   27.4978 N   0  0  0  0  0  0  0  0  0  0  0  0
  -11.6308  -25.4079   28.4504 C   0  0  0  0  0  0  0  0  0  0  0  0
  -11.5709  -25.0756   29.8199 C   0  0  0  0  0  0  0  0  0  0  0  0
  -11.4281  -26.1511   30.6903 C   0  0  0  0  0  0  0  0  0  0  0  0
  -11.7340  -27.4452   30.2360 C   0  0  0  0  0  0  0  0  0  0  0  0
  -12.1435  -27.7488   28.8950 C   0  0  0  0  0  0  0  0  0  0  0  0
  -11.8067  -26.7578   27.9925 C   0  0  0  0  0  0  0  0  0  0  0  0
  -10.9649  -26.7827   26.8632 N   0  0  0  0  0  0  0  0  0  0  0  0
  -10.6304  -27.6516   25.6969 C   0  0  0  0  0  0  0  0  0  0  0  0
   -9.9866  -29.2145   25.6182 C   0  0  0  0  0  0  0  0  0  0  0  0
   -9.9672  -30.2583   24.4116 C   0  0  0  0  0  0  0  0  0  0  0  0
   -9.2804  -30.0459   23.4528 O   0  0  0  0  0  0  0  0  0  0  0  0
  -10.8489  -31.3870   24.7227 N   0  0  0  0  0  0  0  0  0  0  0  0
  -11.2362  -32.5477   23.9245 C   0  0  0  0  0  0  0  0  0  0  0  0
  -11.8297  -32.2239   22.5538 C   0  0  0  0  0  0  0  0  0  0  0  0
  -10.2104  -33.6629   23.8077 C   0  0  0  0  0  0  0  0  0  0  0  0
  -10.3810  -34.8370   24.5590 C   0  0  0  0  0  0  0  0  0  0  0  0
   -9.5436  -35.9449   24.3845 C   0  0  0  0  0  0  0  0  0  0  0  0
   -8.5284  -35.9058   23.4117 C   0  0  0  0  0  0  0  0  0  0  0  0
   -7.6528  -36.9391   23.1159 N   0  0  0  0  0  0  0  0  0  0  0  0
   -6.8684  -36.5662   22.1302 C   0  0  0  0  0  0  0  0  0  0  0  0
   -7.0998  -34.9861   21.5190 S   0  0  0  0  0  0  0  0  0  0  0  0
   -8.3667  -34.7393   22.6601 C   0  0  0  0  0  0  0  0  0  0  0  0
   -9.1682  -33.5993   22.8653 C   0  0  0  0  0  0  0  0  0  0  0  0
   -8.2645  -26.6707   27.9423 H   0  0  0  0  0  0  0  0  0  0  0  0
   -9.4441  -26.6894   29.1740 H   0  0  0  0  0  0  0  0  0  0  0  0
   -8.7250  -25.1685   28.8379 H   0  0  0  0  0  0  0  0  0  0  0  0
  -11.3483  -24.0639   30.1361 H   0  0  0  0  0  0  0  0  0  0  0  0
  -11.1857  -25.9770   31.7359 H   0  0  0  0  0  0  0  0  0  0  0  0
  -11.7362  -28.2304   30.9924 H   0  0  0  0  0  0  0  0  0  0  0  0
  -12.3528  -28.7626   28.5808 H   0  0  0  0  0  0  0  0  0  0  0  0
   -9.8087  -27.1123   25.3012 H   0  0  0  0  0  0  0  0  0  0  0  0
  -11.3610  -27.4289   24.9159 H   0  0  0  0  0  0  0  0  0  0  0  0
  -10.4148  -29.7958   26.4416 H   0  0  0  0  0  0  0  0  0  0  0  0
   -8.9126  -29.0949   25.7814 H   0  0  0  0  0  0  0  0  0  0  0  0
  -11.3367  -31.1973   25.5809 H   0  0  0  0  0  0  0  0  0  0  0  0
  -12.0764  -32.9638   24.4982 H   0  0  0  0  0  0  0  0  0  0  0  0
  -12.7812  -31.7003   22.6610 H   0  0  0  0  0  0  0  0  0  0  0  0
  -11.1594  -31.6082   21.9456 H   0  0  0  0  0  0  0  0  0  0  0  0
  -12.0463  -33.1376   21.9872 H   0  0  0  0  0  0  0  0  0  0  0  0
  -11.1846  -34.9119   25.2894 H   0  0  0  0  0  0  0  0  0  0  0  0
   -9.6857  -36.8457   24.9727 H   0  0  0  0  0  0  0  0  0  0  0  0
   -6.1081  -37.2174   21.7195 H   0  0  0  0  0  0  0  0  0  0  0  0
   -8.9996  -32.6988   22.2758 H   0  0  0  0  0  0  0  0  0  0  0  0
  1  2  1  0
  2  3  2  0
  3  4  1  0
  4  5  2  0
  5  6  1  0
  6  7  2  0
  7  8  1  0
  8  9  2  0
  9 10  1  0
 10 11  1  0
 11 12  1  0
 12 13  1  0
 13 14  2  0
 13 15  1  0
 15 16  1  0
 16 17  1  0
 16 18  1  0
 18 19  2  0
 19 20  1  0
 20 21  2  0
 21 22  1  0
 22 23  2  0
 23 24  1  0
 24 25  1  0
 25 26  2  0
 10  2  1  0
 26 18  1  0
  9  4  1  0
 25 21  1  0
  1 27  1  0
  1 28  1  0
  1 29  1  0
  5 30  1  0
  6 31  1  0
  7 32  1  0
  8 33  1  0
 11 34  1  0
 11 35  1  0
 12 36  1  0
 12 37  1  0
 15 38  1  0
 16 39  1  0
 17 40  1  0
 17 41  1  0
 17 42  1  0
 19 43  1  0
 20 44  1  0
 23 45  1  0
 26 46  1  0
M  END
>  <Energy>  (1400) 
156.47452234158254

>  <compound_id>  (1400) 
11760

>  <target_id>  (1400) 
1

>  <reference_id>  (1400) 
94

>  <inspiration_ids>  (1400) 
[94, 68]

>  <energy_score>  (1400) 
79.86184237226081

>  <distance_score>  (1400) 
4.255365080618385

>  <path>  (1400) 
/opt/xchem-fragalysis-2/maxwin/BulkDock/SCRATCH/511013/C11760-P94/C11760-P94.minimised.mol

>  <scratch_subdir>  (1400) 
/opt/xchem-fragalysis-2/maxwin/BulkDock/SCRATCH/511013/C11760-P94

>  <fragmenstein_runtime>  (1400) 
10.094624757766724

>  <fragmenstein_outcome>  (1400) 
too moved

>  <fragmenstein_mode>  (1400) 
expansion

>  <fragmenstein_error>  (1400) 


$$$$
C11760-P68
     RDKit          3D

 46 49  0  0  0  0  0  0  0  0999 V2000
  -15.7994  -24.6009   31.7787 C   0  0  0  0  0  0  0  0  0  0  0  0
  -14.7649  -23.8123   32.8134 C   0  0  0  0  0  0  0  0  0  0  0  0
  -13.0176  -24.4746   33.2048 N   0  0  0  0  0  0  0  0  0  0  0  0
  -11.6622  -23.0986   32.2025 C   0  0  0  0  0  0  0  0  0  0  0  0
  -10.8826  -23.3155   31.1444 C   0  0  0  0  0  0  0  0  0  0  0  0
  -10.8270  -22.4913   29.7624 C   0  0  0  0  0  0  0  0  0  0  0  0
  -11.5777  -21.5062   29.3424 C   0  0  0  0  0  0  0  0  0  0  0  0
  -12.3188  -21.0019   30.3306 C   0  0  0  0  0  0  0  0  0  0  0  0
  -12.6275  -21.4225   31.8986 C   0  0  0  0  0  0  0  0  0  0  0  0
  -14.5815  -21.9879   32.3369 N   0  0  0  0  0  0  0  0  0  0  0  0
  -15.7124  -21.6245   31.3386 C   0  0  0  0  0  0  0  0  0  0  0  0
  -17.2102  -22.0158   31.6023 C   0  0  0  0  0  0  0  0  0  0  0  0
  -18.2160  -22.1586   30.3480 C   0  0  0  0  0  0  0  0  0  0  0  0
  -18.8272  -21.1377   30.1543 O   0  0  0  0  0  0  0  0  0  0  0  0
  -18.2497  -23.4546   29.6253 N   0  0  0  0  0  0  0  0  0  0  0  0
  -19.1307  -23.9325   28.4862 C   0  0  0  0  0  0  0  0  0  0  0  0
  -19.3760  -22.8276   27.4554 C   0  0  0  0  0  0  0  0  0  0  0  0
  -18.8564  -25.2345   27.6432 C   0  0  0  0  0  0  0  0  0  0  0  0
  -19.8037  -26.2757   27.6844 C   0  0  0  0  0  0  0  0  0  0  0  0
  -19.8167  -27.3481   26.7514 C   0  0  0  0  0  0  0  0  0  0  0  0
  -18.8196  -27.4470   25.7591 C   0  0  0  0  0  0  0  0  0  0  0  0
  -18.6677  -28.4749   24.8440 N   0  0  0  0  0  0  0  0  0  0  0  0
  -17.7396  -28.1410   23.9814 C   0  0  0  0  0  0  0  0  0  0  0  0
  -16.8696  -26.6985   24.3168 S   0  0  0  0  0  0  0  0  0  0  0  0
  -17.8959  -26.4055   25.6715 C   0  0  0  0  0  0  0  0  0  0  0  0
  -17.9332  -25.3013   26.5706 C   0  0  0  0  0  0  0  0  0  0  0  0
  -16.8395  -24.5649   32.1041 H   0  0  0  0  0  0  0  0  0  0  0  0
  -15.5587  -25.6616   31.7396 H   0  0  0  0  0  0  0  0  0  0  0  0
  -15.7198  -24.1901   30.7751 H   0  0  0  0  0  0  0  0  0  0  0  0
  -10.1791  -24.1167   31.3347 H   0  0  0  0  0  0  0  0  0  0  0  0
  -10.2890  -22.9682   28.9162 H   0  0  0  0  0  0  0  0  0  0  0  0
  -11.7145  -21.3246   28.2905 H   0  0  0  0  0  0  0  0  0  0  0  0
  -13.1009  -20.4551   29.8088 H   0  0  0  0  0  0  0  0  0  0  0  0
  -15.6312  -20.5414   31.2622 H   0  0  0  0  0  0  0  0  0  0  0  0
  -15.4245  -22.1185   30.4193 H   0  0  0  0  0  0  0  0  0  0  0  0
  -17.3776  -22.8263   32.3001 H   0  0  0  0  0  0  0  0  0  0  0  0
  -17.6176  -21.1701   32.1806 H   0  0  0  0  0  0  0  0  0  0  0  0
  -17.6678  -24.1187   30.1105 H   0  0  0  0  0  0  0  0  0  0  0  0
  -20.0906  -24.0921   28.9953 H   0  0  0  0  0  0  0  0  0  0  0  0
  -20.1169  -23.1364   26.7078 H   0  0  0  0  0  0  0  0  0  0  0  0
  -18.4731  -22.5343   26.9182 H   0  0  0  0  0  0  0  0  0  0  0  0
  -19.7729  -21.9258   27.9318 H   0  0  0  0  0  0  0  0  0  0  0  0
  -20.6019  -26.2515   28.4274 H   0  0  0  0  0  0  0  0  0  0  0  0
  -20.5736  -28.1242   26.8244 H   0  0  0  0  0  0  0  0  0  0  0  0
  -17.5464  -28.7412   23.1021 H   0  0  0  0  0  0  0  0  0  0  0  0
  -17.3194  -24.4397   26.3357 H   0  0  0  0  0  0  0  0  0  0  0  0
  1  2  1  0
  2  3  2  0
  3  4  1  0
  4  5  2  0
  5  6  1  0
  6  7  2  0
  7  8  1  0
  8  9  2  0
  9 10  1  0
 10 11  1  0
 11 12  1  0
 12 13  1  0
 13 14  2  0
 13 15  1  0
 15 16  1  0
 16 17  1  0
 16 18  1  0
 18 19  2  0
 19 20  1  0
 20 21  2  0
 21 22  1  0
 22 23  2  0
 23 24  1  0
 24 25  1  0
 25 26  2  0
 10  2  1  0
 26 18  1  0
  9  4  1  0
 25 21  1  0
  1 27  1  0
  1 28  1  0
  1 29  1  0
  5 30  1  0
  6 31  1  0
  7 32  1  0
  8 33  1  0
 11 34  1  0
 11 35  1  0
 12 36  1  0
 12 37  1  0
 15 38  1  0
 16 39  1  0
 17 40  1  0
 17 41  1  0
 17 42  1  0
 19 43  1  0
 20 44  1  0
 23 45  1  0
 26 46  1  0
M  END
>  <Energy>  (1401) 
823.55980054908616

>  <compound_id>  (1401) 
11760

>  <target_id>  (1401) 
1

>  <reference_id>  (1401) 
68

>  <inspiration_ids>  (1401) 
[94, 68]

>  <energy_score>  (1401) 
746.947120579775

>  <distance_score>  (1401) 
10.280085734362805

>  <path>  (1401) 
/opt/xchem-fragalysis-2/maxwin/BulkDock/SCRATCH/511013/C11760-P68/C11760-P68.minimised.mol

>  <scratch_subdir>  (1401) 
/opt/xchem-fragalysis-2/maxwin/BulkDock/SCRATCH/511013/C11760-P68

>  <fragmenstein_runtime>  (1401) 
16.26181173324585

>  <fragmenstein_outcome>  (1401) 
too moved

>  <fragmenstein_mode>  (1401) 
expansion

>  <fragmenstein_error>  (1401) 


$$$$
C11783-P94
     RDKit          3D

 37 40  0  0  0  0  0  0  0  0999 V2000
  -10.0361  -29.8679   25.7968 C   0  0  0  0  0  0  0  0  0  0  0  0
  -11.1440  -30.1486   26.9315 C   0  0  0  0  0  0  0  0  0  0  0  0
  -11.8750  -31.2160   26.2553 N   0  0  0  0  0  0  0  0  0  0  0  0
  -13.1556  -31.7861   26.5107 C   0  0  0  0  0  0  0  0  0  0  0  0
  -14.0008  -31.4841   27.2972 O   0  0  0  0  0  0  0  0  0  0  0  0
  -13.2886  -33.0442   25.6174 C   0  0  0  0  0  0  0  0  0  0  0  0
  -13.6689  -34.2304   26.2463 C   0  0  0  0  0  0  0  0  0  0  0  0
  -13.2925  -35.4754   25.7105 C   0  0  0  0  0  0  0  0  0  0  0  0
  -12.5091  -35.5413   24.5379 C   0  0  0  0  0  0  0  0  0  0  0  0
  -11.9525  -36.6854   23.9851 N   0  0  0  0  0  0  0  0  0  0  0  0
  -11.2618  -36.3658   22.9140 C   0  0  0  0  0  0  0  0  0  0  0  0
  -11.2583  -34.7102   22.4788 S   0  0  0  0  0  0  0  0  0  0  0  0
  -12.2293  -34.3528   23.8619 C   0  0  0  0  0  0  0  0  0  0  0  0
  -12.6663  -33.1015   24.3443 C   0  0  0  0  0  0  0  0  0  0  0  0
  -11.7508  -28.7136   27.5786 C   0  0  0  0  0  0  0  0  0  0  0  0
  -11.5271  -27.5020   27.0361 N   0  0  0  0  0  0  0  0  0  0  0  0
  -11.5595  -26.5891   28.0379 C   0  0  0  0  0  0  0  0  0  0  0  0
  -11.3142  -25.2167   28.0277 C   0  0  0  0  0  0  0  0  0  0  0  0
  -11.1418  -24.5880   29.2591 C   0  0  0  0  0  0  0  0  0  0  0  0
  -11.0827  -25.3320   30.4416 C   0  0  0  0  0  0  0  0  0  0  0  0
  -11.3607  -26.7073   30.4542 C   0  0  0  0  0  0  0  0  0  0  0  0
  -11.7452  -27.2629   29.2274 C   0  0  0  0  0  0  0  0  0  0  0  0
  -12.3322  -28.4697   28.8137 N   0  0  0  0  0  0  0  0  0  0  0  0
   -9.1439  -30.4391   26.0297 H   0  0  0  0  0  0  0  0  0  0  0  0
   -9.7815  -28.8159   25.6562 H   0  0  0  0  0  0  0  0  0  0  0  0
  -10.3260  -30.2291   24.8019 H   0  0  0  0  0  0  0  0  0  0  0  0
  -10.6354  -30.6674   27.7103 H   0  0  0  0  0  0  0  0  0  0  0  0
  -11.3921  -31.7830   25.5729 H   0  0  0  0  0  0  0  0  0  0  0  0
  -14.1478  -34.2010   27.2232 H   0  0  0  0  0  0  0  0  0  0  0  0
  -13.5260  -36.3924   26.2444 H   0  0  0  0  0  0  0  0  0  0  0  0
  -10.7319  -37.1046   22.3270 H   0  0  0  0  0  0  0  0  0  0  0  0
  -12.3781  -32.1970   23.8114 H   0  0  0  0  0  0  0  0  0  0  0  0
  -11.2472  -24.6703   27.0951 H   0  0  0  0  0  0  0  0  0  0  0  0
  -11.0361  -23.5093   29.2832 H   0  0  0  0  0  0  0  0  0  0  0  0
  -10.8903  -24.8260   31.3861 H   0  0  0  0  0  0  0  0  0  0  0  0
  -11.3867  -27.2599   31.3863 H   0  0  0  0  0  0  0  0  0  0  0  0
  -12.6672  -29.1927   29.4330 H   0  0  0  0  0  0  0  0  0  0  0  0
  1  2  1  0
  2  3  1  0
  3  4  1  0
  4  5  2  0
  4  6  1  0
  6  7  2  0
  7  8  1  0
  8  9  2  0
  9 10  1  0
 10 11  2  0
 11 12  1  0
 12 13  1  0
 13 14  2  0
  2 15  1  0
 15 16  2  0
 16 17  1  0
 17 18  2  0
 18 19  1  0
 19 20  2  0
 20 21  1  0
 21 22  2  0
 22 23  1  0
 14  6  1  0
 23 15  1  0
 13  9  1  0
 22 17  1  0
  1 24  1  0
  1 25  1  0
  1 26  1  0
  2 27  1  0
  3 28  1  0
  7 29  1  0
  8 30  1  0
 11 31  1  0
 14 32  1  0
 18 33  1  0
 19 34  1  0
 20 35  1  0
 21 36  1  0
 23 37  1  0
M  END
>  <Energy>  (1402) 
88.258608678953948

>  <compound_id>  (1402) 
11783

>  <target_id>  (1402) 
1

>  <reference_id>  (1402) 
94

>  <inspiration_ids>  (1402) 
[94, 68]

>  <energy_score>  (1402) 
8.077608572375482

>  <distance_score>  (1402) 
4.2748688419655

>  <path>  (1402) 
/opt/xchem-fragalysis-2/maxwin/BulkDock/SCRATCH/511013/C11783-P94/C11783-P94.minimised.mol

>  <scratch_subdir>  (1402) 
/opt/xchem-fragalysis-2/maxwin/BulkDock/SCRATCH/511013/C11783-P94

>  <fragmenstein_runtime>  (1402) 
6.220671653747559

>  <fragmenstein_outcome>  (1402) 
too moved

>  <fragmenstein_mode>  (1402) 
expansion

>  <fragmenstein_error>  (1402) 


$$$$
C11783-P68
     RDKit          3D

 37 40  0  0  0  0  0  0  0  0999 V2000
  -10.5881  -27.2101   26.8842 C   0  0  0  0  0  0  0  0  0  0  0  0
  -10.4230  -28.1233   28.1368 C   0  0  0  0  0  0  0  0  0  0  0  0
  -10.4531  -29.8599   27.2333 N   0  0  0  0  0  0  0  0  0  0  0  0
  -11.9477  -30.9067   26.4566 C   0  0  0  0  0  0  0  0  0  0  0  0
  -13.0899  -30.4774   26.3942 O   0  0  0  0  0  0  0  0  0  0  0  0
  -11.8831  -32.5470   25.6974 C   0  0  0  0  0  0  0  0  0  0  0  0
  -13.1223  -33.2175   25.8108 C   0  0  0  0  0  0  0  0  0  0  0  0
  -13.3423  -34.5282   25.3200 C   0  0  0  0  0  0  0  0  0  0  0  0
  -12.3186  -35.2227   24.6459 C   0  0  0  0  0  0  0  0  0  0  0  0
  -12.3512  -36.5275   24.1839 N   0  0  0  0  0  0  0  0  0  0  0  0
  -11.2190  -36.8123   23.5775 C   0  0  0  0  0  0  0  0  0  0  0  0
  -10.0659  -35.5508   23.4951 S   0  0  0  0  0  0  0  0  0  0  0  0
  -11.1351  -34.5426   24.3998 C   0  0  0  0  0  0  0  0  0  0  0  0
  -10.9375  -33.2233   24.8571 C   0  0  0  0  0  0  0  0  0  0  0  0
   -9.3895  -27.5649   29.8252 C   0  0  0  0  0  0  0  0  0  0  0  0
   -9.3521  -26.7489   31.2759 N   0  0  0  0  0  0  0  0  0  0  0  0
   -9.1360  -24.8855   31.4001 C   0  0  0  0  0  0  0  0  0  0  0  0
  -10.4368  -23.8345   31.3785 C   0  0  0  0  0  0  0  0  0  0  0  0
  -10.8725  -22.6191   30.2043 C   0  0  0  0  0  0  0  0  0  0  0  0
  -10.4637  -22.8705   28.8177 C   0  0  0  0  0  0  0  0  0  0  0  0
   -9.5647  -24.0462   28.5716 C   0  0  0  0  0  0  0  0  0  0  0  0
   -8.7198  -24.8264   29.8055 C   0  0  0  0  0  0  0  0  0  0  0  0
   -8.2725  -26.2747   30.1203 N   0  0  0  0  0  0  0  0  0  0  0  0
  -11.6426  -27.1119   26.5987 H   0  0  0  0  0  0  0  0  0  0  0  0
  -10.2051  -27.6589   25.9692 H   0  0  0  0  0  0  0  0  0  0  0  0
  -10.2051  -26.2026   26.9804 H   0  0  0  0  0  0  0  0  0  0  0  0
  -11.4097  -28.1442   28.5897 H   0  0  0  0  0  0  0  0  0  0  0  0
   -9.6469  -30.4136   27.2635 H   0  0  0  0  0  0  0  0  0  0  0  0
  -13.9424  -32.7387   26.3488 H   0  0  0  0  0  0  0  0  0  0  0  0
  -14.2979  -35.0180   25.4868 H   0  0  0  0  0  0  0  0  0  0  0  0
  -11.0264  -37.7847   23.1426 H   0  0  0  0  0  0  0  0  0  0  0  0
  -10.0246  -32.7607   24.5031 H   0  0  0  0  0  0  0  0  0  0  0  0
  -10.8864  -23.7839   32.3112 H   0  0  0  0  0  0  0  0  0  0  0  0
  -11.5619  -21.8227   30.4570 H   0  0  0  0  0  0  0  0  0  0  0  0
  -10.9558  -22.3260   28.0198 H   0  0  0  0  0  0  0  0  0  0  0  0
   -9.3690  -24.3580   27.5517 H   0  0  0  0  0  0  0  0  0  0  0  0
   -7.9316  -26.2849   31.0093 H   0  0  0  0  0  0  0  0  0  0  0  0
  1  2  1  0
  2  3  1  0
  3  4  1  0
  4  5  2  0
  4  6  1  0
  6  7  2  0
  7  8  1  0
  8  9  2  0
  9 10  1  0
 10 11  2  0
 11 12  1  0
 12 13  1  0
 13 14  2  0
  2 15  1  0
 15 16  2  0
 16 17  1  0
 17 18  2  0
 18 19  1  0
 19 20  2  0
 20 21  1  0
 21 22  2  0
 22 23  1  0
 14  6  1  0
 23 15  1  0
 13  9  1  0
 22 17  1  0
  1 24  1  0
  1 25  1  0
  1 26  1  0
  2 27  1  0
  3 28  1  0
  7 29  1  0
  8 30  1  0
 11 31  1  0
 14 32  1  0
 18 33  1  0
 19 34  1  0
 20 35  1  0
 21 36  1  0
 23 37  1  0
M  END
>  <Energy>  (1403) 
751.94505149557176

>  <compound_id>  (1403) 
11783

>  <target_id>  (1403) 
1

>  <reference_id>  (1403) 
68

>  <inspiration_ids>  (1403) 
[94, 68]

>  <energy_score>  (1403) 
671.7640513889932

>  <distance_score>  (1403) 
3.7320396049101845

>  <path>  (1403) 
/opt/xchem-fragalysis-2/maxwin/BulkDock/SCRATCH/511013/C11783-P68/C11783-P68.minimised.mol

>  <scratch_subdir>  (1403) 
/opt/xchem-fragalysis-2/maxwin/BulkDock/SCRATCH/511013/C11783-P68

>  <fragmenstein_runtime>  (1403) 
8.007449388504028

>  <fragmenstein_outcome>  (1403) 
too moved

>  <fragmenstein_mode>  (1403) 
expansion

>  <fragmenstein_error>  (1403) 


$$$$
C11771-P94
     RDKit          3D

 41 45  0  0  0  0  0  0  0  0999 V2000
  -10.5265  -30.4857   26.8148 O   0  0  0  0  0  0  0  0  0  0  0  0
  -10.3549  -29.9939   25.7331 C   0  0  0  0  0  0  0  0  0  0  0  0
  -10.4486  -28.5762   25.2874 N   0  0  0  0  0  0  0  0  0  0  0  0
  -10.8878  -27.3194   26.0313 C   0  0  0  0  0  0  0  0  0  0  0  0
  -11.3401  -26.2974   25.2041 C   0  0  0  0  0  0  0  0  0  0  0  0
  -11.4709  -24.9512   25.5623 C   0  0  0  0  0  0  0  0  0  0  0  0
  -11.3029  -24.5975   26.8596 C   0  0  0  0  0  0  0  0  0  0  0  0
  -11.2101  -25.6157   27.7896 C   0  0  0  0  0  0  0  0  0  0  0  0
  -11.2202  -25.2315   29.1848 C   0  0  0  0  0  0  0  0  0  0  0  0
  -10.7688  -25.9221   30.2036 N   0  0  0  0  0  0  0  0  0  0  0  0
  -11.0180  -25.1340   31.2930 C   0  0  0  0  0  0  0  0  0  0  0  0
  -10.8426  -25.4202   32.6333 C   0  0  0  0  0  0  0  0  0  0  0  0
  -11.3181  -24.4952   33.5540 C   0  0  0  0  0  0  0  0  0  0  0  0
  -11.8603  -23.2684   33.1718 C   0  0  0  0  0  0  0  0  0  0  0  0
  -11.9750  -22.9295   31.8333 C   0  0  0  0  0  0  0  0  0  0  0  0
  -11.5844  -23.9189   30.9401 C   0  0  0  0  0  0  0  0  0  0  0  0
  -11.7401  -24.0271   29.5988 N   0  0  0  0  0  0  0  0  0  0  0  0
  -11.1059  -26.9709   27.3674 C   0  0  0  0  0  0  0  0  0  0  0  0
  -10.1053  -31.0131   24.6449 C   0  0  0  0  0  0  0  0  0  0  0  0
  -10.9602  -32.1313   24.6472 C   0  0  0  0  0  0  0  0  0  0  0  0
  -10.7202  -33.2487   23.8368 C   0  0  0  0  0  0  0  0  0  0  0  0
   -9.5852  -33.2625   23.0089 C   0  0  0  0  0  0  0  0  0  0  0  0
   -9.1547  -34.3391   22.2473 N   0  0  0  0  0  0  0  0  0  0  0  0
   -8.0358  -34.0148   21.6397 C   0  0  0  0  0  0  0  0  0  0  0  0
   -7.4705  -32.4191   21.8808 S   0  0  0  0  0  0  0  0  0  0  0  0
   -8.7875  -32.1153   22.9534 C   0  0  0  0  0  0  0  0  0  0  0  0
   -9.0568  -30.9598   23.7263 C   0  0  0  0  0  0  0  0  0  0  0  0
  -10.3230  -28.5346   24.2839 H   0  0  0  0  0  0  0  0  0  0  0  0
  -11.7540  -26.6084   24.2643 H   0  0  0  0  0  0  0  0  0  0  0  0
  -11.7074  -24.1540   24.8729 H   0  0  0  0  0  0  0  0  0  0  0  0
  -11.3515  -23.5458   27.1203 H   0  0  0  0  0  0  0  0  0  0  0  0
  -10.4545  -26.3749   32.9394 H   0  0  0  0  0  0  0  0  0  0  0  0
  -11.2840  -24.7619   34.6006 H   0  0  0  0  0  0  0  0  0  0  0  0
  -12.2273  -22.5890   33.9360 H   0  0  0  0  0  0  0  0  0  0  0  0
  -12.4469  -22.0106   31.5178 H   0  0  0  0  0  0  0  0  0  0  0  0
  -12.2714  -23.3905   29.0240 H   0  0  0  0  0  0  0  0  0  0  0  0
  -11.2143  -27.7032   28.1574 H   0  0  0  0  0  0  0  0  0  0  0  0
  -11.7955  -32.1661   25.3444 H   0  0  0  0  0  0  0  0  0  0  0  0
  -11.3592  -34.1237   23.8924 H   0  0  0  0  0  0  0  0  0  0  0  0
   -7.4982  -34.7072   21.0062 H   0  0  0  0  0  0  0  0  0  0  0  0
   -8.3633  -30.1281   23.7103 H   0  0  0  0  0  0  0  0  0  0  0  0
  1  2  2  0
  2  3  1  0
  3  4  1  0
  4  5  2  0
  5  6  1  0
  6  7  2  0
  7  8  1  0
  8  9  1  0
  9 10  2  0
 10 11  1  0
 11 12  2  0
 12 13  1  0
 13 14  2  0
 14 15  1  0
 15 16  2  0
 16 17  1  0
  8 18  2  0
  2 19  1  0
 19 20  2  0
 20 21  1  0
 21 22  2  0
 22 23  1  0
 23 24  2  0
 24 25  1  0
 25 26  1  0
 26 27  2  0
 18  4  1  0
 27 19  1  0
 17  9  1  0
 26 22  1  0
 16 11  1  0
  3 28  1  0
  5 29  1  0
  6 30  1  0
  7 31  1  0
 12 32  1  0
 13 33  1  0
 14 34  1  0
 15 35  1  0
 17 36  1  0
 18 37  1  0
 20 38  1  0
 21 39  1  0
 24 40  1  0
 27 41  1  0
M  END
>  <Energy>  (1404) 
92.032553863896538

>  <compound_id>  (1404) 
11771

>  <target_id>  (1404) 
1

>  <reference_id>  (1404) 
94

>  <inspiration_ids>  (1404) 
[94, 68]

>  <energy_score>  (1404) 
-25.78758221575538

>  <distance_score>  (1404) 
3.667541429660235

>  <path>  (1404) 
/opt/xchem-fragalysis-2/maxwin/BulkDock/SCRATCH/511013/C11771-P94/C11771-P94.minimised.mol

>  <scratch_subdir>  (1404) 
/opt/xchem-fragalysis-2/maxwin/BulkDock/SCRATCH/511013/C11771-P94

>  <fragmenstein_runtime>  (1404) 
7.809009552001953

>  <fragmenstein_outcome>  (1404) 
too moved

>  <fragmenstein_mode>  (1404) 
expansion

>  <fragmenstein_error>  (1404) 


$$$$
C11771-P68
     RDKit          3D

 41 45  0  0  0  0  0  0  0  0999 V2000
  -11.5448  -32.3531   26.0927 O   0  0  0  0  0  0  0  0  0  0  0  0
  -12.4925  -31.6287   26.1853 C   0  0  0  0  0  0  0  0  0  0  0  0
  -12.5741  -30.1733   26.5290 N   0  0  0  0  0  0  0  0  0  0  0  0
  -11.1966  -28.8921   27.0275 C   0  0  0  0  0  0  0  0  0  0  0  0
  -11.3126  -27.6994   26.1501 C   0  0  0  0  0  0  0  0  0  0  0  0
  -12.3358  -26.7935   26.3116 C   0  0  0  0  0  0  0  0  0  0  0  0
  -12.9012  -26.9300   27.5897 C   0  0  0  0  0  0  0  0  0  0  0  0
  -12.0275  -27.8729   28.9375 C   0  0  0  0  0  0  0  0  0  0  0  0
  -12.1457  -28.3586   30.7563 C   0  0  0  0  0  0  0  0  0  0  0  0
  -11.2532  -28.9906   31.4648 N   0  0  0  0  0  0  0  0  0  0  0  0
  -10.3860  -28.0476   31.3240 C   0  0  0  0  0  0  0  0  0  0  0  0
   -9.2400  -27.6158   30.3708 C   0  0  0  0  0  0  0  0  0  0  0  0
   -8.4366  -26.3193   30.6785 C   0  0  0  0  0  0  0  0  0  0  0  0
   -8.8325  -25.3837   31.7037 C   0  0  0  0  0  0  0  0  0  0  0  0
   -9.8684  -25.6876   32.5509 C   0  0  0  0  0  0  0  0  0  0  0  0
  -10.8009  -27.1385   32.3206 C   0  0  0  0  0  0  0  0  0  0  0  0
  -12.0184  -27.6877   32.3309 N   0  0  0  0  0  0  0  0  0  0  0  0
  -10.9476  -28.2844   28.1758 C   0  0  0  0  0  0  0  0  0  0  0  0
  -13.7355  -32.3643   25.7728 C   0  0  0  0  0  0  0  0  0  0  0  0
  -14.4442  -33.0030   26.7854 C   0  0  0  0  0  0  0  0  0  0  0  0
  -14.7037  -34.3881   26.6932 C   0  0  0  0  0  0  0  0  0  0  0  0
  -14.1984  -35.1501   25.6117 C   0  0  0  0  0  0  0  0  0  0  0  0
  -14.1692  -36.5328   25.5113 N   0  0  0  0  0  0  0  0  0  0  0  0
  -13.5533  -36.8845   24.4032 C   0  0  0  0  0  0  0  0  0  0  0  0
  -13.0237  -35.6109   23.3906 S   0  0  0  0  0  0  0  0  0  0  0  0
  -13.6113  -34.4736   24.5480 C   0  0  0  0  0  0  0  0  0  0  0  0
  -13.4774  -33.0759   24.5551 C   0  0  0  0  0  0  0  0  0  0  0  0
  -13.5272  -29.8616   26.4358 H   0  0  0  0  0  0  0  0  0  0  0  0
  -10.5498  -27.5201   25.4072 H   0  0  0  0  0  0  0  0  0  0  0  0
  -12.5528  -25.9196   25.7277 H   0  0  0  0  0  0  0  0  0  0  0  0
  -13.5450  -26.1075   27.7261 H   0  0  0  0  0  0  0  0  0  0  0  0
   -8.8123  -28.4024   29.7405 H   0  0  0  0  0  0  0  0  0  0  0  0
   -7.4322  -26.2887   30.3016 H   0  0  0  0  0  0  0  0  0  0  0  0
   -8.4435  -24.5305   32.1576 H   0  0  0  0  0  0  0  0  0  0  0  0
  -10.3776  -24.7446   32.7263 H   0  0  0  0  0  0  0  0  0  0  0  0
  -12.8605  -27.2849   32.6988 H   0  0  0  0  0  0  0  0  0  0  0  0
  -10.1088  -27.5977   28.1460 H   0  0  0  0  0  0  0  0  0  0  0  0
  -14.6173  -32.5112   27.7409 H   0  0  0  0  0  0  0  0  0  0  0  0
  -15.1618  -34.9087   27.5308 H   0  0  0  0  0  0  0  0  0  0  0  0
  -13.4011  -37.9216   24.1333 H   0  0  0  0  0  0  0  0  0  0  0  0
  -12.8416  -32.6396   23.7856 H   0  0  0  0  0  0  0  0  0  0  0  0
  1  2  2  0
  2  3  1  0
  3  4  1  0
  4  5  2  0
  5  6  1  0
  6  7  2  0
  7  8  1  0
  8  9  1  0
  9 10  2  0
 10 11  1  0
 11 12  2  0
 12 13  1  0
 13 14  2  0
 14 15  1  0
 15 16  2  0
 16 17  1  0
  8 18  2  0
  2 19  1  0
 19 20  2  0
 20 21  1  0
 21 22  2  0
 22 23  1  0
 23 24  2  0
 24 25  1  0
 25 26  1  0
 26 27  2  0
 18  4  1  0
 27 19  1  0
 17  9  1  0
 26 22  1  0
 16 11  1  0
  3 28  1  0
  5 29  1  0
  6 30  1  0
  7 31  1  0
 12 32  1  0
 13 33  1  0
 14 34  1  0
 15 35  1  0
 17 36  1  0
 18 37  1  0
 20 38  1  0
 21 39  1  0
 24 40  1  0
 27 41  1  0
M  END
>  <Energy>  (1405) 
661.18507986288034

>  <compound_id>  (1405) 
11771

>  <target_id>  (1405) 
1

>  <reference_id>  (1405) 
68

>  <inspiration_ids>  (1405) 
[94, 68]

>  <energy_score>  (1405) 
543.3649437832333

>  <distance_score>  (1405) 
4.748393647499412

>  <path>  (1405) 
/opt/xchem-fragalysis-2/maxwin/BulkDock/SCRATCH/511013/C11771-P68/C11771-P68.minimised.mol

>  <scratch_subdir>  (1405) 
/opt/xchem-fragalysis-2/maxwin/BulkDock/SCRATCH/511013/C11771-P68

>  <fragmenstein_runtime>  (1405) 
10.883225440979004

>  <fragmenstein_outcome>  (1405) 
too moved

>  <fragmenstein_mode>  (1405) 
expansion

>  <fragmenstein_error>  (1405) 


$$$$
C11770-P94
     RDKit          3D

 41 45  0  0  0  0  0  0  0  0999 V2000
  -15.3908  -32.0904   25.4392 O   0  0  0  0  0  0  0  0  0  0  0  0
  -14.5984  -32.6027   26.1748 C   0  0  0  0  0  0  0  0  0  0  0  0
  -14.1964  -32.2571   27.5128 N   0  0  0  0  0  0  0  0  0  0  0  0
  -14.5392  -31.1597   28.3279 C   0  0  0  0  0  0  0  0  0  0  0  0
  -15.0835  -30.0123   27.7849 C   0  0  0  0  0  0  0  0  0  0  0  0
  -14.4978  -28.7876   28.1455 C   0  0  0  0  0  0  0  0  0  0  0  0
  -13.3586  -28.7572   28.9749 C   0  0  0  0  0  0  0  0  0  0  0  0
  -12.3752  -27.6475   28.8151 C   0  0  0  0  0  0  0  0  0  0  0  0
  -12.2097  -26.9785   27.6903 N   0  0  0  0  0  0  0  0  0  0  0  0
  -11.6929  -25.7640   28.0356 C   0  0  0  0  0  0  0  0  0  0  0  0
  -11.5894  -24.6016   27.2689 C   0  0  0  0  0  0  0  0  0  0  0  0
  -11.4462  -23.3941   27.9537 C   0  0  0  0  0  0  0  0  0  0  0  0
  -11.3628  -23.3699   29.3456 C   0  0  0  0  0  0  0  0  0  0  0  0
  -11.2485  -24.5452   30.0996 C   0  0  0  0  0  0  0  0  0  0  0  0
  -11.4246  -25.7300   29.3929 C   0  0  0  0  0  0  0  0  0  0  0  0
  -11.5863  -27.0421   29.7944 N   0  0  0  0  0  0  0  0  0  0  0  0
  -13.2050  -29.8277   29.8413 C   0  0  0  0  0  0  0  0  0  0  0  0
  -13.8359  -31.0348   29.5307 C   0  0  0  0  0  0  0  0  0  0  0  0
  -13.7647  -33.7510   25.6575 C   0  0  0  0  0  0  0  0  0  0  0  0
  -13.7339  -34.9868   26.3020 C   0  0  0  0  0  0  0  0  0  0  0  0
  -12.7600  -35.9417   25.9575 C   0  0  0  0  0  0  0  0  0  0  0  0
  -11.7915  -35.6580   24.9681 C   0  0  0  0  0  0  0  0  0  0  0  0
  -10.7465  -36.4873   24.5840 N   0  0  0  0  0  0  0  0  0  0  0  0
  -10.0374  -35.8934   23.6502 C   0  0  0  0  0  0  0  0  0  0  0  0
  -10.5660  -34.3383   23.1676 S   0  0  0  0  0  0  0  0  0  0  0  0
  -11.8572  -34.4264   24.3110 C   0  0  0  0  0  0  0  0  0  0  0  0
  -12.8424  -33.4659   24.6282 C   0  0  0  0  0  0  0  0  0  0  0  0
  -13.5653  -32.9587   27.8567 H   0  0  0  0  0  0  0  0  0  0  0  0
  -15.7323  -30.0440   26.9131 H   0  0  0  0  0  0  0  0  0  0  0  0
  -14.7571  -27.9008   27.5626 H   0  0  0  0  0  0  0  0  0  0  0  0
  -11.7908  -24.6202   26.2043 H   0  0  0  0  0  0  0  0  0  0  0  0
  -11.4989  -22.4597   27.4023 H   0  0  0  0  0  0  0  0  0  0  0  0
  -11.3632  -22.4090   29.8565 H   0  0  0  0  0  0  0  0  0  0  0  0
  -11.1628  -24.5219   31.1806 H   0  0  0  0  0  0  0  0  0  0  0  0
  -11.5269  -27.3325   30.7578 H   0  0  0  0  0  0  0  0  0  0  0  0
  -12.4946  -29.8152   30.6626 H   0  0  0  0  0  0  0  0  0  0  0  0
  -13.5784  -31.8931   30.1355 H   0  0  0  0  0  0  0  0  0  0  0  0
  -14.4378  -35.2115   27.0999 H   0  0  0  0  0  0  0  0  0  0  0  0
  -12.7197  -36.8959   26.4755 H   0  0  0  0  0  0  0  0  0  0  0  0
   -9.1671  -36.3548   23.2019 H   0  0  0  0  0  0  0  0  0  0  0  0
  -12.8370  -32.4959   24.1370 H   0  0  0  0  0  0  0  0  0  0  0  0
  1  2  2  0
  2  3  1  0
  3  4  1  0
  4  5  2  0
  5  6  1  0
  6  7  2  0
  7  8  1  0
  8  9  2  0
  9 10  1  0
 10 11  2  0
 11 12  1  0
 12 13  2  0
 13 14  1  0
 14 15  2  0
 15 16  1  0
  7 17  1  0
 17 18  2  0
  2 19  1  0
 19 20  2  0
 20 21  1  0
 21 22  2  0
 22 23  1  0
 23 24  2  0
 24 25  1  0
 25 26  1  0
 26 27  2  0
 18  4  1  0
 27 19  1  0
 16  8  1  0
 26 22  1  0
 15 10  1  0
  3 28  1  0
  5 29  1  0
  6 30  1  0
 11 31  1  0
 12 32  1  0
 13 33  1  0
 14 34  1  0
 16 35  1  0
 17 36  1  0
 18 37  1  0
 20 38  1  0
 21 39  1  0
 24 40  1  0
 27 41  1  0
M  END
>  <Energy>  (1406) 
93.975058503572669

>  <compound_id>  (1406) 
11770

>  <target_id>  (1406) 
1

>  <reference_id>  (1406) 
94

>  <inspiration_ids>  (1406) 
[94, 68]

>  <energy_score>  (1406) 
-12.559553489007499

>  <distance_score>  (1406) 
4.038927989610837

>  <path>  (1406) 
/opt/xchem-fragalysis-2/maxwin/BulkDock/SCRATCH/511013/C11770-P94/C11770-P94.minimised.mol

>  <scratch_subdir>  (1406) 
/opt/xchem-fragalysis-2/maxwin/BulkDock/SCRATCH/511013/C11770-P94

>  <fragmenstein_runtime>  (1406) 
7.187578201293945

>  <fragmenstein_outcome>  (1406) 
too moved

>  <fragmenstein_mode>  (1406) 
expansion

>  <fragmenstein_error>  (1406) 


$$$$
C11770-P68
     RDKit          3D

 41 45  0  0  0  0  0  0  0  0999 V2000
  -15.4339  -30.5086   25.7543 O   0  0  0  0  0  0  0  0  0  0  0  0
  -14.2892  -30.8063   25.9787 C   0  0  0  0  0  0  0  0  0  0  0  0
  -13.0475  -29.9437   26.0728 N   0  0  0  0  0  0  0  0  0  0  0  0
  -12.7931  -28.0593   25.7462 C   0  0  0  0  0  0  0  0  0  0  0  0
  -14.1004  -27.3401   25.5759 C   0  0  0  0  0  0  0  0  0  0  0  0
  -14.2529  -25.9858   25.4955 C   0  0  0  0  0  0  0  0  0  0  0  0
  -13.1589  -25.1938   25.7748 C   0  0  0  0  0  0  0  0  0  0  0  0
  -13.2507  -23.7249   25.4608 C   0  0  0  0  0  0  0  0  0  0  0  0
  -12.2351  -22.9083   25.2538 N   0  0  0  0  0  0  0  0  0  0  0  0
  -12.6444  -22.0380   24.2625 C   0  0  0  0  0  0  0  0  0  0  0  0
  -11.9240  -21.1730   23.4283 C   0  0  0  0  0  0  0  0  0  0  0  0
  -12.6152  -20.3522   22.5362 C   0  0  0  0  0  0  0  0  0  0  0  0
  -14.0051  -20.3953   22.4638 C   0  0  0  0  0  0  0  0  0  0  0  0
  -14.7406  -21.2931   23.2373 C   0  0  0  0  0  0  0  0  0  0  0  0
  -14.0079  -22.1290   24.0828 C   0  0  0  0  0  0  0  0  0  0  0  0
  -14.3812  -23.0957   24.9836 N   0  0  0  0  0  0  0  0  0  0  0  0
  -11.8965  -25.8581   26.0461 C   0  0  0  0  0  0  0  0  0  0  0  0
  -11.6787  -27.2667   26.0221 C   0  0  0  0  0  0  0  0  0  0  0  0
  -13.9958  -32.3064   26.0881 C   0  0  0  0  0  0  0  0  0  0  0  0
  -14.7654  -33.1444   26.8848 C   0  0  0  0  0  0  0  0  0  0  0  0
  -14.6002  -34.5502   26.8262 C   0  0  0  0  0  0  0  0  0  0  0  0
  -13.6501  -35.1448   25.9593 C   0  0  0  0  0  0  0  0  0  0  0  0
  -13.3171  -36.4886   25.8637 N   0  0  0  0  0  0  0  0  0  0  0  0
  -12.3913  -36.6575   24.9427 C   0  0  0  0  0  0  0  0  0  0  0  0
  -11.8475  -35.2405   24.1495 S   0  0  0  0  0  0  0  0  0  0  0  0
  -12.9175  -34.3045   25.1295 C   0  0  0  0  0  0  0  0  0  0  0  0
  -13.1040  -32.9105   25.1635 C   0  0  0  0  0  0  0  0  0  0  0  0
  -12.2797  -30.5067   26.3563 H   0  0  0  0  0  0  0  0  0  0  0  0
  -15.0210  -27.9243   25.4939 H   0  0  0  0  0  0  0  0  0  0  0  0
  -15.2306  -25.5974   25.2313 H   0  0  0  0  0  0  0  0  0  0  0  0
  -10.8446  -21.1661   23.4286 H   0  0  0  0  0  0  0  0  0  0  0  0
  -12.0601  -19.6845   21.8829 H   0  0  0  0  0  0  0  0  0  0  0  0
  -14.5267  -19.7356   21.7745 H   0  0  0  0  0  0  0  0  0  0  0  0
  -15.8213  -21.3373   23.1825 H   0  0  0  0  0  0  0  0  0  0  0  0
  -15.3289  -23.4095   25.1026 H   0  0  0  0  0  0  0  0  0  0  0  0
  -11.0303  -25.2149   26.2534 H   0  0  0  0  0  0  0  0  0  0  0  0
  -10.7183  -27.6625   26.3133 H   0  0  0  0  0  0  0  0  0  0  0  0
  -15.5190  -32.7255   27.5492 H   0  0  0  0  0  0  0  0  0  0  0  0
  -15.1982  -35.1904   27.4706 H   0  0  0  0  0  0  0  0  0  0  0  0
  -11.9940  -37.6341   24.6951 H   0  0  0  0  0  0  0  0  0  0  0  0
  -12.5860  -32.3528   24.4028 H   0  0  0  0  0  0  0  0  0  0  0  0
  1  2  2  0
  2  3  1  0
  3  4  1  0
  4  5  2  0
  5  6  1  0
  6  7  2  0
  7  8  1  0
  8  9  2  0
  9 10  1  0
 10 11  2  0
 11 12  1  0
 12 13  2  0
 13 14  1  0
 14 15  2  0
 15 16  1  0
  7 17  1  0
 17 18  2  0
  2 19  1  0
 19 20  2  0
 20 21  1  0
 21 22  2  0
 22 23  1  0
 23 24  2  0
 24 25  1  0
 25 26  1  0
 26 27  2  0
 18  4  1  0
 27 19  1  0
 16  8  1  0
 26 22  1  0
 15 10  1  0
  3 28  1  0
  5 29  1  0
  6 30  1  0
 11 31  1  0
 12 32  1  0
 13 33  1  0
 14 34  1  0
 16 35  1  0
 17 36  1  0
 18 37  1  0
 20 38  1  0
 21 39  1  0
 24 40  1  0
 27 41  1  0
M  END
>  <Energy>  (1407) 
156.43657883224225

>  <compound_id>  (1407) 
11770

>  <target_id>  (1407) 
1

>  <reference_id>  (1407) 
68

>  <inspiration_ids>  (1407) 
[94, 68]

>  <energy_score>  (1407) 
49.901966839663714

>  <distance_score>  (1407) 
6.7510393672140125

>  <path>  (1407) 
/opt/xchem-fragalysis-2/maxwin/BulkDock/SCRATCH/511013/C11770-P68/C11770-P68.minimised.mol

>  <scratch_subdir>  (1407) 
/opt/xchem-fragalysis-2/maxwin/BulkDock/SCRATCH/511013/C11770-P68

>  <fragmenstein_runtime>  (1407) 
13.765861749649048

>  <fragmenstein_outcome>  (1407) 
too moved

>  <fragmenstein_mode>  (1407) 
expansion

>  <fragmenstein_error>  (1407) 


$$$$
C11769-P94
     RDKit          3D

 41 45  0  0  0  0  0  0  0  0999 V2000
  -10.4979  -30.4706   26.7889 O   0  0  0  0  0  0  0  0  0  0  0  0
  -10.3155  -29.8785   25.7552 C   0  0  0  0  0  0  0  0  0  0  0  0
  -10.4294  -28.4122   25.4346 N   0  0  0  0  0  0  0  0  0  0  0  0
  -10.9125  -27.2241   26.2923 C   0  0  0  0  0  0  0  0  0  0  0  0
  -11.4288  -26.1507   25.5612 C   0  0  0  0  0  0  0  0  0  0  0  0
  -12.7147  -25.6585   25.8458 C   0  0  0  0  0  0  0  0  0  0  0  0
  -13.4757  -26.2801   26.8279 C   0  0  0  0  0  0  0  0  0  0  0  0
  -12.8369  -27.1633   27.6920 C   0  0  0  0  0  0  0  0  0  0  0  0
  -11.4385  -27.2673   27.6095 C   0  0  0  0  0  0  0  0  0  0  0  0
  -10.9085  -26.2382   28.6046 C   0  0  0  0  0  0  0  0  0  0  0  0
  -11.0880  -24.9342   28.4531 N   0  0  0  0  0  0  0  0  0  0  0  0
  -11.2105  -24.4287   29.7137 C   0  0  0  0  0  0  0  0  0  0  0  0
  -11.6702  -23.1726   30.1317 C   0  0  0  0  0  0  0  0  0  0  0  0
  -11.7180  -22.9085   31.5033 C   0  0  0  0  0  0  0  0  0  0  0  0
  -11.3105  -23.8721   32.4285 C   0  0  0  0  0  0  0  0  0  0  0  0
  -10.8300  -25.1225   32.0242 C   0  0  0  0  0  0  0  0  0  0  0  0
  -10.8200  -25.3676   30.6533 C   0  0  0  0  0  0  0  0  0  0  0  0
  -10.5325  -26.4861   29.9088 N   0  0  0  0  0  0  0  0  0  0  0  0
  -10.0336  -30.8436   24.6240 C   0  0  0  0  0  0  0  0  0  0  0  0
  -10.8791  -31.9739   24.5832 C   0  0  0  0  0  0  0  0  0  0  0  0
  -10.6227  -33.0743   23.7546 C   0  0  0  0  0  0  0  0  0  0  0  0
   -9.4709  -33.0672   22.9530 C   0  0  0  0  0  0  0  0  0  0  0  0
   -9.0181  -34.1282   22.1826 N   0  0  0  0  0  0  0  0  0  0  0  0
   -7.8838  -33.7894   21.6125 C   0  0  0  0  0  0  0  0  0  0  0  0
   -7.3254  -32.2000   21.9062 S   0  0  0  0  0  0  0  0  0  0  0  0
   -8.6765  -31.9171   22.9419 C   0  0  0  0  0  0  0  0  0  0  0  0
   -8.9677  -30.7751   23.7310 C   0  0  0  0  0  0  0  0  0  0  0  0
  -10.2885  -28.2777   24.4503 H   0  0  0  0  0  0  0  0  0  0  0  0
  -10.8986  -25.7329   24.7318 H   0  0  0  0  0  0  0  0  0  0  0  0
  -13.1468  -24.8456   25.2734 H   0  0  0  0  0  0  0  0  0  0  0  0
  -14.5212  -26.0415   26.9434 H   0  0  0  0  0  0  0  0  0  0  0  0
  -13.3649  -27.6285   28.5099 H   0  0  0  0  0  0  0  0  0  0  0  0
  -11.9907  -22.4440   29.3972 H   0  0  0  0  0  0  0  0  0  0  0  0
  -12.0967  -21.9556   31.8585 H   0  0  0  0  0  0  0  0  0  0  0  0
  -11.4033  -23.6581   33.4911 H   0  0  0  0  0  0  0  0  0  0  0  0
  -10.5344  -25.8744   32.7460 H   0  0  0  0  0  0  0  0  0  0  0  0
  -10.2804  -27.3757   30.3055 H   0  0  0  0  0  0  0  0  0  0  0  0
  -11.7279  -32.0321   25.2631 H   0  0  0  0  0  0  0  0  0  0  0  0
  -11.2606  -33.9511   23.7788 H   0  0  0  0  0  0  0  0  0  0  0  0
   -7.3276  -34.4668   20.9789 H   0  0  0  0  0  0  0  0  0  0  0  0
   -8.2608  -29.9587   23.7587 H   0  0  0  0  0  0  0  0  0  0  0  0
  1  2  2  0
  2  3  1  0
  3  4  1  0
  4  5  2  0
  5  6  1  0
  6  7  2  0
  7  8  1  0
  8  9  2  0
  9 10  1  0
 10 11  2  0
 11 12  1  0
 12 13  2  0
 13 14  1  0
 14 15  2  0
 15 16  1  0
 16 17  2  0
 17 18  1  0
  2 19  1  0
 19 20  2  0
 20 21  1  0
 21 22  2  0
 22 23  1  0
 23 24  2  0
 24 25  1  0
 25 26  1  0
 26 27  2  0
  9  4  1  0
 18 10  1  0
 27 19  1  0
 17 12  1  0
 26 22  1  0
  3 28  1  0
  5 29  1  0
  6 30  1  0
  7 31  1  0
  8 32  1  0
 13 33  1  0
 14 34  1  0
 15 35  1  0
 16 36  1  0
 18 37  1  0
 20 38  1  0
 21 39  1  0
 24 40  1  0
 27 41  1  0
M  END
>  <Energy>  (1408) 
162.64957535183649

>  <compound_id>  (1408) 
11769

>  <target_id>  (1408) 
1

>  <reference_id>  (1408) 
94

>  <inspiration_ids>  (1408) 
[94, 68]

>  <energy_score>  (1408) 
33.56936832436975

>  <distance_score>  (1408) 
4.02562044264672

>  <path>  (1408) 
/opt/xchem-fragalysis-2/maxwin/BulkDock/SCRATCH/511013/C11769-P94/C11769-P94.minimised.mol

>  <scratch_subdir>  (1408) 
/opt/xchem-fragalysis-2/maxwin/BulkDock/SCRATCH/511013/C11769-P94

>  <fragmenstein_runtime>  (1408) 
9.726391792297363

>  <fragmenstein_outcome>  (1408) 
too moved

>  <fragmenstein_mode>  (1408) 
expansion

>  <fragmenstein_error>  (1408) 


$$$$
C11769-P68
     RDKit          3D

 41 45  0  0  0  0  0  0  0  0999 V2000
  -14.5220  -30.5137   26.7358 O   0  0  0  0  0  0  0  0  0  0  0  0
  -13.5291  -31.0920   26.4137 C   0  0  0  0  0  0  0  0  0  0  0  0
  -12.1106  -30.7060   26.5230 N   0  0  0  0  0  0  0  0  0  0  0  0
  -11.2433  -29.1544   27.3581 C   0  0  0  0  0  0  0  0  0  0  0  0
  -10.0984  -28.6629   26.9291 C   0  0  0  0  0  0  0  0  0  0  0  0
  -10.2744  -27.6882   25.9206 C   0  0  0  0  0  0  0  0  0  0  0  0
  -11.2619  -26.8219   25.9653 C   0  0  0  0  0  0  0  0  0  0  0  0
  -12.0013  -27.1334   27.0042 C   0  0  0  0  0  0  0  0  0  0  0  0
  -11.4885  -28.1268   28.2468 C   0  0  0  0  0  0  0  0  0  0  0  0
  -12.0958  -28.2162   30.0693 C   0  0  0  0  0  0  0  0  0  0  0  0
  -11.5614  -28.9431   31.0601 N   0  0  0  0  0  0  0  0  0  0  0  0
  -10.3631  -28.2591   31.1008 C   0  0  0  0  0  0  0  0  0  0  0  0
   -9.2317  -27.8516   30.1831 C   0  0  0  0  0  0  0  0  0  0  0  0
   -8.4228  -26.5610   30.4558 C   0  0  0  0  0  0  0  0  0  0  0  0
   -8.6552  -25.5862   31.4328 C   0  0  0  0  0  0  0  0  0  0  0  0
   -9.6539  -25.8828   32.2977 C   0  0  0  0  0  0  0  0  0  0  0  0
  -10.6428  -27.3099   32.0506 C   0  0  0  0  0  0  0  0  0  0  0  0
  -11.8853  -27.6693   31.7401 N   0  0  0  0  0  0  0  0  0  0  0  0
  -13.6311  -32.5495   25.8666 C   0  0  0  0  0  0  0  0  0  0  0  0
  -14.3899  -33.4651   26.5934 C   0  0  0  0  0  0  0  0  0  0  0  0
  -14.2818  -34.8539   26.3524 C   0  0  0  0  0  0  0  0  0  0  0  0
  -13.3658  -35.3524   25.3981 C   0  0  0  0  0  0  0  0  0  0  0  0
  -13.0356  -36.6782   25.1674 N   0  0  0  0  0  0  0  0  0  0  0  0
  -12.1353  -36.7549   24.2111 C   0  0  0  0  0  0  0  0  0  0  0  0
  -11.6400  -35.2689   23.5187 S   0  0  0  0  0  0  0  0  0  0  0  0
  -12.6764  -34.4315   24.6174 C   0  0  0  0  0  0  0  0  0  0  0  0
  -12.8460  -33.0450   24.7974 C   0  0  0  0  0  0  0  0  0  0  0  0
  -11.5272  -31.4831   26.2247 H   0  0  0  0  0  0  0  0  0  0  0  0
   -9.2055  -29.2097   27.1019 H   0  0  0  0  0  0  0  0  0  0  0  0
   -9.5800  -27.6499   25.1065 H   0  0  0  0  0  0  0  0  0  0  0  0
  -11.4056  -25.9469   25.4128 H   0  0  0  0  0  0  0  0  0  0  0  0
  -12.9508  -26.5811   27.1026 H   0  0  0  0  0  0  0  0  0  0  0  0
   -8.7914  -28.5971   29.5161 H   0  0  0  0  0  0  0  0  0  0  0  0
   -7.3873  -26.5581   30.1038 H   0  0  0  0  0  0  0  0  0  0  0  0
   -8.6559  -24.5831   31.1901 H   0  0  0  0  0  0  0  0  0  0  0  0
  -10.1210  -24.9941   32.7120 H   0  0  0  0  0  0  0  0  0  0  0  0
  -12.5373  -28.1651   32.3231 H   0  0  0  0  0  0  0  0  0  0  0  0
  -15.0183  -33.1192   27.4143 H   0  0  0  0  0  0  0  0  0  0  0  0
  -14.8461  -35.5547   26.9628 H   0  0  0  0  0  0  0  0  0  0  0  0
  -11.7343  -37.7014   23.8707 H   0  0  0  0  0  0  0  0  0  0  0  0
  -12.3251  -32.4072   24.1039 H   0  0  0  0  0  0  0  0  0  0  0  0
  1  2  2  0
  2  3  1  0
  3  4  1  0
  4  5  2  0
  5  6  1  0
  6  7  2  0
  7  8  1  0
  8  9  2  0
  9 10  1  0
 10 11  2  0
 11 12  1  0
 12 13  2  0
 13 14  1  0
 14 15  2  0
 15 16  1  0
 16 17  2  0
 17 18  1  0
  2 19  1  0
 19 20  2  0
 20 21  1  0
 21 22  2  0
 22 23  1  0
 23 24  2  0
 24 25  1  0
 25 26  1  0
 26 27  2  0
  9  4  1  0
 18 10  1  0
 27 19  1  0
 17 12  1  0
 26 22  1  0
  3 28  1  0
  5 29  1  0
  6 30  1  0
  7 31  1  0
  8 32  1  0
 13 33  1  0
 14 34  1  0
 15 35  1  0
 16 36  1  0
 18 37  1  0
 20 38  1  0
 21 39  1  0
 24 40  1  0
 27 41  1  0
M  END
>  <Energy>  (1409) 
686.45613045092045

>  <compound_id>  (1409) 
11769

>  <target_id>  (1409) 
1

>  <reference_id>  (1409) 
68

>  <inspiration_ids>  (1409) 
[94, 68]

>  <energy_score>  (1409) 
557.3759234234617

>  <distance_score>  (1409) 
4.550243774999654

>  <path>  (1409) 
/opt/xchem-fragalysis-2/maxwin/BulkDock/SCRATCH/511013/C11769-P68/C11769-P68.minimised.mol

>  <scratch_subdir>  (1409) 
/opt/xchem-fragalysis-2/maxwin/BulkDock/SCRATCH/511013/C11769-P68

>  <fragmenstein_runtime>  (1409) 
12.27829122543335

>  <fragmenstein_outcome>  (1409) 
too moved

>  <fragmenstein_mode>  (1409) 
expansion

>  <fragmenstein_error>  (1409) 


$$$$
C11784-P94
     RDKit          3D

 45 48  0  0  0  0  0  0  0  0999 V2000
  -13.3622  -33.0830   24.1039 C   0  0  0  0  0  0  0  0  0  0  0  0
  -12.0116  -32.5654   24.6000 C   0  0  0  0  0  0  0  0  0  0  0  0
  -12.1137  -31.7796   25.8742 N   0  0  0  0  0  0  0  0  0  0  0  0
  -13.3249  -31.6377   26.9053 C   0  0  0  0  0  0  0  0  0  0  0  0
  -14.3481  -32.1690   26.9274 O   0  0  0  0  0  0  0  0  0  0  0  0
  -12.7491  -30.4690   27.8358 N   0  0  0  0  0  0  0  0  0  0  0  0
  -13.4098  -29.6853   28.9146 C   0  0  0  0  0  0  0  0  0  0  0  0
  -12.6844  -29.2763   30.2612 C   0  0  0  0  0  0  0  0  0  0  0  0
  -11.9108  -27.8861   30.2115 C   0  0  0  0  0  0  0  0  0  0  0  0
  -11.6906  -27.2381   29.0827 N   0  0  0  0  0  0  0  0  0  0  0  0
  -11.3476  -25.9588   29.4269 C   0  0  0  0  0  0  0  0  0  0  0  0
  -11.3091  -24.8377   28.5993 C   0  0  0  0  0  0  0  0  0  0  0  0
  -11.4084  -23.5899   29.2085 C   0  0  0  0  0  0  0  0  0  0  0  0
  -11.4199  -23.4734   30.6026 C   0  0  0  0  0  0  0  0  0  0  0  0
  -11.2470  -24.5847   31.4377 C   0  0  0  0  0  0  0  0  0  0  0  0
  -11.2589  -25.8257   30.8017 C   0  0  0  0  0  0  0  0  0  0  0  0
  -11.3809  -27.1268   31.2589 N   0  0  0  0  0  0  0  0  0  0  0  0
  -11.0188  -33.7507   24.4995 C   0  0  0  0  0  0  0  0  0  0  0  0
  -11.1574  -34.8919   25.2999 C   0  0  0  0  0  0  0  0  0  0  0  0
  -10.2941  -35.9973   25.1790 C   0  0  0  0  0  0  0  0  0  0  0  0
   -9.2849  -36.0140   24.1971 C   0  0  0  0  0  0  0  0  0  0  0  0
   -8.3566  -37.0289   23.9934 N   0  0  0  0  0  0  0  0  0  0  0  0
   -7.6014  -36.7231   22.9634 C   0  0  0  0  0  0  0  0  0  0  0  0
   -7.9355  -35.2334   22.1889 S   0  0  0  0  0  0  0  0  0  0  0  0
   -9.1882  -34.9168   23.3384 C   0  0  0  0  0  0  0  0  0  0  0  0
  -10.0294  -33.7818   23.4816 C   0  0  0  0  0  0  0  0  0  0  0  0
  -13.7935  -33.8144   24.7968 H   0  0  0  0  0  0  0  0  0  0  0  0
  -13.2646  -33.5737   23.1280 H   0  0  0  0  0  0  0  0  0  0  0  0
  -14.0991  -32.2883   23.9845 H   0  0  0  0  0  0  0  0  0  0  0  0
  -11.6668  -31.8139   23.8807 H   0  0  0  0  0  0  0  0  0  0  0  0
  -11.3312  -31.2306   26.1910 H   0  0  0  0  0  0  0  0  0  0  0  0
  -11.7844  -30.2883   27.5991 H   0  0  0  0  0  0  0  0  0  0  0  0
  -13.8226  -28.7875   28.4427 H   0  0  0  0  0  0  0  0  0  0  0  0
  -14.2747  -30.2996   29.1942 H   0  0  0  0  0  0  0  0  0  0  0  0
  -13.4776  -29.1996   30.9980 H   0  0  0  0  0  0  0  0  0  0  0  0
  -12.0820  -30.1003   30.6602 H   0  0  0  0  0  0  0  0  0  0  0  0
  -11.3992  -24.9403   27.5240 H   0  0  0  0  0  0  0  0  0  0  0  0
  -11.5214  -22.7022   28.5901 H   0  0  0  0  0  0  0  0  0  0  0  0
  -11.5376  -22.4913   31.0559 H   0  0  0  0  0  0  0  0  0  0  0  0
  -11.2682  -24.4902   32.5176 H   0  0  0  0  0  0  0  0  0  0  0  0
  -11.3193  -27.3888   32.2272 H   0  0  0  0  0  0  0  0  0  0  0  0
  -11.9478  -34.9386   26.0486 H   0  0  0  0  0  0  0  0  0  0  0  0
  -10.4085  -36.8509   25.8404 H   0  0  0  0  0  0  0  0  0  0  0  0
   -6.8132  -37.3741   22.6097 H   0  0  0  0  0  0  0  0  0  0  0  0
   -9.9086  -32.9373   22.8047 H   0  0  0  0  0  0  0  0  0  0  0  0
  1  2  1  0
  2  3  1  0
  3  4  1  0
  4  5  2  0
  4  6  1  0
  6  7  1  0
  7  8  1  0
  8  9  1  0
  9 10  2  0
 10 11  1  0
 11 12  2  0
 12 13  1  0
 13 14  2  0
 14 15  1  0
 15 16  2  0
 16 17  1  0
  2 18  1  0
 18 19  2  0
 19 20  1  0
 20 21  2  0
 21 22  1  0
 22 23  2  0
 23 24  1  0
 24 25  1  0
 25 26  2  0
 17  9  1  0
 26 18  1  0
 16 11  1  0
 25 21  1  0
  1 27  1  0
  1 28  1  0
  1 29  1  0
  2 30  1  0
  3 31  1  0
  6 32  1  0
  7 33  1  0
  7 34  1  0
  8 35  1  0
  8 36  1  0
 12 37  1  0
 13 38  1  0
 14 39  1  0
 15 40  1  0
 17 41  1  0
 19 42  1  0
 20 43  1  0
 23 44  1  0
 26 45  1  0
M  END
>  <Energy>  (1410) 
9.9483580878921867

>  <compound_id>  (1410) 
11784

>  <target_id>  (1410) 
1

>  <reference_id>  (1410) 
94

>  <inspiration_ids>  (1410) 
[94, 68]

>  <energy_score>  (1410) 
-12.21010160804343

>  <distance_score>  (1410) 
2.5621980239538305

>  <path>  (1410) 
/opt/xchem-fragalysis-2/maxwin/BulkDock/SCRATCH/511013/C11784-P94/C11784-P94.minimised.mol

>  <scratch_subdir>  (1410) 
/opt/xchem-fragalysis-2/maxwin/BulkDock/SCRATCH/511013/C11784-P94

>  <fragmenstein_runtime>  (1410) 
7.775336027145386

>  <fragmenstein_outcome>  (1410) 
too moved

>  <fragmenstein_mode>  (1410) 
expansion

>  <fragmenstein_error>  (1410) 


$$$$
C11784-P68
     RDKit          3D

 45 48  0  0  0  0  0  0  0  0999 V2000
  -13.8835  -33.4085   25.9305 C   0  0  0  0  0  0  0  0  0  0  0  0
  -12.4669  -33.1317   25.3959 C   0  0  0  0  0  0  0  0  0  0  0  0
  -11.8799  -31.9007   26.0471 N   0  0  0  0  0  0  0  0  0  0  0  0
  -12.5589  -30.5701   26.5365 C   0  0  0  0  0  0  0  0  0  0  0  0
  -13.7227  -30.3294   26.5536 O   0  0  0  0  0  0  0  0  0  0  0  0
  -11.1228  -29.4651   27.2308 N   0  0  0  0  0  0  0  0  0  0  0  0
  -11.1755  -28.2115   27.9884 C   0  0  0  0  0  0  0  0  0  0  0  0
  -12.0341  -28.1724   29.7003 C   0  0  0  0  0  0  0  0  0  0  0  0
  -11.9883  -28.6461   31.4490 C   0  0  0  0  0  0  0  0  0  0  0  0
  -10.9078  -29.1271   31.8752 N   0  0  0  0  0  0  0  0  0  0  0  0
  -10.4230  -27.9736   31.4781 C   0  0  0  0  0  0  0  0  0  0  0  0
   -9.2678  -27.5320   30.4515 C   0  0  0  0  0  0  0  0  0  0  0  0
   -8.4662  -26.2521   30.7685 C   0  0  0  0  0  0  0  0  0  0  0  0
   -8.9031  -25.3215   31.7926 C   0  0  0  0  0  0  0  0  0  0  0  0
   -9.9654  -25.5998   32.6453 C   0  0  0  0  0  0  0  0  0  0  0  0
  -10.9163  -27.0558   32.4971 C   0  0  0  0  0  0  0  0  0  0  0  0
  -12.0789  -27.7521   32.6709 N   0  0  0  0  0  0  0  0  0  0  0  0
  -11.6178  -34.3731   25.0668 C   0  0  0  0  0  0  0  0  0  0  0  0
  -12.1741  -35.6628   25.2052 C   0  0  0  0  0  0  0  0  0  0  0  0
  -11.4739  -36.8342   24.8886 C   0  0  0  0  0  0  0  0  0  0  0  0
  -10.1753  -36.7501   24.3737 C   0  0  0  0  0  0  0  0  0  0  0  0
   -9.3783  -37.8303   24.0369 N   0  0  0  0  0  0  0  0  0  0  0  0
   -8.2230  -37.3991   23.5931 C   0  0  0  0  0  0  0  0  0  0  0  0
   -8.0545  -35.7057   23.4789 S   0  0  0  0  0  0  0  0  0  0  0  0
   -9.6265  -35.4840   24.1650 C   0  0  0  0  0  0  0  0  0  0  0  0
  -10.3343  -34.2936   24.4894 C   0  0  0  0  0  0  0  0  0  0  0  0
  -13.8727  -33.8395   26.9339 H   0  0  0  0  0  0  0  0  0  0  0  0
  -14.4902  -32.5012   25.9730 H   0  0  0  0  0  0  0  0  0  0  0  0
  -14.4333  -34.0917   25.2734 H   0  0  0  0  0  0  0  0  0  0  0  0
  -12.6741  -32.7522   24.3841 H   0  0  0  0  0  0  0  0  0  0  0  0
  -10.8798  -31.8455   26.2289 H   0  0  0  0  0  0  0  0  0  0  0  0
  -10.2215  -29.9287   27.1080 H   0  0  0  0  0  0  0  0  0  0  0  0
  -10.1456  -27.9028   28.1341 H   0  0  0  0  0  0  0  0  0  0  0  0
  -11.5305  -27.5115   27.2118 H   0  0  0  0  0  0  0  0  0  0  0  0
  -13.0039  -28.4196   29.9915 H   0  0  0  0  0  0  0  0  0  0  0  0
  -12.3402  -27.2144   29.5575 H   0  0  0  0  0  0  0  0  0  0  0  0
   -8.8465  -28.3340   29.8398 H   0  0  0  0  0  0  0  0  0  0  0  0
   -7.4767  -26.1968   30.3737 H   0  0  0  0  0  0  0  0  0  0  0  0
   -8.4819  -24.4706   32.2305 H   0  0  0  0  0  0  0  0  0  0  0  0
  -10.4848  -24.6356   32.6879 H   0  0  0  0  0  0  0  0  0  0  0  0
  -12.9502  -27.3241   32.9321 H   0  0  0  0  0  0  0  0  0  0  0  0
  -13.1787  -35.8074   25.5979 H   0  0  0  0  0  0  0  0  0  0  0  0
  -11.9269  -37.8099   25.0365 H   0  0  0  0  0  0  0  0  0  0  0  0
   -7.4282  -38.0751   23.3043 H   0  0  0  0  0  0  0  0  0  0  0  0
   -9.8809  -33.3305   24.2824 H   0  0  0  0  0  0  0  0  0  0  0  0
  1  2  1  0
  2  3  1  0
  3  4  1  0
  4  5  2  0
  4  6  1  0
  6  7  1  0
  7  8  1  0
  8  9  1  0
  9 10  2  0
 10 11  1  0
 11 12  2  0
 12 13  1  0
 13 14  2  0
 14 15  1  0
 15 16  2  0
 16 17  1  0
  2 18  1  0
 18 19  2  0
 19 20  1  0
 20 21  2  0
 21 22  1  0
 22 23  2  0
 23 24  1  0
 24 25  1  0
 25 26  2  0
 17  9  1  0
 26 18  1  0
 16 11  1  0
 25 21  1  0
  1 27  1  0
  1 28  1  0
  1 29  1  0
  2 30  1  0
  3 31  1  0
  6 32  1  0
  7 33  1  0
  7 34  1  0
  8 35  1  0
  8 36  1  0
 12 37  1  0
 13 38  1  0
 14 39  1  0
 15 40  1  0
 17 41  1  0
 19 42  1  0
 20 43  1  0
 23 44  1  0
 26 45  1  0
M  END
>  <Energy>  (1411) 
395.81419779384146

>  <compound_id>  (1411) 
11784

>  <target_id>  (1411) 
1

>  <reference_id>  (1411) 
68

>  <inspiration_ids>  (1411) 
[94, 68]

>  <energy_score>  (1411) 
373.5570370090194

>  <distance_score>  (1411) 
3.080684506013906

>  <path>  (1411) 
/opt/xchem-fragalysis-2/maxwin/BulkDock/SCRATCH/511013/C11784-P68/C11784-P68.minimised.mol

>  <scratch_subdir>  (1411) 
/opt/xchem-fragalysis-2/maxwin/BulkDock/SCRATCH/511013/C11784-P68

>  <fragmenstein_runtime>  (1411) 
14.67986249923706

>  <fragmenstein_outcome>  (1411) 
too moved

>  <fragmenstein_mode>  (1411) 
expansion

>  <fragmenstein_error>  (1411) 


$$$$
C11785-P94
     RDKit          3D

 34 37  0  0  0  0  0  0  0  0999 V2000
  -10.6870  -30.4242   26.3416 O   0  0  0  0  0  0  0  0  0  0  0  0
  -11.7490  -30.6001   26.8491 C   0  0  0  0  0  0  0  0  0  0  0  0
  -12.5875  -31.8965   26.2974 C   0  0  0  0  0  0  0  0  0  0  0  0
  -11.8564  -32.9980   25.3192 C   0  0  0  0  0  0  0  0  0  0  0  0
  -12.1739  -34.3595   25.5364 C   0  0  0  0  0  0  0  0  0  0  0  0
  -11.3990  -35.4242   25.0201 C   0  0  0  0  0  0  0  0  0  0  0  0
  -10.3095  -35.1730   24.1690 C   0  0  0  0  0  0  0  0  0  0  0  0
   -9.4077  -36.1223   23.6900 N   0  0  0  0  0  0  0  0  0  0  0  0
   -8.5576  -35.5371   22.8788 C   0  0  0  0  0  0  0  0  0  0  0  0
   -8.8100  -33.8620   22.6060 S   0  0  0  0  0  0  0  0  0  0  0  0
  -10.0983  -33.8472   23.7745 C   0  0  0  0  0  0  0  0  0  0  0  0
  -10.8599  -32.7506   24.3336 C   0  0  0  0  0  0  0  0  0  0  0  0
  -12.5641  -29.6877   27.9419 N   0  0  0  0  0  0  0  0  0  0  0  0
  -12.2310  -28.3157   28.5296 C   0  0  0  0  0  0  0  0  0  0  0  0
  -11.8547  -27.1745   27.7738 C   0  0  0  0  0  0  0  0  0  0  0  0
  -11.4233  -25.9254   28.3341 C   0  0  0  0  0  0  0  0  0  0  0  0
  -11.1850  -25.8349   29.7076 C   0  0  0  0  0  0  0  0  0  0  0  0
  -10.7412  -24.7940   30.4875 N   0  0  0  0  0  0  0  0  0  0  0  0
  -10.6214  -25.2976   31.6932 C   0  0  0  0  0  0  0  0  0  0  0  0
  -10.9633  -26.6205   31.7112 N   0  0  0  0  0  0  0  0  0  0  0  0
  -11.4490  -26.9650   30.4696 C   0  0  0  0  0  0  0  0  0  0  0  0
  -12.1327  -28.1204   29.9372 C   0  0  0  0  0  0  0  0  0  0  0  0
  -13.0933  -32.3774   27.1414 H   0  0  0  0  0  0  0  0  0  0  0  0
  -13.4337  -31.5618   25.7209 H   0  0  0  0  0  0  0  0  0  0  0  0
  -12.9721  -34.6225   26.2315 H   0  0  0  0  0  0  0  0  0  0  0  0
  -11.6199  -36.4474   25.3099 H   0  0  0  0  0  0  0  0  0  0  0  0
   -7.7569  -36.0714   22.3849 H   0  0  0  0  0  0  0  0  0  0  0  0
  -10.5793  -31.7305   24.0708 H   0  0  0  0  0  0  0  0  0  0  0  0
  -13.4083  -30.1696   28.2278 H   0  0  0  0  0  0  0  0  0  0  0  0
  -11.8589  -27.1924   26.6895 H   0  0  0  0  0  0  0  0  0  0  0  0
  -11.2053  -25.0786   27.6910 H   0  0  0  0  0  0  0  0  0  0  0  0
  -10.2607  -24.7785   32.5700 H   0  0  0  0  0  0  0  0  0  0  0  0
  -10.7935  -27.2383   32.4903 H   0  0  0  0  0  0  0  0  0  0  0  0
  -12.3888  -28.9302   30.6210 H   0  0  0  0  0  0  0  0  0  0  0  0
  1  2  2  0
  2  3  1  0
  3  4  1  0
  4  5  2  0
  5  6  1  0
  6  7  2  0
  7  8  1  0
  8  9  2  0
  9 10  1  0
 10 11  1  0
 11 12  2  0
  2 13  1  0
 13 14  1  0
 14 15  2  0
 15 16  1  0
 16 17  2  0
 17 18  1  0
 18 19  2  0
 19 20  1  0
 20 21  1  0
 21 22  2  0
 12  4  1  0
 22 14  1  0
 11  7  1  0
 21 17  1  0
  3 23  1  0
  3 24  1  0
  5 25  1  0
  6 26  1  0
  9 27  1  0
 12 28  1  0
 13 29  1  0
 15 30  1  0
 16 31  1  0
 19 32  1  0
 20 33  1  0
 22 34  1  0
M  END
>  <Energy>  (1412) 
108.05883095730124

>  <compound_id>  (1412) 
11785

>  <target_id>  (1412) 
1

>  <reference_id>  (1412) 
94

>  <inspiration_ids>  (1412) 
[94, 68]

>  <energy_score>  (1412) 
-33.911698964047446

>  <distance_score>  (1412) 
3.1163274726162395

>  <path>  (1412) 
/opt/xchem-fragalysis-2/maxwin/BulkDock/SCRATCH/511013/C11785-P94/C11785-P94.minimised.mol

>  <scratch_subdir>  (1412) 
/opt/xchem-fragalysis-2/maxwin/BulkDock/SCRATCH/511013/C11785-P94

>  <fragmenstein_runtime>  (1412) 
2.6947038173675537

>  <fragmenstein_outcome>  (1412) 
too moved

>  <fragmenstein_mode>  (1412) 
expansion

>  <fragmenstein_error>  (1412) 


$$$$
C11785-P68
     RDKit          3D

 34 37  0  0  0  0  0  0  0  0999 V2000
  -14.3569  -30.3680   26.6977 O   0  0  0  0  0  0  0  0  0  0  0  0
  -13.3114  -30.1952   26.0800 C   0  0  0  0  0  0  0  0  0  0  0  0
  -12.7109  -31.7796   25.4670 C   0  0  0  0  0  0  0  0  0  0  0  0
  -12.5292  -33.3070   25.6328 C   0  0  0  0  0  0  0  0  0  0  0  0
  -13.5527  -34.2087   25.9481 C   0  0  0  0  0  0  0  0  0  0  0  0
  -13.3980  -35.5965   25.7136 C   0  0  0  0  0  0  0  0  0  0  0  0
  -12.2060  -36.1205   25.1541 C   0  0  0  0  0  0  0  0  0  0  0  0
  -11.9056  -37.4538   24.9253 N   0  0  0  0  0  0  0  0  0  0  0  0
  -10.7009  -37.5554   24.4052 C   0  0  0  0  0  0  0  0  0  0  0  0
   -9.8664  -36.0861   24.1298 S   0  0  0  0  0  0  0  0  0  0  0  0
  -11.1976  -35.2264   24.8077 C   0  0  0  0  0  0  0  0  0  0  0  0
  -11.3510  -33.8460   25.0209 C   0  0  0  0  0  0  0  0  0  0  0  0
  -12.5581  -28.4692   25.7014 N   0  0  0  0  0  0  0  0  0  0  0  0
  -13.0653  -27.1677   25.9411 C   0  0  0  0  0  0  0  0  0  0  0  0
  -14.3928  -26.9051   25.6087 C   0  0  0  0  0  0  0  0  0  0  0  0
  -14.7421  -25.6238   25.2714 C   0  0  0  0  0  0  0  0  0  0  0  0
  -13.7826  -24.6175   25.4623 C   0  0  0  0  0  0  0  0  0  0  0  0
  -13.8035  -23.3039   25.1126 N   0  0  0  0  0  0  0  0  0  0  0  0
  -12.6950  -22.7920   25.6017 C   0  0  0  0  0  0  0  0  0  0  0  0
  -11.9856  -23.7077   26.3236 N   0  0  0  0  0  0  0  0  0  0  0  0
  -12.5878  -24.9193   26.0931 C   0  0  0  0  0  0  0  0  0  0  0  0
  -12.1052  -26.2053   26.1490 C   0  0  0  0  0  0  0  0  0  0  0  0
  -12.5229  -31.8748   24.3752 H   0  0  0  0  0  0  0  0  0  0  0  0
  -13.8057  -31.9907   25.3377 H   0  0  0  0  0  0  0  0  0  0  0  0
  -14.5019  -33.8514   26.3471 H   0  0  0  0  0  0  0  0  0  0  0  0
  -14.2023  -36.2817   25.9687 H   0  0  0  0  0  0  0  0  0  0  0  0
  -10.2583  -38.5121   24.1577 H   0  0  0  0  0  0  0  0  0  0  0  0
  -10.5623  -33.1941   24.6582 H   0  0  0  0  0  0  0  0  0  0  0  0
  -11.7897  -28.5656   25.1423 H   0  0  0  0  0  0  0  0  0  0  0  0
  -15.1146  -27.6973   25.4455 H   0  0  0  0  0  0  0  0  0  0  0  0
  -15.7394  -25.3906   24.9109 H   0  0  0  0  0  0  0  0  0  0  0  0
  -12.3995  -21.7600   25.5136 H   0  0  0  0  0  0  0  0  0  0  0  0
  -11.1513  -23.5488   26.8690 H   0  0  0  0  0  0  0  0  0  0  0  0
  -11.0659  -26.4303   26.3550 H   0  0  0  0  0  0  0  0  0  0  0  0
  1  2  2  0
  2  3  1  0
  3  4  1  0
  4  5  2  0
  5  6  1  0
  6  7  2  0
  7  8  1  0
  8  9  2  0
  9 10  1  0
 10 11  1  0
 11 12  2  0
  2 13  1  0
 13 14  1  0
 14 15  2  0
 15 16  1  0
 16 17  2  0
 17 18  1  0
 18 19  2  0
 19 20  1  0
 20 21  1  0
 21 22  2  0
 12  4  1  0
 22 14  1  0
 11  7  1  0
 21 17  1  0
  3 23  1  0
  3 24  1  0
  5 25  1  0
  6 26  1  0
  9 27  1  0
 12 28  1  0
 13 29  1  0
 15 30  1  0
 16 31  1  0
 19 32  1  0
 20 33  1  0
 22 34  1  0
M  END
>  <Energy>  (1413) 
245.66133609206534

>  <compound_id>  (1413) 
11785

>  <target_id>  (1413) 
1

>  <reference_id>  (1413) 
68

>  <inspiration_ids>  (1413) 
[94, 68]

>  <energy_score>  (1413) 
150.54467415934255

>  <distance_score>  (1413) 
4.968006821299917

>  <path>  (1413) 
/opt/xchem-fragalysis-2/maxwin/BulkDock/SCRATCH/511013/C11785-P68/C11785-P68.minimised.mol

>  <scratch_subdir>  (1413) 
/opt/xchem-fragalysis-2/maxwin/BulkDock/SCRATCH/511013/C11785-P68

>  <fragmenstein_runtime>  (1413) 
8.852578163146973

>  <fragmenstein_outcome>  (1413) 
too moved

>  <fragmenstein_mode>  (1413) 
expansion

>  <fragmenstein_error>  (1413) 


$$$$
C11768-P94
     RDKit          3D

 38 41  0  0  0  0  0  0  0  0999 V2000
  -13.2219  -32.4837   25.5617 C   0  0  0  0  0  0  0  0  0  0  0  0
  -11.8476  -31.9963   25.0681 C   0  0  0  0  0  0  0  0  0  0  0  0
  -11.2730  -30.8145   25.8688 N   0  0  0  0  0  0  0  0  0  0  0  0
  -11.7485  -30.2573   27.2887 C   0  0  0  0  0  0  0  0  0  0  0  0
  -11.8639  -28.5349   27.8368 C   0  0  0  0  0  0  0  0  0  0  0  0
  -11.5109  -27.4410   27.1614 N   0  0  0  0  0  0  0  0  0  0  0  0
  -11.4385  -26.3787   28.0245 C   0  0  0  0  0  0  0  0  0  0  0  0
  -11.2393  -25.0239   27.7715 C   0  0  0  0  0  0  0  0  0  0  0  0
  -11.2443  -24.1621   28.8615 C   0  0  0  0  0  0  0  0  0  0  0  0
  -11.3690  -22.4713   28.5873 Cl  0  0  0  0  0  0  0  0  0  0  0  0
  -11.2278  -24.6429   30.1679 C   0  0  0  0  0  0  0  0  0  0  0  0
  -11.3333  -26.0112   30.4305 C   0  0  0  0  0  0  0  0  0  0  0  0
  -11.5942  -26.8208   29.3171 C   0  0  0  0  0  0  0  0  0  0  0  0
  -12.1774  -28.0761   29.1313 N   0  0  0  0  0  0  0  0  0  0  0  0
  -10.9594  -33.2379   24.6281 C   0  0  0  0  0  0  0  0  0  0  0  0
  -11.1766  -34.5322   25.1572 C   0  0  0  0  0  0  0  0  0  0  0  0
  -10.3821  -35.6500   24.8361 C   0  0  0  0  0  0  0  0  0  0  0  0
   -9.3539  -35.5327   23.8929 C   0  0  0  0  0  0  0  0  0  0  0  0
   -8.4637  -36.5392   23.5364 N   0  0  0  0  0  0  0  0  0  0  0  0
   -7.6648  -36.0879   22.5980 C   0  0  0  0  0  0  0  0  0  0  0  0
   -7.9407  -34.4801   22.0738 S   0  0  0  0  0  0  0  0  0  0  0  0
   -9.1923  -34.2974   23.2579 C   0  0  0  0  0  0  0  0  0  0  0  0
   -9.9669  -33.1470   23.6197 C   0  0  0  0  0  0  0  0  0  0  0  0
  -13.8692  -31.6789   25.9118 H   0  0  0  0  0  0  0  0  0  0  0  0
  -13.7553  -33.0056   24.7581 H   0  0  0  0  0  0  0  0  0  0  0  0
  -13.1804  -33.1591   26.4158 H   0  0  0  0  0  0  0  0  0  0  0  0
  -12.0558  -31.5417   24.0944 H   0  0  0  0  0  0  0  0  0  0  0  0
  -10.2700  -30.6815   25.7165 H   0  0  0  0  0  0  0  0  0  0  0  0
  -10.9048  -30.5705   27.8523 H   0  0  0  0  0  0  0  0  0  0  0  0
  -12.6773  -30.7295   27.6236 H   0  0  0  0  0  0  0  0  0  0  0  0
  -11.2054  -24.6594   26.7521 H   0  0  0  0  0  0  0  0  0  0  0  0
  -11.2125  -23.9515   31.0082 H   0  0  0  0  0  0  0  0  0  0  0  0
  -11.4120  -26.3743   31.4502 H   0  0  0  0  0  0  0  0  0  0  0  0
  -12.5027  -28.6686   29.8774 H   0  0  0  0  0  0  0  0  0  0  0  0
  -11.9583  -34.7217   25.8876 H   0  0  0  0  0  0  0  0  0  0  0  0
  -10.5579  -36.6048   25.3218 H   0  0  0  0  0  0  0  0  0  0  0  0
   -6.8825  -36.6925   22.1593 H   0  0  0  0  0  0  0  0  0  0  0  0
   -9.7734  -32.1927   23.1293 H   0  0  0  0  0  0  0  0  0  0  0  0
  1  2  1  0
  2  3  1  0
  3  4  1  0
  4  5  1  0
  5  6  2  0
  6  7  1  0
  7  8  2  0
  8  9  1  0
  9 10  1  0
  9 11  2  0
 11 12  1  0
 12 13  2  0
 13 14  1  0
  2 15  1  0
 15 16  2  0
 16 17  1  0
 17 18  2  0
 18 19  1  0
 19 20  2  0
 20 21  1  0
 21 22  1  0
 22 23  2  0
 14  5  1  0
 23 15  1  0
 13  7  1  0
 22 18  1  0
  1 24  1  0
  1 25  1  0
  1 26  1  0
  2 27  1  0
  3 28  1  0
  4 29  1  0
  4 30  1  0
  8 31  1  0
 11 32  1  0
 12 33  1  0
 14 34  1  0
 16 35  1  0
 17 36  1  0
 20 37  1  0
 23 38  1  0
M  END
>  <Energy>  (1414) 
106.91020328502044

>  <compound_id>  (1414) 
11768

>  <target_id>  (1414) 
1

>  <reference_id>  (1414) 
94

>  <inspiration_ids>  (1414) 
[94, 68]

>  <energy_score>  (1414) 
-7.425887443872966

>  <distance_score>  (1414) 
3.4845200993983996

>  <path>  (1414) 
/opt/xchem-fragalysis-2/maxwin/BulkDock/SCRATCH/511013/C11768-P94/C11768-P94.minimised.mol

>  <scratch_subdir>  (1414) 
/opt/xchem-fragalysis-2/maxwin/BulkDock/SCRATCH/511013/C11768-P94

>  <fragmenstein_runtime>  (1414) 
4.174478530883789

>  <fragmenstein_outcome>  (1414) 
too moved

>  <fragmenstein_mode>  (1414) 
expansion

>  <fragmenstein_error>  (1414) 


$$$$
C11768-P68
     RDKit          3D

 38 41  0  0  0  0  0  0  0  0999 V2000
  -14.8603  -30.4185   25.9420 C   0  0  0  0  0  0  0  0  0  0  0  0
  -13.2631  -30.3015   26.0147 C   0  0  0  0  0  0  0  0  0  0  0  0
  -12.4947  -28.4976   25.7067 N   0  0  0  0  0  0  0  0  0  0  0  0
  -13.5025  -27.2503   25.7648 C   0  0  0  0  0  0  0  0  0  0  0  0
  -12.6369  -26.0648   25.9509 C   0  0  0  0  0  0  0  0  0  0  0  0
  -11.3168  -26.1404   25.9137 N   0  0  0  0  0  0  0  0  0  0  0  0
  -10.9349  -24.9400   26.3999 C   0  0  0  0  0  0  0  0  0  0  0  0
   -9.7450  -24.5304   26.8918 C   0  0  0  0  0  0  0  0  0  0  0  0
   -9.7172  -23.5353   27.8373 C   0  0  0  0  0  0  0  0  0  0  0  0
   -8.1370  -22.8091   28.0566 Cl  0  0  0  0  0  0  0  0  0  0  0  0
  -10.8282  -22.7164   28.0088 C   0  0  0  0  0  0  0  0  0  0  0  0
  -11.7721  -22.7636   26.9932 C   0  0  0  0  0  0  0  0  0  0  0  0
  -11.9624  -24.0267   26.4515 C   0  0  0  0  0  0  0  0  0  0  0  0
  -13.0350  -24.7432   25.9815 N   0  0  0  0  0  0  0  0  0  0  0  0
  -12.9850  -32.0287   25.5029 C   0  0  0  0  0  0  0  0  0  0  0  0
  -13.6299  -32.9952   26.3081 C   0  0  0  0  0  0  0  0  0  0  0  0
  -13.5946  -34.3859   26.0363 C   0  0  0  0  0  0  0  0  0  0  0  0
  -12.8067  -34.8890   24.9871 C   0  0  0  0  0  0  0  0  0  0  0  0
  -12.5004  -36.2164   24.7323 N   0  0  0  0  0  0  0  0  0  0  0  0
  -11.7354  -36.2914   23.6649 C   0  0  0  0  0  0  0  0  0  0  0  0
  -11.3964  -34.8117   22.8698 S   0  0  0  0  0  0  0  0  0  0  0  0
  -12.2695  -33.9703   24.0991 C   0  0  0  0  0  0  0  0  0  0  0  0
  -12.4768  -32.5811   24.2656 C   0  0  0  0  0  0  0  0  0  0  0  0
  -15.3376  -29.4546   25.7561 H   0  0  0  0  0  0  0  0  0  0  0  0
  -15.2198  -31.0543   25.1204 H   0  0  0  0  0  0  0  0  0  0  0  0
  -15.2373  -30.9021   26.8473 H   0  0  0  0  0  0  0  0  0  0  0  0
  -12.9733  -30.5713   26.9878 H   0  0  0  0  0  0  0  0  0  0  0  0
  -12.0588  -28.3074   24.8319 H   0  0  0  0  0  0  0  0  0  0  0  0
  -14.0769  -27.1530   24.8353 H   0  0  0  0  0  0  0  0  0  0  0  0
  -14.2509  -27.2630   26.5457 H   0  0  0  0  0  0  0  0  0  0  0  0
   -8.8872  -24.8733   26.3973 H   0  0  0  0  0  0  0  0  0  0  0  0
  -10.8003  -21.8335   28.6385 H   0  0  0  0  0  0  0  0  0  0  0  0
  -12.4460  -21.9352   26.8500 H   0  0  0  0  0  0  0  0  0  0  0  0
  -13.9497  -24.3575   25.8038 H   0  0  0  0  0  0  0  0  0  0  0  0
  -14.1647  -32.6995   27.2105 H   0  0  0  0  0  0  0  0  0  0  0  0
  -14.0904  -35.0812   26.7083 H   0  0  0  0  0  0  0  0  0  0  0  0
  -11.3566  -37.2341   23.2915 H   0  0  0  0  0  0  0  0  0  0  0  0
  -12.1532  -31.9765   23.4197 H   0  0  0  0  0  0  0  0  0  0  0  0
  1  2  1  0
  2  3  1  0
  3  4  1  0
  4  5  1  0
  5  6  2  0
  6  7  1  0
  7  8  2  0
  8  9  1  0
  9 10  1  0
  9 11  2  0
 11 12  1  0
 12 13  2  0
 13 14  1  0
  2 15  1  0
 15 16  2  0
 16 17  1  0
 17 18  2  0
 18 19  1  0
 19 20  2  0
 20 21  1  0
 21 22  1  0
 22 23  2  0
 14  5  1  0
 23 15  1  0
 13  7  1  0
 22 18  1  0
  1 24  1  0
  1 25  1  0
  1 26  1  0
  2 27  1  0
  3 28  1  0
  4 29  1  0
  4 30  1  0
  8 31  1  0
 11 32  1  0
 12 33  1  0
 14 34  1  0
 16 35  1  0
 17 36  1  0
 20 37  1  0
 23 38  1  0
M  END
>  <Energy>  (1415) 
239.03295696879761

>  <compound_id>  (1415) 
11768

>  <target_id>  (1415) 
1

>  <reference_id>  (1415) 
68

>  <inspiration_ids>  (1415) 
[94, 68]

>  <energy_score>  (1415) 
146.2935844253011

>  <distance_score>  (1415) 
5.041037312251087

>  <path>  (1415) 
/opt/xchem-fragalysis-2/maxwin/BulkDock/SCRATCH/511013/C11768-P68/C11768-P68.minimised.mol

>  <scratch_subdir>  (1415) 
/opt/xchem-fragalysis-2/maxwin/BulkDock/SCRATCH/511013/C11768-P68

>  <fragmenstein_runtime>  (1415) 
8.78078842163086

>  <fragmenstein_outcome>  (1415) 
too moved

>  <fragmenstein_mode>  (1415) 
expansion

>  <fragmenstein_error>  (1415) 


$$$$
C11786-P94
     RDKit          3D

 34 37  0  0  0  0  0  0  0  0999 V2000
  -15.1220  -32.0046   26.6169 O   0  0  0  0  0  0  0  0  0  0  0  0
  -13.9550  -31.7467   26.6947 C   0  0  0  0  0  0  0  0  0  0  0  0
  -13.2585  -30.7699   27.4987 N   0  0  0  0  0  0  0  0  0  0  0  0
  -13.7451  -29.8602   28.5363 C   0  0  0  0  0  0  0  0  0  0  0  0
  -12.8485  -28.7009   28.8935 C   0  0  0  0  0  0  0  0  0  0  0  0
  -12.4333  -28.4221   30.1223 N   0  0  0  0  0  0  0  0  0  0  0  0
  -11.6641  -27.2604   30.0368 C   0  0  0  0  0  0  0  0  0  0  0  0
  -11.0902  -26.5195   31.0705 C   0  0  0  0  0  0  0  0  0  0  0  0
  -10.8733  -25.1719   30.8102 C   0  0  0  0  0  0  0  0  0  0  0  0
  -10.5822  -24.1421   32.1602 Cl  0  0  0  0  0  0  0  0  0  0  0  0
  -11.0255  -24.6430   29.5207 C   0  0  0  0  0  0  0  0  0  0  0  0
  -11.3664  -25.4443   28.4284 C   0  0  0  0  0  0  0  0  0  0  0  0
  -11.7487  -26.7388   28.7552 C   0  0  0  0  0  0  0  0  0  0  0  0
  -12.4108  -27.7034   28.0375 N   0  0  0  0  0  0  0  0  0  0  0  0
  -13.0879  -32.6588   25.8246 C   0  0  0  0  0  0  0  0  0  0  0  0
  -13.4525  -34.0156   25.7730 C   0  0  0  0  0  0  0  0  0  0  0  0
  -12.6905  -34.9661   25.0686 C   0  0  0  0  0  0  0  0  0  0  0  0
  -11.5489  -34.5624   24.3517 C   0  0  0  0  0  0  0  0  0  0  0  0
  -10.6893  -35.3908   23.6441 N   0  0  0  0  0  0  0  0  0  0  0  0
   -9.7500  -34.6652   23.0803 C   0  0  0  0  0  0  0  0  0  0  0  0
   -9.8370  -32.9760   23.3416 S   0  0  0  0  0  0  0  0  0  0  0  0
  -11.2242  -33.2048   24.3462 C   0  0  0  0  0  0  0  0  0  0  0  0
  -11.9614  -32.2457   25.0891 C   0  0  0  0  0  0  0  0  0  0  0  0
  -12.2602  -30.8871   27.3699 H   0  0  0  0  0  0  0  0  0  0  0  0
  -13.9072  -30.4771   29.4274 H   0  0  0  0  0  0  0  0  0  0  0  0
  -14.7286  -29.4923   28.2240 H   0  0  0  0  0  0  0  0  0  0  0  0
  -11.0351  -26.9178   32.0751 H   0  0  0  0  0  0  0  0  0  0  0  0
  -10.9559  -23.5729   29.3537 H   0  0  0  0  0  0  0  0  0  0  0  0
  -11.5180  -25.0199   27.4419 H   0  0  0  0  0  0  0  0  0  0  0  0
  -12.6119  -27.6131   27.0480 H   0  0  0  0  0  0  0  0  0  0  0  0
  -14.3275  -34.3611   26.3239 H   0  0  0  0  0  0  0  0  0  0  0  0
  -12.9738  -36.0143   25.0785 H   0  0  0  0  0  0  0  0  0  0  0  0
   -8.9649  -35.0991   22.4746 H   0  0  0  0  0  0  0  0  0  0  0  0
  -11.6247  -31.2200   25.0695 H   0  0  0  0  0  0  0  0  0  0  0  0
  1  2  2  0
  2  3  1  0
  3  4  1  0
  4  5  1  0
  5  6  2  0
  6  7  1  0
  7  8  2  0
  8  9  1  0
  9 10  1  0
  9 11  2  0
 11 12  1  0
 12 13  2  0
 13 14  1  0
  2 15  1  0
 15 16  2  0
 16 17  1  0
 17 18  2  0
 18 19  1  0
 19 20  2  0
 20 21  1  0
 21 22  1  0
 22 23  2  0
 14  5  1  0
 23 15  1  0
 13  7  1  0
 22 18  1  0
  3 24  1  0
  4 25  1  0
  4 26  1  0
  8 27  1  0
 11 28  1  0
 12 29  1  0
 14 30  1  0
 16 31  1  0
 17 32  1  0
 20 33  1  0
 23 34  1  0
M  END
>  <Energy>  (1416) 
29.163435989073818

>  <compound_id>  (1416) 
11786

>  <target_id>  (1416) 
1

>  <reference_id>  (1416) 
94

>  <inspiration_ids>  (1416) 
[94, 68]

>  <energy_score>  (1416) 
-52.293504329931125

>  <distance_score>  (1416) 
4.190532675708095

>  <path>  (1416) 
/opt/xchem-fragalysis-2/maxwin/BulkDock/SCRATCH/511013/C11786-P94/C11786-P94.minimised.mol

>  <scratch_subdir>  (1416) 
/opt/xchem-fragalysis-2/maxwin/BulkDock/SCRATCH/511013/C11786-P94

>  <fragmenstein_runtime>  (1416) 
6.596574544906616

>  <fragmenstein_outcome>  (1416) 
too moved

>  <fragmenstein_mode>  (1416) 
expansion

>  <fragmenstein_error>  (1416) 


$$$$
C11786-P68
     RDKit          3D

 34 37  0  0  0  0  0  0  0  0999 V2000
  -12.9305  -30.5087   26.3265 O   0  0  0  0  0  0  0  0  0  0  0  0
  -11.8167  -31.0009   26.4587 C   0  0  0  0  0  0  0  0  0  0  0  0
  -10.3163  -30.0221   27.2887 N   0  0  0  0  0  0  0  0  0  0  0  0
  -10.2251  -28.2528   28.1662 C   0  0  0  0  0  0  0  0  0  0  0  0
   -9.3454  -27.5897   29.9071 C   0  0  0  0  0  0  0  0  0  0  0  0
   -9.3777  -26.7199   31.3276 N   0  0  0  0  0  0  0  0  0  0  0  0
   -9.1864  -24.8504   31.4236 C   0  0  0  0  0  0  0  0  0  0  0  0
  -10.4858  -23.7708   31.2641 C   0  0  0  0  0  0  0  0  0  0  0  0
  -10.7764  -22.6423   29.9416 C   0  0  0  0  0  0  0  0  0  0  0  0
  -11.6897  -21.2332   29.9797 Cl  0  0  0  0  0  0  0  0  0  0  0  0
  -10.3582  -23.0394   28.6350 C   0  0  0  0  0  0  0  0  0  0  0  0
   -9.4860  -24.1827   28.5641 C   0  0  0  0  0  0  0  0  0  0  0  0
   -8.6794  -24.8553   29.8735 C   0  0  0  0  0  0  0  0  0  0  0  0
   -8.2202  -26.3112   30.1693 N   0  0  0  0  0  0  0  0  0  0  0  0
  -11.7811  -32.6300   25.6660 C   0  0  0  0  0  0  0  0  0  0  0  0
  -13.0258  -33.2895   25.7542 C   0  0  0  0  0  0  0  0  0  0  0  0
  -13.2430  -34.5872   25.2338 C   0  0  0  0  0  0  0  0  0  0  0  0
  -12.2134  -35.2679   24.5535 C   0  0  0  0  0  0  0  0  0  0  0  0
  -12.2451  -36.5624   24.0638 N   0  0  0  0  0  0  0  0  0  0  0  0
  -11.1100  -36.8364   23.4581 C   0  0  0  0  0  0  0  0  0  0  0  0
   -9.9558  -35.5742   23.4062 S   0  0  0  0  0  0  0  0  0  0  0  0
  -11.0275  -34.5835   24.3270 C   0  0  0  0  0  0  0  0  0  0  0  0
  -10.8311  -33.2751   24.8119 C   0  0  0  0  0  0  0  0  0  0  0  0
   -9.5447  -30.6205   27.3758 H   0  0  0  0  0  0  0  0  0  0  0  0
  -10.5344  -27.4768   27.4670 H   0  0  0  0  0  0  0  0  0  0  0  0
   -9.1883  -28.4023   27.8792 H   0  0  0  0  0  0  0  0  0  0  0  0
  -10.9285  -23.5259   32.1809 H   0  0  0  0  0  0  0  0  0  0  0  0
  -10.8682  -22.6295   27.7725 H   0  0  0  0  0  0  0  0  0  0  0  0
   -9.3627  -24.6389   27.5855 H   0  0  0  0  0  0  0  0  0  0  0  0
   -8.0119  -26.2738   31.0957 H   0  0  0  0  0  0  0  0  0  0  0  0
  -13.8461  -32.8142   26.2946 H   0  0  0  0  0  0  0  0  0  0  0  0
  -14.2004  -35.0801   25.3804 H   0  0  0  0  0  0  0  0  0  0  0  0
  -10.9162  -37.8003   23.0050 H   0  0  0  0  0  0  0  0  0  0  0  0
   -9.9202  -32.7961   24.4778 H   0  0  0  0  0  0  0  0  0  0  0  0
  1  2  2  0
  2  3  1  0
  3  4  1  0
  4  5  1  0
  5  6  2  0
  6  7  1  0
  7  8  2  0
  8  9  1  0
  9 10  1  0
  9 11  2  0
 11 12  1  0
 12 13  2  0
 13 14  1  0
  2 15  1  0
 15 16  2  0
 16 17  1  0
 17 18  2  0
 18 19  1  0
 19 20  2  0
 20 21  1  0
 21 22  1  0
 22 23  2  0
 14  5  1  0
 23 15  1  0
 13  7  1  0
 22 18  1  0
  3 24  1  0
  4 25  1  0
  4 26  1  0
  8 27  1  0
 11 28  1  0
 12 29  1  0
 14 30  1  0
 16 31  1  0
 17 32  1  0
 20 33  1  0
 23 34  1  0
M  END
>  <Energy>  (1417) 
761.06843426971966

>  <compound_id>  (1417) 
11786

>  <target_id>  (1417) 
1

>  <reference_id>  (1417) 
68

>  <inspiration_ids>  (1417) 
[94, 68]

>  <energy_score>  (1417) 
679.6114939507142

>  <distance_score>  (1417) 
3.6528872500249383

>  <path>  (1417) 
/opt/xchem-fragalysis-2/maxwin/BulkDock/SCRATCH/511013/C11786-P68/C11786-P68.minimised.mol

>  <scratch_subdir>  (1417) 
/opt/xchem-fragalysis-2/maxwin/BulkDock/SCRATCH/511013/C11786-P68

>  <fragmenstein_runtime>  (1417) 
7.785616636276245

>  <fragmenstein_outcome>  (1417) 
too moved

>  <fragmenstein_mode>  (1417) 
expansion

>  <fragmenstein_error>  (1417) 


$$$$
C11787-P94
     RDKit          3D

 33 36  0  0  0  0  0  0  0  0999 V2000
  -13.6140  -31.7784   26.8276 O   0  0  0  0  0  0  0  0  0  0  0  0
  -12.4878  -31.3581   26.5768 C   0  0  0  0  0  0  0  0  0  0  0  0
  -11.9337  -30.2923   27.3205 O   0  0  0  0  0  0  0  0  0  0  0  0
  -12.7317  -29.6309   28.4680 C   0  0  0  0  0  0  0  0  0  0  0  0
  -12.2293  -28.1465   28.8779 C   0  0  0  0  0  0  0  0  0  0  0  0
  -12.0857  -27.0979   28.0920 N   0  0  0  0  0  0  0  0  0  0  0  0
  -11.6010  -26.0582   28.8592 C   0  0  0  0  0  0  0  0  0  0  0  0
  -11.5178  -24.7097   28.5343 C   0  0  0  0  0  0  0  0  0  0  0  0
  -11.3928  -23.8319   29.6056 C   0  0  0  0  0  0  0  0  0  0  0  0
  -11.7033  -21.9995   29.3378 Br  0  0  0  0  0  0  0  0  0  0  0  0
  -11.1169  -24.2590   30.9036 C   0  0  0  0  0  0  0  0  0  0  0  0
  -11.0087  -25.6086   31.1987 C   0  0  0  0  0  0  0  0  0  0  0  0
  -11.3601  -26.4619   30.1584 C   0  0  0  0  0  0  0  0  0  0  0  0
  -11.7843  -27.7670   30.1664 N   0  0  0  0  0  0  0  0  0  0  0  0
  -11.6095  -32.0723   25.4507 C   0  0  0  0  0  0  0  0  0  0  0  0
  -10.4514  -31.5238   24.9132 C   0  0  0  0  0  0  0  0  0  0  0  0
   -9.5634  -32.2842   24.0897 C   0  0  0  0  0  0  0  0  0  0  0  0
   -9.7537  -33.6602   23.8374 C   0  0  0  0  0  0  0  0  0  0  0  0
   -8.8509  -34.5440   23.2465 N   0  0  0  0  0  0  0  0  0  0  0  0
   -9.3683  -35.7451   23.1934 C   0  0  0  0  0  0  0  0  0  0  0  0
  -10.9508  -35.8872   23.8288 S   0  0  0  0  0  0  0  0  0  0  0  0
  -10.9494  -34.2119   24.2874 C   0  0  0  0  0  0  0  0  0  0  0  0
  -11.8992  -33.4210   25.0321 C   0  0  0  0  0  0  0  0  0  0  0  0
  -13.7914  -29.5755   28.1969 H   0  0  0  0  0  0  0  0  0  0  0  0
  -12.6436  -30.2949   29.3344 H   0  0  0  0  0  0  0  0  0  0  0  0
  -11.7691  -24.3671   27.5374 H   0  0  0  0  0  0  0  0  0  0  0  0
  -11.0252  -23.5406   31.7155 H   0  0  0  0  0  0  0  0  0  0  0  0
  -10.8582  -25.9573   32.2143 H   0  0  0  0  0  0  0  0  0  0  0  0
  -11.7729  -28.3558   30.9871 H   0  0  0  0  0  0  0  0  0  0  0  0
  -10.1525  -30.5035   25.1529 H   0  0  0  0  0  0  0  0  0  0  0  0
   -8.6565  -31.8051   23.7206 H   0  0  0  0  0  0  0  0  0  0  0  0
   -8.8419  -36.5854   22.7609 H   0  0  0  0  0  0  0  0  0  0  0  0
  -12.7988  -33.9053   25.4101 H   0  0  0  0  0  0  0  0  0  0  0  0
  1  2  2  0
  2  3  1  0
  3  4  1  0
  4  5  1  0
  5  6  2  0
  6  7  1  0
  7  8  2  0
  8  9  1  0
  9 10  1  0
  9 11  2  0
 11 12  1  0
 12 13  2  0
 13 14  1  0
  2 15  1  0
 15 16  2  0
 16 17  1  0
 17 18  2  0
 18 19  1  0
 19 20  2  0
 20 21  1  0
 21 22  1  0
 22 23  2  0
 14  5  1  0
 23 15  1  0
 13  7  1  0
 22 18  1  0
  4 24  1  0
  4 25  1  0
  8 26  1  0
 11 27  1  0
 12 28  1  0
 14 29  1  0
 16 30  1  0
 17 31  1  0
 20 32  1  0
 23 33  1  0
M  END
>  <Energy>  (1418) 
67.613944556322451

>  <compound_id>  (1418) 
11787

>  <target_id>  (1418) 
1

>  <reference_id>  (1418) 
94

>  <inspiration_ids>  (1418) 
[94, 68]

>  <energy_score>  (1418) 
-14.739257953850966

>  <distance_score>  (1418) 
3.990878431967614

>  <path>  (1418) 
/opt/xchem-fragalysis-2/maxwin/BulkDock/SCRATCH/511013/C11787-P94/C11787-P94.minimised.mol

>  <scratch_subdir>  (1418) 
/opt/xchem-fragalysis-2/maxwin/BulkDock/SCRATCH/511013/C11787-P94

>  <fragmenstein_runtime>  (1418) 
2.9105026721954346

>  <fragmenstein_outcome>  (1418) 
too moved

>  <fragmenstein_mode>  (1418) 
expansion

>  <fragmenstein_error>  (1418) 


$$$$
C11787-P68
     RDKit          3D

 33 36  0  0  0  0  0  0  0  0999 V2000
  -15.9701  -36.5785   29.1419 O   0  0  0  0  0  0  0  0  0  0  0  0
  -15.3081  -35.6030   28.8254 C   0  0  0  0  0  0  0  0  0  0  0  0
  -14.9885  -34.5578   29.6453 O   0  0  0  0  0  0  0  0  0  0  0  0
  -15.3082  -34.7691   31.0481 C   0  0  0  0  0  0  0  0  0  0  0  0
  -14.5302  -33.7995   31.9090 C   0  0  0  0  0  0  0  0  0  0  0  0
  -13.4225  -34.0351   32.5904 N   0  0  0  0  0  0  0  0  0  0  0  0
  -13.0099  -32.8128   33.0790 C   0  0  0  0  0  0  0  0  0  0  0  0
  -11.8532  -32.4877   33.7956 C   0  0  0  0  0  0  0  0  0  0  0  0
  -11.6737  -31.1665   34.2102 C   0  0  0  0  0  0  0  0  0  0  0  0
  -10.2111  -30.8070   35.3627 Br  0  0  0  0  0  0  0  0  0  0  0  0
  -12.5814  -30.1643   33.8583 C   0  0  0  0  0  0  0  0  0  0  0  0
  -13.7296  -30.4720   33.1148 C   0  0  0  0  0  0  0  0  0  0  0  0
  -13.9312  -31.8163   32.7776 C   0  0  0  0  0  0  0  0  0  0  0  0
  -14.9378  -32.5046   32.1381 N   0  0  0  0  0  0  0  0  0  0  0  0
  -14.6545  -35.4858   27.4770 C   0  0  0  0  0  0  0  0  0  0  0  0
  -14.5384  -34.2626   26.8140 C   0  0  0  0  0  0  0  0  0  0  0  0
  -13.7542  -34.1512   25.6487 C   0  0  0  0  0  0  0  0  0  0  0  0
  -13.0426  -35.2665   25.1513 C   0  0  0  0  0  0  0  0  0  0  0  0
  -12.1536  -35.2626   24.0877 N   0  0  0  0  0  0  0  0  0  0  0  0
  -11.6386  -36.4621   23.9369 C   0  0  0  0  0  0  0  0  0  0  0  0
  -12.1981  -37.6652   25.0183 S   0  0  0  0  0  0  0  0  0  0  0  0
  -13.1982  -36.4936   25.8014 C   0  0  0  0  0  0  0  0  0  0  0  0
  -14.0262  -36.6318   26.9398 C   0  0  0  0  0  0  0  0  0  0  0  0
  -16.3840  -34.6155   31.1860 H   0  0  0  0  0  0  0  0  0  0  0  0
  -15.0431  -35.7907   31.3449 H   0  0  0  0  0  0  0  0  0  0  0  0
  -11.1451  -33.2701   34.0413 H   0  0  0  0  0  0  0  0  0  0  0  0
  -12.4272  -29.1387   34.1892 H   0  0  0  0  0  0  0  0  0  0  0  0
  -14.4270  -29.6962   32.8394 H   0  0  0  0  0  0  0  0  0  0  0  0
  -15.8356  -32.1503   31.8522 H   0  0  0  0  0  0  0  0  0  0  0  0
  -15.0124  -33.3726   27.2227 H   0  0  0  0  0  0  0  0  0  0  0  0
  -13.6402  -33.1909   25.1545 H   0  0  0  0  0  0  0  0  0  0  0  0
  -10.9085  -36.6858   23.1696 H   0  0  0  0  0  0  0  0  0  0  0  0
  -14.1066  -37.5914   27.4467 H   0  0  0  0  0  0  0  0  0  0  0  0
  1  2  2  0
  2  3  1  0
  3  4  1  0
  4  5  1  0
  5  6  2  0
  6  7  1  0
  7  8  2  0
  8  9  1  0
  9 10  1  0
  9 11  2  0
 11 12  1  0
 12 13  2  0
 13 14  1  0
  2 15  1  0
 15 16  2  0
 16 17  1  0
 17 18  2  0
 18 19  1  0
 19 20  2  0
 20 21  1  0
 21 22  1  0
 22 23  2  0
 14  5  1  0
 23 15  1  0
 13  7  1  0
 22 18  1  0
  4 24  1  0
  4 25  1  0
  8 26  1  0
 11 27  1  0
 12 28  1  0
 14 29  1  0
 16 30  1  0
 17 31  1  0
 20 32  1  0
 23 33  1  0
M  END
>  <Energy>  (1419) 
37.791261643287953

>  <compound_id>  (1419) 
11787

>  <target_id>  (1419) 
1

>  <reference_id>  (1419) 
68

>  <inspiration_ids>  (1419) 
[94, 68]

>  <energy_score>  (1419) 
-81.76216545606815

>  <distance_score>  (1419) 
7.409438195899521

>  <path>  (1419) 
/opt/xchem-fragalysis-2/maxwin/BulkDock/SCRATCH/511013/C11787-P68/C11787-P68.minimised.mol

>  <scratch_subdir>  (1419) 
/opt/xchem-fragalysis-2/maxwin/BulkDock/SCRATCH/511013/C11787-P68

>  <fragmenstein_runtime>  (1419) 
10.524975538253784

>  <fragmenstein_outcome>  (1419) 
too moved

>  <fragmenstein_mode>  (1419) 
expansion

>  <fragmenstein_error>  (1419) 


$$$$
C11780-P94
     RDKit          3D

 39 42  0  0  0  0  0  0  0  0999 V2000
  -13.0632  -30.0190   29.8578 C   0  0  0  0  0  0  0  0  0  0  0  0
  -12.7075  -29.2065   28.6123 C   0  0  0  0  0  0  0  0  0  0  0  0
  -11.9836  -30.1278   27.5150 O   0  0  0  0  0  0  0  0  0  0  0  0
  -12.6570  -31.1623   26.8192 C   0  0  0  0  0  0  0  0  0  0  0  0
  -13.8315  -31.4004   27.1076 O   0  0  0  0  0  0  0  0  0  0  0  0
  -11.9716  -32.0922   25.6581 C   0  0  0  0  0  0  0  0  0  0  0  0
  -12.5475  -33.3852   25.5211 C   0  0  0  0  0  0  0  0  0  0  0  0
  -11.9130  -34.4772   24.8633 C   0  0  0  0  0  0  0  0  0  0  0  0
  -10.7076  -34.2920   24.1677 C   0  0  0  0  0  0  0  0  0  0  0  0
   -9.9237  -35.2895   23.5856 N   0  0  0  0  0  0  0  0  0  0  0  0
   -8.9392  -34.7284   22.9221 C   0  0  0  0  0  0  0  0  0  0  0  0
   -8.9103  -33.0110   22.9406 S   0  0  0  0  0  0  0  0  0  0  0  0
  -10.2397  -32.9757   24.0663 C   0  0  0  0  0  0  0  0  0  0  0  0
  -10.8327  -31.8786   24.8336 C   0  0  0  0  0  0  0  0  0  0  0  0
  -11.9825  -27.7176   28.8262 C   0  0  0  0  0  0  0  0  0  0  0  0
  -11.7592  -26.9586   27.7655 N   0  0  0  0  0  0  0  0  0  0  0  0
  -11.4795  -25.6892   28.1852 C   0  0  0  0  0  0  0  0  0  0  0  0
  -11.3552  -24.5245   27.4324 C   0  0  0  0  0  0  0  0  0  0  0  0
  -11.3747  -23.2998   28.1002 C   0  0  0  0  0  0  0  0  0  0  0  0
  -11.4658  -23.2425   29.4859 C   0  0  0  0  0  0  0  0  0  0  0  0
  -11.4152  -24.4041   30.2559 C   0  0  0  0  0  0  0  0  0  0  0  0
  -11.4396  -25.6184   29.5556 C   0  0  0  0  0  0  0  0  0  0  0  0
  -11.5460  -26.9479   29.9435 N   0  0  0  0  0  0  0  0  0  0  0  0
  -11.3251  -27.2713   31.3291 C   0  0  0  0  0  0  0  0  0  0  0  0
  -13.7122  -30.8578   29.5860 H   0  0  0  0  0  0  0  0  0  0  0  0
  -13.6064  -29.4177   30.5861 H   0  0  0  0  0  0  0  0  0  0  0  0
  -12.2097  -30.4748   30.3625 H   0  0  0  0  0  0  0  0  0  0  0  0
  -13.6759  -28.9325   28.1764 H   0  0  0  0  0  0  0  0  0  0  0  0
  -13.4607  -33.6129   26.0761 H   0  0  0  0  0  0  0  0  0  0  0  0
  -12.3487  -35.4705   24.9209 H   0  0  0  0  0  0  0  0  0  0  0  0
   -8.2029  -35.2957   22.3686 H   0  0  0  0  0  0  0  0  0  0  0  0
  -10.3452  -30.9048   24.8037 H   0  0  0  0  0  0  0  0  0  0  0  0
  -11.3875  -24.5667   26.3499 H   0  0  0  0  0  0  0  0  0  0  0  0
  -11.3986  -22.3792   27.5240 H   0  0  0  0  0  0  0  0  0  0  0  0
  -11.5446  -22.2774   29.9801 H   0  0  0  0  0  0  0  0  0  0  0  0
  -11.4657  -24.3556   31.3382 H   0  0  0  0  0  0  0  0  0  0  0  0
  -11.7554  -26.5179   31.9834 H   0  0  0  0  0  0  0  0  0  0  0  0
  -11.7597  -28.2484   31.5135 H   0  0  0  0  0  0  0  0  0  0  0  0
  -10.2461  -27.3136   31.4681 H   0  0  0  0  0  0  0  0  0  0  0  0
  1  2  1  0
  2  3  1  0
  3  4  1  0
  4  5  2  0
  4  6  1  0
  6  7  2  0
  7  8  1  0
  8  9  2  0
  9 10  1  0
 10 11  2  0
 11 12  1  0
 12 13  1  0
 13 14  2  0
  2 15  1  0
 15 16  2  0
 16 17  1  0
 17 18  2  0
 18 19  1  0
 19 20  2  0
 20 21  1  0
 21 22  2  0
 22 23  1  0
 23 24  1  0
 14  6  1  0
 23 15  1  0
 13  9  1  0
 22 17  1  0
  1 25  1  0
  1 26  1  0
  1 27  1  0
  2 28  1  0
  7 29  1  0
  8 30  1  0
 11 31  1  0
 14 32  1  0
 18 33  1  0
 19 34  1  0
 20 35  1  0
 21 36  1  0
 24 37  1  0
 24 38  1  0
 24 39  1  0
M  END
>  <Energy>  (1420) 
112.10976194218733

>  <compound_id>  (1420) 
11780

>  <target_id>  (1420) 
1

>  <reference_id>  (1420) 
94

>  <inspiration_ids>  (1420) 
[94, 68]

>  <energy_score>  (1420) 
-18.122458927814137

>  <distance_score>  (1420) 
3.9309016032547603

>  <path>  (1420) 
/opt/xchem-fragalysis-2/maxwin/BulkDock/SCRATCH/511013/C11780-P94/C11780-P94.minimised.mol

>  <scratch_subdir>  (1420) 
/opt/xchem-fragalysis-2/maxwin/BulkDock/SCRATCH/511013/C11780-P94

>  <fragmenstein_runtime>  (1420) 
3.19217586517334

>  <fragmenstein_outcome>  (1420) 
too moved

>  <fragmenstein_mode>  (1420) 
expansion

>  <fragmenstein_error>  (1420) 


$$$$
C11780-P68
     RDKit          3D

 39 42  0  0  0  0  0  0  0  0999 V2000
  -12.5806  -29.4307   31.2681 C   0  0  0  0  0  0  0  0  0  0  0  0
  -11.9025  -28.5017   29.7096 C   0  0  0  0  0  0  0  0  0  0  0  0
  -11.5592  -29.1977   27.8395 O   0  0  0  0  0  0  0  0  0  0  0  0
  -12.6777  -30.4241   26.7423 C   0  0  0  0  0  0  0  0  0  0  0  0
  -13.8636  -30.0577   26.4705 O   0  0  0  0  0  0  0  0  0  0  0  0
  -12.4449  -32.0471   26.1447 C   0  0  0  0  0  0  0  0  0  0  0  0
  -13.7046  -32.7020   26.3677 C   0  0  0  0  0  0  0  0  0  0  0  0
  -14.0657  -34.0234   25.9619 C   0  0  0  0  0  0  0  0  0  0  0  0
  -13.1641  -34.8192   25.2425 C   0  0  0  0  0  0  0  0  0  0  0  0
  -13.3210  -36.1300   24.8266 N   0  0  0  0  0  0  0  0  0  0  0  0
  -12.2488  -36.5202   24.1706 C   0  0  0  0  0  0  0  0  0  0  0  0
  -10.9991  -35.3636   24.0096 S   0  0  0  0  0  0  0  0  0  0  0  0
  -11.9512  -34.2439   24.9208 C   0  0  0  0  0  0  0  0  0  0  0  0
  -11.6179  -32.9220   25.3340 C   0  0  0  0  0  0  0  0  0  0  0  0
  -10.5585  -28.2413   31.0200 C   0  0  0  0  0  0  0  0  0  0  0  0
   -9.4284  -27.8134   30.4116 N   0  0  0  0  0  0  0  0  0  0  0  0
   -8.9235  -26.6035   31.0790 C   0  0  0  0  0  0  0  0  0  0  0  0
   -8.2119  -25.7316   30.3338 C   0  0  0  0  0  0  0  0  0  0  0  0
   -9.0676  -24.7802   29.1298 C   0  0  0  0  0  0  0  0  0  0  0  0
  -10.0461  -24.1158   29.6869 C   0  0  0  0  0  0  0  0  0  0  0  0
   -9.9706  -24.3265   31.5001 C   0  0  0  0  0  0  0  0  0  0  0  0
   -9.6322  -25.9081   32.1595 C   0  0  0  0  0  0  0  0  0  0  0  0
  -10.8802  -27.2763   32.2225 N   0  0  0  0  0  0  0  0  0  0  0  0
  -11.9646  -27.5254   33.2062 C   0  0  0  0  0  0  0  0  0  0  0  0
  -11.8620  -29.4766   32.0732 H   0  0  0  0  0  0  0  0  0  0  0  0
  -12.6124  -30.5425   31.3050 H   0  0  0  0  0  0  0  0  0  0  0  0
  -13.5985  -29.1798   31.5728 H   0  0  0  0  0  0  0  0  0  0  0  0
  -12.3441  -27.5888   29.4645 H   0  0  0  0  0  0  0  0  0  0  0  0
  -14.4844  -32.1813   26.9319 H   0  0  0  0  0  0  0  0  0  0  0  0
  -15.0420  -34.4222   26.2246 H   0  0  0  0  0  0  0  0  0  0  0  0
  -12.1593  -37.5139   23.7504 H   0  0  0  0  0  0  0  0  0  0  0  0
  -10.6395  -32.6851   24.9413 H   0  0  0  0  0  0  0  0  0  0  0  0
   -7.2894  -26.3138   30.1562 H   0  0  0  0  0  0  0  0  0  0  0  0
   -8.9163  -24.4499   28.1042 H   0  0  0  0  0  0  0  0  0  0  0  0
  -10.4355  -23.1928   29.1560 H   0  0  0  0  0  0  0  0  0  0  0  0
  -10.7550  -23.7825   32.0138 H   0  0  0  0  0  0  0  0  0  0  0  0
  -12.3659  -28.5232   33.2789 H   0  0  0  0  0  0  0  0  0  0  0  0
  -12.8291  -26.9146   33.1057 H   0  0  0  0  0  0  0  0  0  0  0  0
  -11.6618  -27.5189   34.2298 H   0  0  0  0  0  0  0  0  0  0  0  0
  1  2  1  0
  2  3  1  0
  3  4  1  0
  4  5  2  0
  4  6  1  0
  6  7  2  0
  7  8  1  0
  8  9  2  0
  9 10  1  0
 10 11  2  0
 11 12  1  0
 12 13  1  0
 13 14  2  0
  2 15  1  0
 15 16  2  0
 16 17  1  0
 17 18  2  0
 18 19  1  0
 19 20  2  0
 20 21  1  0
 21 22  2  0
 22 23  1  0
 23 24  1  0
 14  6  1  0
 23 15  1  0
 13  9  1  0
 22 17  1  0
  1 25  1  0
  1 26  1  0
  1 27  1  0
  2 28  1  0
  7 29  1  0
  8 30  1  0
 11 31  1  0
 14 32  1  0
 18 33  1  0
 19 34  1  0
 20 35  1  0
 21 36  1  0
 24 37  1  0
 24 38  1  0
 24 39  1  0
M  END
>  <Energy>  (1421) 
835.89543103301651

>  <compound_id>  (1421) 
11780

>  <target_id>  (1421) 
1

>  <reference_id>  (1421) 
68

>  <inspiration_ids>  (1421) 
[94, 68]

>  <energy_score>  (1421) 
722.4678080135205

>  <distance_score>  (1421) 
4.421641729850981

>  <path>  (1421) 
/opt/xchem-fragalysis-2/maxwin/BulkDock/SCRATCH/511013/C11780-P68/C11780-P68.minimised.mol

>  <scratch_subdir>  (1421) 
/opt/xchem-fragalysis-2/maxwin/BulkDock/SCRATCH/511013/C11780-P68

>  <fragmenstein_runtime>  (1421) 
6.854710578918457

>  <fragmenstein_outcome>  (1421) 
too moved

>  <fragmenstein_mode>  (1421) 
expansion

>  <fragmenstein_error>  (1421) 


$$$$
C10754-P53
     RDKit          3D

 49 50  0  0  0  0  0  0  0  0999 V2000
    5.9440   12.0732   16.8722 C   0  0  0  0  0  0  0  0  0  0  0  0
    4.7555   11.1224   16.9916 C   0  0  0  0  0  0  0  0  0  0  0  0
    4.8416   10.0210   15.9392 C   0  0  0  0  0  0  0  0  0  0  0  0
    4.7594   10.3974   18.6734 S   0  0  0  0  0  0  0  0  0  0  0  0
    2.9982    9.8711   18.8112 C   0  0  0  0  0  0  0  0  0  0  0  0
    2.1121   11.0644   19.1555 C   0  0  0  0  0  0  0  0  0  0  0  0
    2.8873    8.8000   19.9235 C   0  0  0  0  0  0  0  0  0  0  0  0
    2.9536    9.1100   21.0846 O   0  0  0  0  0  0  0  0  0  0  0  0
    2.6501    7.5243   19.3127 N   0  0  0  0  0  0  0  0  0  0  0  0
    3.9596    6.8144   19.0598 C   0  0  0  0  0  0  0  0  0  0  0  0
    3.7947    5.5170   18.3081 C   0  0  0  0  0  0  0  0  0  0  0  0
    2.6007    4.9980   19.0180 C   0  0  0  0  0  0  0  0  0  0  0  0
    2.2968    6.1863   19.9251 C   0  0  0  0  0  0  0  0  0  0  0  0
    2.7743    6.0196   21.6349 C   0  0  0  0  0  0  0  0  0  0  0  0
    1.3696    5.2659   22.7953 N   0  0  0  0  0  0  0  0  0  0  0  0
    2.2328    6.0825   22.2436 C   0  0  0  0  0  0  0  0  0  0  0  0
   -0.0485    5.7547   23.3435 C   0  0  0  0  0  0  0  0  0  0  0  0
   -0.6038    6.7654   23.2794 O   0  0  0  0  0  0  0  0  0  0  0  0
   -0.6358    4.6460   24.0775 C   0  0  0  0  0  0  0  0  0  0  0  0
   -0.1452    3.3961   24.3934 C   0  0  0  0  0  0  0  0  0  0  0  0
   -1.0709    2.6354   25.0626 N   0  0  0  0  0  0  0  0  0  0  0  0
   -2.1009    3.4338   25.2309 C   0  0  0  0  0  0  0  0  0  0  0  0
   -1.8779    4.6641   24.6777 N   0  0  0  0  0  0  0  0  0  0  0  0
    5.8840   12.8812   17.6100 H   0  0  0  0  0  0  0  0  0  0  0  0
    6.8999   11.5539   17.0059 H   0  0  0  0  0  0  0  0  0  0  0  0
    5.9596   12.5398   15.8809 H   0  0  0  0  0  0  0  0  0  0  0  0
    3.8377   11.7001   16.8464 H   0  0  0  0  0  0  0  0  0  0  0  0
    4.8581   10.4569   14.9339 H   0  0  0  0  0  0  0  0  0  0  0  0
    3.9811    9.3460   15.9833 H   0  0  0  0  0  0  0  0  0  0  0  0
    5.7525    9.4219   16.0518 H   0  0  0  0  0  0  0  0  0  0  0  0
    2.6697    9.4396   17.8605 H   0  0  0  0  0  0  0  0  0  0  0  0
    2.1057   11.8110   18.3556 H   0  0  0  0  0  0  0  0  0  0  0  0
    2.4271   11.5574   20.0825 H   0  0  0  0  0  0  0  0  0  0  0  0
    1.0770   10.7355   19.3035 H   0  0  0  0  0  0  0  0  0  0  0  0
    4.5511    7.4785   18.4168 H   0  0  0  0  0  0  0  0  0  0  0  0
    4.5793    6.7275   19.9639 H   0  0  0  0  0  0  0  0  0  0  0  0
    3.5765    5.6941   17.2493 H   0  0  0  0  0  0  0  0  0  0  0  0
    4.6817    4.8918   18.3778 H   0  0  0  0  0  0  0  0  0  0  0  0
    1.7845    4.8260   18.3067 H   0  0  0  0  0  0  0  0  0  0  0  0
    2.7543    4.0748   19.5724 H   0  0  0  0  0  0  0  0  0  0  0  0
    1.1967    6.2335   19.9727 H   0  0  0  0  0  0  0  0  0  0  0  0
    3.4435    5.0104   21.4575 H   0  0  0  0  0  0  0  0  0  0  0  0
    3.7946    6.7428   21.9030 H   0  0  0  0  0  0  0  0  0  0  0  0
    2.2072    7.1704   22.9197 H   0  0  0  0  0  0  0  0  0  0  0  0
    2.8230    5.9187   23.3725 H   0  0  0  0  0  0  0  0  0  0  0  0
    1.2626    6.8266   21.9055 H   0  0  0  0  0  0  0  0  0  0  0  0
    0.8363    3.0097   24.1563 H   0  0  0  0  0  0  0  0  0  0  0  0
   -3.0252    3.1922   25.7403 H   0  0  0  0  0  0  0  0  0  0  0  0
   -2.5120    5.4534   24.7057 H   0  0  0  0  0  0  0  0  0  0  0  0
  1  2  1  0
  2  3  1  0
  2  4  1  0
  4  5  1  0
  5  6  1  0
  5  7  1  0
  7  8  2  0
  7  9  1  0
  9 10  1  0
 10 11  1  0
 11 12  1  0
 12 13  1  0
 13 14  1  0
 14 15  1  0
 15 16  1  0
 15 17  1  0
 17 18  2  0
 17 19  1  0
 19 20  2  0
 20 21  1  0
 21 22  2  0
 22 23  1  0
 13  9  1  0
 23 19  1  0
  1 24  1  0
  1 25  1  0
  1 26  1  0
  2 27  1  0
  3 28  1  0
  3 29  1  0
  3 30  1  0
  5 31  1  0
  6 32  1  0
  6 33  1  0
  6 34  1  0
 10 35  1  0
 10 36  1  0
 11 37  1  0
 11 38  1  0
 12 39  1  0
 12 40  1  0
 13 41  1  0
 14 42  1  0
 14 43  1  0
 16 44  1  0
 16 45  1  0
 16 46  1  0
 20 47  1  0
 22 48  1  0
 23 49  1  0
M  END
>  <Energy>  (1422) 
827.43923147283897

>  <compound_id>  (1422) 
10754

>  <target_id>  (1422) 
1

>  <reference_id>  (1422) 
53

>  <inspiration_ids>  (1422) 
[53, 80]

>  <energy_score>  (1422) 
744.8809896996091

>  <distance_score>  (1422) 
8.38066156243343

>  <path>  (1422) 
/opt/xchem-fragalysis-2/maxwin/BulkDock/SCRATCH/511013/C10754-P53/C10754-P53.minimised.mol

>  <scratch_subdir>  (1422) 
/opt/xchem-fragalysis-2/maxwin/BulkDock/SCRATCH/511013/C10754-P53

>  <fragmenstein_runtime>  (1422) 
12.061021327972412

>  <fragmenstein_outcome>  (1422) 
too moved

>  <fragmenstein_mode>  (1422) 
expansion

>  <fragmenstein_error>  (1422) 


$$$$
C10754-P80
     RDKit          3D

 49 50  0  0  0  0  0  0  0  0999 V2000
   15.5410   -1.2382   15.5812 C   0  0  0  0  0  0  0  0  0  0  0  0
   14.1808   -1.4487   16.2404 C   0  0  0  0  0  0  0  0  0  0  0  0
   14.2542   -2.5436   17.3006 C   0  0  0  0  0  0  0  0  0  0  0  0
   13.6576    0.1280   17.0336 S   0  0  0  0  0  0  0  0  0  0  0  0
   12.1565    0.5886   16.0528 C   0  0  0  0  0  0  0  0  0  0  0  0
   12.4907    0.6810   14.5644 C   0  0  0  0  0  0  0  0  0  0  0  0
   10.9818   -0.4048   16.3353 C   0  0  0  0  0  0  0  0  0  0  0  0
   11.1627   -1.5881   16.1739 O   0  0  0  0  0  0  0  0  0  0  0  0
    9.7370    0.3435   16.6883 N   0  0  0  0  0  0  0  0  0  0  0  0
    9.0486    0.7382   15.4972 C   0  0  0  0  0  0  0  0  0  0  0  0
    8.5578   -0.5415   14.8184 C   0  0  0  0  0  0  0  0  0  0  0  0
    7.5635   -0.9968   15.8553 C   0  0  0  0  0  0  0  0  0  0  0  0
    8.2105   -0.2103   17.0965 C   0  0  0  0  0  0  0  0  0  0  0  0
    7.6268   -0.4951   18.9979 C   0  0  0  0  0  0  0  0  0  0  0  0
    5.8026    0.2631   19.4529 N   0  0  0  0  0  0  0  0  0  0  0  0
    7.0318   -0.0362   19.4256 C   0  0  0  0  0  0  0  0  0  0  0  0
    4.7664    0.5852   21.2039 C   0  0  0  0  0  0  0  0  0  0  0  0
    5.0874    0.4550   22.2616 O   0  0  0  0  0  0  0  0  0  0  0  0
    2.9929    1.4345   21.2271 C   0  0  0  0  0  0  0  0  0  0  0  0
    2.6820    2.3022   22.3687 C   0  0  0  0  0  0  0  0  0  0  0  0
    1.6311    3.1821   22.2239 N   0  0  0  0  0  0  0  0  0  0  0  0
    1.2410    3.0097   21.0001 C   0  0  0  0  0  0  0  0  0  0  0  0
    1.9803    2.0560   20.3659 N   0  0  0  0  0  0  0  0  0  0  0  0
   16.3093   -0.9535   16.3090 H   0  0  0  0  0  0  0  0  0  0  0  0
   15.8750   -2.1624   15.0962 H   0  0  0  0  0  0  0  0  0  0  0  0
   15.4945   -0.4640   14.8076 H   0  0  0  0  0  0  0  0  0  0  0  0
   13.4735   -1.7626   15.4708 H   0  0  0  0  0  0  0  0  0  0  0  0
   14.5827   -3.4872   16.8504 H   0  0  0  0  0  0  0  0  0  0  0  0
   14.9633   -2.2958   18.0984 H   0  0  0  0  0  0  0  0  0  0  0  0
   13.2745   -2.7270   17.7539 H   0  0  0  0  0  0  0  0  0  0  0  0
   11.8716    1.5874   16.4020 H   0  0  0  0  0  0  0  0  0  0  0  0
   11.6984    1.1958   14.0139 H   0  0  0  0  0  0  0  0  0  0  0  0
   13.4103    1.2509   14.3922 H   0  0  0  0  0  0  0  0  0  0  0  0
   12.5945   -0.3025   14.0959 H   0  0  0  0  0  0  0  0  0  0  0  0
    9.7815    1.2108   14.8388 H   0  0  0  0  0  0  0  0  0  0  0  0
    8.3472    1.5459   15.7568 H   0  0  0  0  0  0  0  0  0  0  0  0
    9.3513   -1.2858   14.7480 H   0  0  0  0  0  0  0  0  0  0  0  0
    8.1651   -0.4639   13.8086 H   0  0  0  0  0  0  0  0  0  0  0  0
    7.6362   -2.0883   15.7795 H   0  0  0  0  0  0  0  0  0  0  0  0
    6.4888   -0.8496   15.8012 H   0  0  0  0  0  0  0  0  0  0  0  0
    8.6904   -1.1634   16.9541 H   0  0  0  0  0  0  0  0  0  0  0  0
    8.5439   -0.5179   19.9052 H   0  0  0  0  0  0  0  0  0  0  0  0
    8.0486   -1.4375   19.1641 H   0  0  0  0  0  0  0  0  0  0  0  0
    6.2334   -0.7685   18.3987 H   0  0  0  0  0  0  0  0  0  0  0  0
    6.9895   -0.3338   20.6002 H   0  0  0  0  0  0  0  0  0  0  0  0
    7.3138    1.1816   19.3162 H   0  0  0  0  0  0  0  0  0  0  0  0
    3.1801    2.2693   23.3229 H   0  0  0  0  0  0  0  0  0  0  0  0
    0.4491    3.5561   20.5043 H   0  0  0  0  0  0  0  0  0  0  0  0
    1.8437    1.8659   19.3861 H   0  0  0  0  0  0  0  0  0  0  0  0
  1  2  1  0
  2  3  1  0
  2  4  1  0
  4  5  1  0
  5  6  1  0
  5  7  1  0
  7  8  2  0
  7  9  1  0
  9 10  1  0
 10 11  1  0
 11 12  1  0
 12 13  1  0
 13 14  1  0
 14 15  1  0
 15 16  1  0
 15 17  1  0
 17 18  2  0
 17 19  1  0
 19 20  2  0
 20 21  1  0
 21 22  2  0
 22 23  1  0
 13  9  1  0
 23 19  1  0
  1 24  1  0
  1 25  1  0
  1 26  1  0
  2 27  1  0
  3 28  1  0
  3 29  1  0
  3 30  1  0
  5 31  1  0
  6 32  1  0
  6 33  1  0
  6 34  1  0
 10 35  1  0
 10 36  1  0
 11 37  1  0
 11 38  1  0
 12 39  1  0
 12 40  1  0
 13 41  1  0
 14 42  1  0
 14 43  1  0
 16 44  1  0
 16 45  1  0
 16 46  1  0
 20 47  1  0
 22 48  1  0
 23 49  1  0
M  END
>  <Energy>  (1423) 
1316.5815110950091

>  <compound_id>  (1423) 
10754

>  <target_id>  (1423) 
1

>  <reference_id>  (1423) 
80

>  <inspiration_ids>  (1423) 
[53, 80]

>  <energy_score>  (1423) 
1234.0232693217906

>  <distance_score>  (1423) 
7.450831088556398

>  <path>  (1423) 
/opt/xchem-fragalysis-2/maxwin/BulkDock/SCRATCH/511013/C10754-P80/C10754-P80.minimised.mol

>  <scratch_subdir>  (1423) 
/opt/xchem-fragalysis-2/maxwin/BulkDock/SCRATCH/511013/C10754-P80

>  <fragmenstein_runtime>  (1423) 
12.626736879348755

>  <fragmenstein_outcome>  (1423) 
too moved

>  <fragmenstein_mode>  (1423) 
expansion

>  <fragmenstein_error>  (1423) 


$$$$
C10755-P53
     RDKit          3D

 47 48  0  0  0  0  0  0  0  0999 V2000
    4.9561    2.3687   28.2962 C   0  0  0  0  0  0  0  0  0  0  0  0
    3.9940    1.5263   27.4529 C   0  0  0  0  0  0  0  0  0  0  0  0
    2.5768    2.1146   27.6621 C   0  0  0  0  0  0  0  0  0  0  0  0
    4.1482    0.0670   27.7792 N   0  0  0  0  0  0  0  0  0  0  0  0
    2.9913   -0.6805   27.2884 C   0  0  0  0  0  0  0  0  0  0  0  0
    5.4780   -0.4820   27.2581 C   0  0  0  0  0  0  0  0  0  0  0  0
    5.6998   -2.0701   27.3336 C   0  0  0  0  0  0  0  0  0  0  0  0
    5.1563   -2.7027   28.1977 O   0  0  0  0  0  0  0  0  0  0  0  0
    6.5179   -2.5138   26.1916 N   0  0  0  0  0  0  0  0  0  0  0  0
    6.8458   -3.8927   25.6921 C   0  0  0  0  0  0  0  0  0  0  0  0
    6.0008   -4.3748   24.0536 C   0  0  0  0  0  0  0  0  0  0  0  0
    4.7867   -4.4850   24.9924 C   0  0  0  0  0  0  0  0  0  0  0  0
    4.2821   -3.1124   24.8217 C   0  0  0  0  0  0  0  0  0  0  0  0
    5.0467   -2.2052   23.7405 C   0  0  0  0  0  0  0  0  0  0  0  0
    6.3649   -2.9645   22.8168 N   0  0  0  0  0  0  0  0  0  0  0  0
    6.0617   -2.7677   20.9010 C   0  0  0  0  0  0  0  0  0  0  0  0
    5.4772   -3.4928   20.1102 O   0  0  0  0  0  0  0  0  0  0  0  0
    7.0175   -1.1795   20.1257 C   0  0  0  0  0  0  0  0  0  0  0  0
    6.8449    0.1377   19.8866 C   0  0  0  0  0  0  0  0  0  0  0  0
    7.7554    1.1445   19.6469 N   0  0  0  0  0  0  0  0  0  0  0  0
    8.3117    0.5211   18.7055 C   0  0  0  0  0  0  0  0  0  0  0  0
    8.0095   -0.7444   19.0388 N   0  0  0  0  0  0  0  0  0  0  0  0
    4.7841    2.2153   29.3675 H   0  0  0  0  0  0  0  0  0  0  0  0
    6.0021    2.1300   28.0818 H   0  0  0  0  0  0  0  0  0  0  0  0
    4.8304    3.4368   28.0859 H   0  0  0  0  0  0  0  0  0  0  0  0
    4.2386    1.6783   26.3927 H   0  0  0  0  0  0  0  0  0  0  0  0
    2.5795    3.1986   27.5011 H   0  0  0  0  0  0  0  0  0  0  0  0
    1.8568    1.6971   26.9511 H   0  0  0  0  0  0  0  0  0  0  0  0
    2.2170    1.9282   28.6799 H   0  0  0  0  0  0  0  0  0  0  0  0
    3.0542   -1.7436   27.5287 H   0  0  0  0  0  0  0  0  0  0  0  0
    2.0645   -0.3594   27.7745 H   0  0  0  0  0  0  0  0  0  0  0  0
    2.8880   -0.5611   26.2082 H   0  0  0  0  0  0  0  0  0  0  0  0
    6.2936   -0.0504   27.8475 H   0  0  0  0  0  0  0  0  0  0  0  0
    5.5932   -0.1644   26.2172 H   0  0  0  0  0  0  0  0  0  0  0  0
    6.8867   -1.7018   25.7118 H   0  0  0  0  0  0  0  0  0  0  0  0
    6.5676   -4.6159   26.4732 H   0  0  0  0  0  0  0  0  0  0  0  0
    7.9317   -4.0257   25.7802 H   0  0  0  0  0  0  0  0  0  0  0  0
    6.5152   -5.2983   23.7535 H   0  0  0  0  0  0  0  0  0  0  0  0
    4.8598   -4.7194   26.0580 H   0  0  0  0  0  0  0  0  0  0  0  0
    4.1182   -5.3108   24.7478 H   0  0  0  0  0  0  0  0  0  0  0  0
    3.3838   -3.4695   24.3538 H   0  0  0  0  0  0  0  0  0  0  0  0
    4.0125   -2.5952   25.7327 H   0  0  0  0  0  0  0  0  0  0  0  0
    5.3456   -1.3041   24.2806 H   0  0  0  0  0  0  0  0  0  0  0  0
    4.3568   -1.8884   22.9933 H   0  0  0  0  0  0  0  0  0  0  0  0
    5.8457    0.2543   20.3222 H   0  0  0  0  0  0  0  0  0  0  0  0
    8.9477    0.8883   17.9117 H   0  0  0  0  0  0  0  0  0  0  0  0
    8.6170   -1.4266   18.7291 H   0  0  0  0  0  0  0  0  0  0  0  0
  1  2  1  0
  2  3  1  0
  2  4  1  0
  4  5  1  0
  4  6  1  0
  6  7  1  0
  7  8  2  0
  7  9  1  0
  9 10  1  0
 10 11  1  0
 11 12  1  0
 12 13  1  0
 13 14  1  0
 14 15  1  0
 15 16  1  0
 16 17  2  0
 16 18  1  0
 18 19  2  0
 19 20  1  0
 20 21  2  0
 21 22  1  0
 15 11  1  0
 22 18  1  0
  1 23  1  0
  1 24  1  0
  1 25  1  0
  2 26  1  0
  3 27  1  0
  3 28  1  0
  3 29  1  0
  5 30  1  0
  5 31  1  0
  5 32  1  0
  6 33  1  0
  6 34  1  0
  9 35  1  0
 10 36  1  0
 10 37  1  0
 11 38  1  0
 12 39  1  0
 12 40  1  0
 13 41  1  0
 13 42  1  0
 14 43  1  0
 14 44  1  0
 19 45  1  0
 21 46  1  0
 22 47  1  0
M  END
>  <Energy>  (1424) 
544.66994388700448

>  <compound_id>  (1424) 
10755

>  <target_id>  (1424) 
1

>  <reference_id>  (1424) 
53

>  <inspiration_ids>  (1424) 
[53, 80]

>  <energy_score>  (1424) 
462.8991875535735

>  <distance_score>  (1424) 
6.646990721756849

>  <path>  (1424) 
/opt/xchem-fragalysis-2/maxwin/BulkDock/SCRATCH/511013/C10755-P53/C10755-P53.minimised.mol

>  <scratch_subdir>  (1424) 
/opt/xchem-fragalysis-2/maxwin/BulkDock/SCRATCH/511013/C10755-P53

>  <fragmenstein_runtime>  (1424) 
9.456547021865845

>  <fragmenstein_outcome>  (1424) 
too moved

>  <fragmenstein_mode>  (1424) 
expansion

>  <fragmenstein_error>  (1424) 


$$$$
C10755-P80
     RDKit          3D

 47 48  0  0  0  0  0  0  0  0999 V2000
    1.7088    5.2198   25.6812 C   0  0  0  0  0  0  0  0  0  0  0  0
    1.4458    4.1016   24.6615 C   0  0  0  0  0  0  0  0  0  0  0  0
   -0.0232    3.6688   24.7601 C   0  0  0  0  0  0  0  0  0  0  0  0
    2.4286    3.0060   24.8076 N   0  0  0  0  0  0  0  0  0  0  0  0
    2.3828    2.3304   26.1028 C   0  0  0  0  0  0  0  0  0  0  0  0
    2.5305    2.0334   23.5519 C   0  0  0  0  0  0  0  0  0  0  0  0
    3.7605    2.2598   22.8079 C   0  0  0  0  0  0  0  0  0  0  0  0
    3.9803    3.4875   22.7409 O   0  0  0  0  0  0  0  0  0  0  0  0
    5.0615    0.9544   22.1382 N   0  0  0  0  0  0  0  0  0  0  0  0
    6.9838    1.2040   21.3897 C   0  0  0  0  0  0  0  0  0  0  0  0
    7.7132    0.1274   19.6739 C   0  0  0  0  0  0  0  0  0  0  0  0
    6.5442    0.0831   19.1983 C   0  0  0  0  0  0  0  0  0  0  0  0
    7.2097    1.8654   18.8393 C   0  0  0  0  0  0  0  0  0  0  0  0
    8.2426    1.7100   17.9778 C   0  0  0  0  0  0  0  0  0  0  0  0
    8.1270    0.3891   17.6151 N   0  0  0  0  0  0  0  0  0  0  0  0
    9.3286   -0.0025   16.7808 C   0  0  0  0  0  0  0  0  0  0  0  0
   10.3751   -0.4724   17.1045 O   0  0  0  0  0  0  0  0  0  0  0  0
    9.3493    0.3049   15.3924 C   0  0  0  0  0  0  0  0  0  0  0  0
   10.1237   -0.3964   14.4807 C   0  0  0  0  0  0  0  0  0  0  0  0
   10.7824    0.4139   13.5796 N   0  0  0  0  0  0  0  0  0  0  0  0
   10.5764    1.6250   14.0128 C   0  0  0  0  0  0  0  0  0  0  0  0
    9.7211    1.6196   15.0753 N   0  0  0  0  0  0  0  0  0  0  0  0
    1.4495    4.9235   26.7027 H   0  0  0  0  0  0  0  0  0  0  0  0
    2.7607    5.5262   25.6648 H   0  0  0  0  0  0  0  0  0  0  0  0
    1.1082    6.1033   25.4366 H   0  0  0  0  0  0  0  0  0  0  0  0
    1.5957    4.5590   23.6750 H   0  0  0  0  0  0  0  0  0  0  0  0
   -0.6831    4.5213   24.5631 H   0  0  0  0  0  0  0  0  0  0  0  0
   -0.2649    2.8982   24.0229 H   0  0  0  0  0  0  0  0  0  0  0  0
   -0.2756    3.2842   25.7533 H   0  0  0  0  0  0  0  0  0  0  0  0
    3.1511    1.5518   26.1670 H   0  0  0  0  0  0  0  0  0  0  0  0
    2.6106    3.0242   26.9180 H   0  0  0  0  0  0  0  0  0  0  0  0
    1.4129    1.8724   26.3103 H   0  0  0  0  0  0  0  0  0  0  0  0
    1.8274    2.5406   22.8842 H   0  0  0  0  0  0  0  0  0  0  0  0
    2.5234    1.1529   24.1341 H   0  0  0  0  0  0  0  0  0  0  0  0
    4.6592    0.0229   22.2092 H   0  0  0  0  0  0  0  0  0  0  0  0
    6.9081    2.3290   21.3111 H   0  0  0  0  0  0  0  0  0  0  0  0
    7.9422    1.5682   21.8490 H   0  0  0  0  0  0  0  0  0  0  0  0
    8.1618   -0.7967   19.8971 H   0  0  0  0  0  0  0  0  0  0  0  0
    6.5010   -0.6925   18.4277 H   0  0  0  0  0  0  0  0  0  0  0  0
    6.5362   -0.2814   20.2398 H   0  0  0  0  0  0  0  0  0  0  0  0
    6.6663    2.6655   18.2445 H   0  0  0  0  0  0  0  0  0  0  0  0
    7.4217    2.2155   19.7645 H   0  0  0  0  0  0  0  0  0  0  0  0
    9.2333    2.1525   17.8608 H   0  0  0  0  0  0  0  0  0  0  0  0
    7.9318    2.2188   17.0379 H   0  0  0  0  0  0  0  0  0  0  0  0
   10.3815   -1.4473   14.5572 H   0  0  0  0  0  0  0  0  0  0  0  0
   11.0089    2.5322   13.6124 H   0  0  0  0  0  0  0  0  0  0  0  0
    9.5171    2.4333   15.6349 H   0  0  0  0  0  0  0  0  0  0  0  0
  1  2  1  0
  2  3  1  0
  2  4  1  0
  4  5  1  0
  4  6  1  0
  6  7  1  0
  7  8  2  0
  7  9  1  0
  9 10  1  0
 10 11  1  0
 11 12  1  0
 12 13  1  0
 13 14  1  0
 14 15  1  0
 15 16  1  0
 16 17  2  0
 16 18  1  0
 18 19  2  0
 19 20  1  0
 20 21  2  0
 21 22  1  0
 15 11  1  0
 22 18  1  0
  1 23  1  0
  1 24  1  0
  1 25  1  0
  2 26  1  0
  3 27  1  0
  3 28  1  0
  3 29  1  0
  5 30  1  0
  5 31  1  0
  5 32  1  0
  6 33  1  0
  6 34  1  0
  9 35  1  0
 10 36  1  0
 10 37  1  0
 11 38  1  0
 12 39  1  0
 12 40  1  0
 13 41  1  0
 13 42  1  0
 14 43  1  0
 14 44  1  0
 19 45  1  0
 21 46  1  0
 22 47  1  0
M  END
>  <Energy>  (1425) 
867.82652933277609

>  <compound_id>  (1425) 
10755

>  <target_id>  (1425) 
1

>  <reference_id>  (1425) 
80

>  <inspiration_ids>  (1425) 
[53, 80]

>  <energy_score>  (1425) 
786.0557729993491

>  <distance_score>  (1425) 
4.67365392566079

>  <path>  (1425) 
/opt/xchem-fragalysis-2/maxwin/BulkDock/SCRATCH/511013/C10755-P80/C10755-P80.minimised.mol

>  <scratch_subdir>  (1425) 
/opt/xchem-fragalysis-2/maxwin/BulkDock/SCRATCH/511013/C10755-P80

>  <fragmenstein_runtime>  (1425) 
11.135184288024902

>  <fragmenstein_outcome>  (1425) 
too moved

>  <fragmenstein_mode>  (1425) 
expansion

>  <fragmenstein_error>  (1425) 


$$$$
C10756-P53
     RDKit          3D

 50 51  0  0  0  0  0  0  0  0999 V2000
    3.8287   -1.4604   27.5360 C   0  0  0  0  0  0  0  0  0  0  0  0
    2.6011   -1.7516   28.4041 C   0  0  0  0  0  0  0  0  0  0  0  0
    1.6372   -0.5467   28.2344 C   0  0  0  0  0  0  0  0  0  0  0  0
    1.9964   -3.0826   28.0968 N   0  0  0  0  0  0  0  0  0  0  0  0
    0.6717   -3.2068   28.7129 C   0  0  0  0  0  0  0  0  0  0  0  0
    2.8560   -4.3066   28.3918 C   0  0  0  0  0  0  0  0  0  0  0  0
    3.1894   -5.1623   27.0712 C   0  0  0  0  0  0  0  0  0  0  0  0
    2.5051   -4.9713   26.1088 O   0  0  0  0  0  0  0  0  0  0  0  0
    4.3728   -5.9919   27.2408 N   0  0  0  0  0  0  0  0  0  0  0  0
    5.1717   -6.7909   26.2386 C   0  0  0  0  0  0  0  0  0  0  0  0
    5.6651   -5.7519   25.1680 C   0  0  0  0  0  0  0  0  0  0  0  0
    6.0133   -4.4120   25.8857 C   0  0  0  0  0  0  0  0  0  0  0  0
    7.3951   -4.7354   26.2895 C   0  0  0  0  0  0  0  0  0  0  0  0
    7.7430   -5.7259   25.1884 C   0  0  0  0  0  0  0  0  0  0  0  0
    6.6238   -5.7662   23.9373 N   0  0  0  0  0  0  0  0  0  0  0  0
    6.9666   -4.5739   22.7198 C   0  0  0  0  0  0  0  0  0  0  0  0
    6.4443   -3.4836   22.8729 O   0  0  0  0  0  0  0  0  0  0  0  0
    7.9584   -4.6001   20.8744 C   0  0  0  0  0  0  0  0  0  0  0  0
    9.9685   -5.2821   20.5529 C   0  0  0  0  0  0  0  0  0  0  0  0
   10.8295   -6.5091   20.8470 C   0  0  0  0  0  0  0  0  0  0  0  0
   12.1907   -6.4130   21.0392 N   0  0  0  0  0  0  0  0  0  0  0  0
   12.4506   -5.1535   21.0443 C   0  0  0  0  0  0  0  0  0  0  0  0
   11.2940   -4.4863   21.1936 N   0  0  0  0  0  0  0  0  0  0  0  0
    4.6229   -2.1910   27.7083 H   0  0  0  0  0  0  0  0  0  0  0  0
    4.2520   -0.4778   27.7736 H   0  0  0  0  0  0  0  0  0  0  0  0
    3.5844   -1.4677   26.4707 H   0  0  0  0  0  0  0  0  0  0  0  0
    2.9228   -1.7570   29.4542 H   0  0  0  0  0  0  0  0  0  0  0  0
    2.1691    0.3994   28.3858 H   0  0  0  0  0  0  0  0  0  0  0  0
    0.8289   -0.5710   28.9720 H   0  0  0  0  0  0  0  0  0  0  0  0
    1.1963   -0.5265   27.2339 H   0  0  0  0  0  0  0  0  0  0  0  0
   -0.0501   -2.5204   28.2596 H   0  0  0  0  0  0  0  0  0  0  0  0
    0.2567   -4.2039   28.5644 H   0  0  0  0  0  0  0  0  0  0  0  0
    0.7117   -3.0278   29.7932 H   0  0  0  0  0  0  0  0  0  0  0  0
    2.3545   -4.9844   29.0926 H   0  0  0  0  0  0  0  0  0  0  0  0
    3.7997   -3.9983   28.8540 H   0  0  0  0  0  0  0  0  0  0  0  0
    4.7452   -5.8505   28.1723 H   0  0  0  0  0  0  0  0  0  0  0  0
    5.9801   -7.2871   26.7789 H   0  0  0  0  0  0  0  0  0  0  0  0
    4.5106   -7.5315   25.7798 H   0  0  0  0  0  0  0  0  0  0  0  0
    4.7196   -5.5253   24.6849 H   0  0  0  0  0  0  0  0  0  0  0  0
    5.4341   -4.0910   26.7460 H   0  0  0  0  0  0  0  0  0  0  0  0
    5.9664   -3.5624   25.2010 H   0  0  0  0  0  0  0  0  0  0  0  0
    7.4541   -5.2181   27.2713 H   0  0  0  0  0  0  0  0  0  0  0  0
    8.0387   -3.8519   26.3232 H   0  0  0  0  0  0  0  0  0  0  0  0
    7.7407   -6.7616   25.5662 H   0  0  0  0  0  0  0  0  0  0  0  0
    8.8150   -5.5649   25.0169 H   0  0  0  0  0  0  0  0  0  0  0  0
    7.3087   -4.7392   19.9656 H   0  0  0  0  0  0  0  0  0  0  0  0
    7.9377   -3.5280   20.8486 H   0  0  0  0  0  0  0  0  0  0  0  0
   10.4856   -7.5388   20.8591 H   0  0  0  0  0  0  0  0  0  0  0  0
   13.4244   -4.6857   21.0789 H   0  0  0  0  0  0  0  0  0  0  0  0
   11.2309   -3.5019   21.3620 H   0  0  0  0  0  0  0  0  0  0  0  0
  1  2  1  0
  2  3  1  0
  2  4  1  0
  4  5  1  0
  4  6  1  0
  6  7  1  0
  7  8  2  0
  7  9  1  0
  9 10  1  0
 10 11  1  0
 11 12  1  0
 12 13  1  0
 13 14  1  0
 14 15  1  0
 15 16  1  0
 16 17  2  0
 16 18  1  0
 18 19  1  0
 19 20  2  0
 20 21  1  0
 21 22  2  0
 22 23  1  0
 15 11  1  0
 23 19  1  0
  1 24  1  0
  1 25  1  0
  1 26  1  0
  2 27  1  0
  3 28  1  0
  3 29  1  0
  3 30  1  0
  5 31  1  0
  5 32  1  0
  5 33  1  0
  6 34  1  0
  6 35  1  0
  9 36  1  0
 10 37  1  0
 10 38  1  0
 11 39  1  0
 12 40  1  0
 12 41  1  0
 13 42  1  0
 13 43  1  0
 14 44  1  0
 14 45  1  0
 18 46  1  0
 18 47  1  0
 20 48  1  0
 22 49  1  0
 23 50  1  0
M  END
>  <Energy>  (1426) 
512.39435759158971

>  <compound_id>  (1426) 
10756

>  <target_id>  (1426) 
1

>  <reference_id>  (1426) 
53

>  <inspiration_ids>  (1426) 
[53, 80]

>  <energy_score>  (1426) 
401.5371367058624

>  <distance_score>  (1426) 
7.077845165144806

>  <path>  (1426) 
/opt/xchem-fragalysis-2/maxwin/BulkDock/SCRATCH/511013/C10756-P53/C10756-P53.minimised.mol

>  <scratch_subdir>  (1426) 
/opt/xchem-fragalysis-2/maxwin/BulkDock/SCRATCH/511013/C10756-P53

>  <fragmenstein_runtime>  (1426) 
14.182449579238892

>  <fragmenstein_outcome>  (1426) 
too moved

>  <fragmenstein_mode>  (1426) 
expansion

>  <fragmenstein_error>  (1426) 


$$$$
C10756-P80
     RDKit          3D

 50 51  0  0  0  0  0  0  0  0999 V2000
    2.7571    3.8442   27.8841 C   0  0  0  0  0  0  0  0  0  0  0  0
    1.6814    2.7808   27.6434 C   0  0  0  0  0  0  0  0  0  0  0  0
    0.8312    3.1766   26.4269 C   0  0  0  0  0  0  0  0  0  0  0  0
    2.2592    1.4163   27.6058 N   0  0  0  0  0  0  0  0  0  0  0  0
    1.2296    0.3978   27.7806 C   0  0  0  0  0  0  0  0  0  0  0  0
    3.2388    1.1632   26.5088 C   0  0  0  0  0  0  0  0  0  0  0  0
    3.9587   -0.2479   26.5071 C   0  0  0  0  0  0  0  0  0  0  0  0
    4.1101   -0.8337   27.5440 O   0  0  0  0  0  0  0  0  0  0  0  0
    4.4108   -0.5715   25.1561 N   0  0  0  0  0  0  0  0  0  0  0  0
    5.1080   -1.7623   24.6265 C   0  0  0  0  0  0  0  0  0  0  0  0
    4.7567   -2.1573   22.9684 C   0  0  0  0  0  0  0  0  0  0  0  0
    3.3904   -2.8010   23.4281 C   0  0  0  0  0  0  0  0  0  0  0  0
    2.9526   -3.5581   22.2302 C   0  0  0  0  0  0  0  0  0  0  0  0
    4.6596   -3.5307   21.0808 C   0  0  0  0  0  0  0  0  0  0  0  0
    5.9177   -2.6602   21.4806 N   0  0  0  0  0  0  0  0  0  0  0  0
    7.5457   -3.7305   21.4269 C   0  0  0  0  0  0  0  0  0  0  0  0
    7.7450   -4.2111   22.4907 O   0  0  0  0  0  0  0  0  0  0  0  0
    8.8736   -4.3968   20.1301 C   0  0  0  0  0  0  0  0  0  0  0  0
   10.8228   -5.1018   20.5390 C   0  0  0  0  0  0  0  0  0  0  0  0
   12.1240   -5.2488   19.8054 C   0  0  0  0  0  0  0  0  0  0  0  0
   13.2271   -5.5522   20.5499 N   0  0  0  0  0  0  0  0  0  0  0  0
   13.0145   -4.8272   21.6011 C   0  0  0  0  0  0  0  0  0  0  0  0
   11.8180   -4.1981   21.4504 N   0  0  0  0  0  0  0  0  0  0  0  0
    3.3890    3.5781   28.7386 H   0  0  0  0  0  0  0  0  0  0  0  0
    2.2938    4.8114   28.1099 H   0  0  0  0  0  0  0  0  0  0  0  0
    3.4006    3.9865   27.0097 H   0  0  0  0  0  0  0  0  0  0  0  0
    1.0244    2.8294   28.5229 H   0  0  0  0  0  0  0  0  0  0  0  0
    1.4228    3.1990   25.5062 H   0  0  0  0  0  0  0  0  0  0  0  0
    0.4072    4.1771   26.5688 H   0  0  0  0  0  0  0  0  0  0  0  0
   -0.0085    2.4920   26.2775 H   0  0  0  0  0  0  0  0  0  0  0  0
    0.4378    0.4534   27.0329 H   0  0  0  0  0  0  0  0  0  0  0  0
    1.6349   -0.6174   27.7692 H   0  0  0  0  0  0  0  0  0  0  0  0
    0.7552    0.5160   28.7621 H   0  0  0  0  0  0  0  0  0  0  0  0
    2.7881    1.3607   25.5357 H   0  0  0  0  0  0  0  0  0  0  0  0
    4.0654    1.8717   26.6335 H   0  0  0  0  0  0  0  0  0  0  0  0
    4.0279    0.1105   24.5032 H   0  0  0  0  0  0  0  0  0  0  0  0
    6.1035   -1.7868   25.0164 H   0  0  0  0  0  0  0  0  0  0  0  0
    4.6595   -2.5071   25.2771 H   0  0  0  0  0  0  0  0  0  0  0  0
    4.7121   -1.1494   22.6073 H   0  0  0  0  0  0  0  0  0  0  0  0
    2.7580   -2.0218   23.7609 H   0  0  0  0  0  0  0  0  0  0  0  0
    3.4273   -3.3574   24.3614 H   0  0  0  0  0  0  0  0  0  0  0  0
    1.9679   -3.1498   21.9792 H   0  0  0  0  0  0  0  0  0  0  0  0
    2.2987   -4.4502   22.1932 H   0  0  0  0  0  0  0  0  0  0  0  0
    4.9513   -3.0045   20.1866 H   0  0  0  0  0  0  0  0  0  0  0  0
    4.6043   -4.3255   20.2891 H   0  0  0  0  0  0  0  0  0  0  0  0
    9.3504   -5.3253   19.7569 H   0  0  0  0  0  0  0  0  0  0  0  0
    7.8763   -4.8909   20.0621 H   0  0  0  0  0  0  0  0  0  0  0  0
   12.3061   -4.9599   18.7725 H   0  0  0  0  0  0  0  0  0  0  0  0
   13.6767   -4.6592   22.4388 H   0  0  0  0  0  0  0  0  0  0  0  0
   11.4397   -3.5279   22.0985 H   0  0  0  0  0  0  0  0  0  0  0  0
  1  2  1  0
  2  3  1  0
  2  4  1  0
  4  5  1  0
  4  6  1  0
  6  7  1  0
  7  8  2  0
  7  9  1  0
  9 10  1  0
 10 11  1  0
 11 12  1  0
 12 13  1  0
 13 14  1  0
 14 15  1  0
 15 16  1  0
 16 17  2  0
 16 18  1  0
 18 19  1  0
 19 20  2  0
 20 21  1  0
 21 22  2  0
 22 23  1  0
 15 11  1  0
 23 19  1  0
  1 24  1  0
  1 25  1  0
  1 26  1  0
  2 27  1  0
  3 28  1  0
  3 29  1  0
  3 30  1  0
  5 31  1  0
  5 32  1  0
  5 33  1  0
  6 34  1  0
  6 35  1  0
  9 36  1  0
 10 37  1  0
 10 38  1  0
 11 39  1  0
 12 40  1  0
 12 41  1  0
 13 42  1  0
 13 43  1  0
 14 44  1  0
 14 45  1  0
 18 46  1  0
 18 47  1  0
 20 48  1  0
 22 49  1  0
 23 50  1  0
M  END
>  <Energy>  (1427) 
854.07647914213544

>  <compound_id>  (1427) 
10756

>  <target_id>  (1427) 
1

>  <reference_id>  (1427) 
80

>  <inspiration_ids>  (1427) 
[53, 80]

>  <energy_score>  (1427) 
743.2192582564137

>  <distance_score>  (1427) 
5.327353540075933

>  <path>  (1427) 
/opt/xchem-fragalysis-2/maxwin/BulkDock/SCRATCH/511013/C10756-P80/C10756-P80.minimised.mol

>  <scratch_subdir>  (1427) 
/opt/xchem-fragalysis-2/maxwin/BulkDock/SCRATCH/511013/C10756-P80

>  <fragmenstein_runtime>  (1427) 
10.491215467453003

>  <fragmenstein_outcome>  (1427) 
too moved

>  <fragmenstein_mode>  (1427) 
expansion

>  <fragmenstein_error>  (1427) 


$$$$
C10757-P53
     RDKit          3D

 51 52  0  0  0  0  0  0  0  0999 V2000
    8.2693   -4.1396   28.6419 C   0  0  0  0  0  0  0  0  0  0  0  0
    7.1242   -5.0902   28.2812 C   0  0  0  0  0  0  0  0  0  0  0  0
    6.1047   -5.1278   29.4245 C   0  0  0  0  0  0  0  0  0  0  0  0
    7.5923   -6.5170   27.8714 C   0  0  0  0  0  0  0  0  0  0  0  0
    8.3380   -7.2564   28.9906 C   0  0  0  0  0  0  0  0  0  0  0  0
    8.4592   -6.4681   26.5950 C   0  0  0  0  0  0  0  0  0  0  0  0
    8.5106   -7.7910   25.8155 C   0  0  0  0  0  0  0  0  0  0  0  0
    7.8662   -8.7375   26.1580 O   0  0  0  0  0  0  0  0  0  0  0  0
    9.3668   -7.6015   24.6761 N   0  0  0  0  0  0  0  0  0  0  0  0
    9.7881   -8.5193   23.6478 C   0  0  0  0  0  0  0  0  0  0  0  0
    9.7373   -7.8866   22.2581 C   0  0  0  0  0  0  0  0  0  0  0  0
    8.3723   -7.9130   21.5419 C   0  0  0  0  0  0  0  0  0  0  0  0
    7.2043   -7.4707   22.3167 C   0  0  0  0  0  0  0  0  0  0  0  0
    7.5480   -6.0235   22.1565 C   0  0  0  0  0  0  0  0  0  0  0  0
    7.9836   -5.4043   20.7123 N   0  0  0  0  0  0  0  0  0  0  0  0
    7.0687   -4.7629   19.5185 C   0  0  0  0  0  0  0  0  0  0  0  0
    5.8740   -4.6857   19.3997 O   0  0  0  0  0  0  0  0  0  0  0  0
    7.7123   -4.0637   18.4456 C   0  0  0  0  0  0  0  0  0  0  0  0
    8.0792   -4.1861   16.3833 C   0  0  0  0  0  0  0  0  0  0  0  0
    8.2487   -2.4785   15.6465 N   0  0  0  0  0  0  0  0  0  0  0  0
    8.8254   -1.4241   16.5812 C   0  0  0  0  0  0  0  0  0  0  0  0
    8.6034   -1.9980   18.4691 N   0  0  0  0  0  0  0  0  0  0  0  0
    8.2748   -6.8524   20.4308 C   0  0  0  0  0  0  0  0  0  0  0  0
    8.8110   -4.4753   29.5317 H   0  0  0  0  0  0  0  0  0  0  0  0
    8.9846   -4.0430   27.8197 H   0  0  0  0  0  0  0  0  0  0  0  0
    7.8807   -3.1370   28.8526 H   0  0  0  0  0  0  0  0  0  0  0  0
    6.6050   -4.6579   27.4145 H   0  0  0  0  0  0  0  0  0  0  0  0
    6.5606   -5.4419   30.3686 H   0  0  0  0  0  0  0  0  0  0  0  0
    5.6717   -4.1340   29.5835 H   0  0  0  0  0  0  0  0  0  0  0  0
    5.2828   -5.8134   29.1936 H   0  0  0  0  0  0  0  0  0  0  0  0
    6.6849   -7.0949   27.6490 H   0  0  0  0  0  0  0  0  0  0  0  0
    8.6067   -8.2711   28.6793 H   0  0  0  0  0  0  0  0  0  0  0  0
    9.2647   -6.7443   29.2675 H   0  0  0  0  0  0  0  0  0  0  0  0
    7.7194   -7.3526   29.8875 H   0  0  0  0  0  0  0  0  0  0  0  0
    9.4847   -6.1712   26.8464 H   0  0  0  0  0  0  0  0  0  0  0  0
    8.0468   -5.7208   25.9052 H   0  0  0  0  0  0  0  0  0  0  0  0
    9.8198   -6.6958   24.7495 H   0  0  0  0  0  0  0  0  0  0  0  0
   10.8212   -8.7915   23.8889 H   0  0  0  0  0  0  0  0  0  0  0  0
    9.1809   -9.4285   23.7023 H   0  0  0  0  0  0  0  0  0  0  0  0
   10.4200   -8.4640   21.6191 H   0  0  0  0  0  0  0  0  0  0  0  0
   10.1839   -6.8846   22.2852 H   0  0  0  0  0  0  0  0  0  0  0  0
    8.2220   -8.9198   21.1341 H   0  0  0  0  0  0  0  0  0  0  0  0
    7.1751   -7.8007   23.3543 H   0  0  0  0  0  0  0  0  0  0  0  0
    6.2808   -7.8108   21.8557 H   0  0  0  0  0  0  0  0  0  0  0  0
    6.9447   -5.3874   22.7990 H   0  0  0  0  0  0  0  0  0  0  0  0
    8.4758   -5.8866   22.7281 H   0  0  0  0  0  0  0  0  0  0  0  0
    7.8033   -5.0386   15.6975 H   0  0  0  0  0  0  0  0  0  0  0  0
    8.8151   -0.3306   16.5363 H   0  0  0  0  0  0  0  0  0  0  0  0
    9.2869   -2.0307   17.7842 H   0  0  0  0  0  0  0  0  0  0  0  0
    7.5311   -7.2166   19.7199 H   0  0  0  0  0  0  0  0  0  0  0  0
    9.2484   -6.8049   19.9855 H   0  0  0  0  0  0  0  0  0  0  0  0
  1  2  1  0
  2  3  1  0
  2  4  1  0
  4  5  1  0
  4  6  1  0
  6  7  1  0
  7  8  2  0
  7  9  1  0
  9 10  1  0
 10 11  1  0
 11 12  1  0
 12 13  1  0
 13 14  1  0
 14 15  1  0
 15 16  1  0
 16 17  2  0
 16 18  1  0
 18 19  2  0
 19 20  1  0
 20 21  2  0
 21 22  1  0
 15 23  1  0
 23 12  1  0
 22 18  1  0
  1 24  1  0
  1 25  1  0
  1 26  1  0
  2 27  1  0
  3 28  1  0
  3 29  1  0
  3 30  1  0
  4 31  1  0
  5 32  1  0
  5 33  1  0
  5 34  1  0
  6 35  1  0
  6 36  1  0
  9 37  1  0
 10 38  1  0
 10 39  1  0
 11 40  1  0
 11 41  1  0
 12 42  1  0
 13 43  1  0
 13 44  1  0
 14 45  1  0
 14 46  1  0
 19 47  1  0
 21 48  1  0
 22 49  1  0
 23 50  1  0
 23 51  1  0
M  END
>  <Energy>  (1428) 
920.22818046273119

>  <compound_id>  (1428) 
10757

>  <target_id>  (1428) 
1

>  <reference_id>  (1428) 
53

>  <inspiration_ids>  (1428) 
[53, 80]

>  <energy_score>  (1428) 
898.3541364390439

>  <distance_score>  (1428) 
11.609249670247062

>  <path>  (1428) 
/opt/xchem-fragalysis-2/maxwin/BulkDock/SCRATCH/511013/C10757-P53/C10757-P53.minimised.mol

>  <scratch_subdir>  (1428) 
/opt/xchem-fragalysis-2/maxwin/BulkDock/SCRATCH/511013/C10757-P53

>  <fragmenstein_runtime>  (1428) 
14.712095737457275

>  <fragmenstein_outcome>  (1428) 
too moved

>  <fragmenstein_mode>  (1428) 
expansion

>  <fragmenstein_error>  (1428) 


$$$$
C10757-P80
     RDKit          3D

 51 52  0  0  0  0  0  0  0  0999 V2000
    5.6414    2.8492   29.3295 C   0  0  0  0  0  0  0  0  0  0  0  0
    6.4320    1.5492   29.5294 C   0  0  0  0  0  0  0  0  0  0  0  0
    7.7238    1.6410   28.7049 C   0  0  0  0  0  0  0  0  0  0  0  0
    5.5915    0.2863   29.1678 C   0  0  0  0  0  0  0  0  0  0  0  0
    6.4137   -1.0032   29.3276 C   0  0  0  0  0  0  0  0  0  0  0  0
    4.3003    0.1943   30.0132 C   0  0  0  0  0  0  0  0  0  0  0  0
    3.3997   -0.9865   29.6367 C   0  0  0  0  0  0  0  0  0  0  0  0
    3.3101   -1.9174   30.3834 O   0  0  0  0  0  0  0  0  0  0  0  0
    2.7966   -0.7505   28.3582 N   0  0  0  0  0  0  0  0  0  0  0  0
    1.9721   -1.5971   27.5301 C   0  0  0  0  0  0  0  0  0  0  0  0
    2.8078   -2.5041   26.6032 C   0  0  0  0  0  0  0  0  0  0  0  0
    3.2583   -1.8579   25.2462 C   0  0  0  0  0  0  0  0  0  0  0  0
    4.4461   -1.1753   25.6681 C   0  0  0  0  0  0  0  0  0  0  0  0
    4.7899   -1.1166   24.2478 C   0  0  0  0  0  0  0  0  0  0  0  0
    5.3577   -1.6330   23.0763 N   0  0  0  0  0  0  0  0  0  0  0  0
    5.8065   -0.8069   21.3723 C   0  0  0  0  0  0  0  0  0  0  0  0
    5.4034    0.3065   21.3865 O   0  0  0  0  0  0  0  0  0  0  0  0
    6.9141   -1.0350   19.7454 C   0  0  0  0  0  0  0  0  0  0  0  0
    6.2160   -0.9782   18.1793 C   0  0  0  0  0  0  0  0  0  0  0  0
    7.1062   -0.5626   16.9415 N   0  0  0  0  0  0  0  0  0  0  0  0
    8.0651   -0.0456   17.6756 C   0  0  0  0  0  0  0  0  0  0  0  0
    7.9558   -0.5113   19.1285 N   0  0  0  0  0  0  0  0  0  0  0  0
    3.8647   -2.5696   23.6154 C   0  0  0  0  0  0  0  0  0  0  0  0
    5.2282    2.9093   28.3170 H   0  0  0  0  0  0  0  0  0  0  0  0
    4.8185    2.9341   30.0448 H   0  0  0  0  0  0  0  0  0  0  0  0
    6.2814    3.7248   29.4853 H   0  0  0  0  0  0  0  0  0  0  0  0
    6.7169    1.4914   30.5881 H   0  0  0  0  0  0  0  0  0  0  0  0
    7.5124    1.5940   27.6313 H   0  0  0  0  0  0  0  0  0  0  0  0
    8.2501    2.5810   28.9046 H   0  0  0  0  0  0  0  0  0  0  0  0
    8.4185    0.8343   28.9564 H   0  0  0  0  0  0  0  0  0  0  0  0
    5.3175    0.3631   28.1097 H   0  0  0  0  0  0  0  0  0  0  0  0
    6.7913   -1.1055   30.3504 H   0  0  0  0  0  0  0  0  0  0  0  0
    7.2660   -1.0224   28.6421 H   0  0  0  0  0  0  0  0  0  0  0  0
    5.8187   -1.8920   29.0948 H   0  0  0  0  0  0  0  0  0  0  0  0
    4.5521    0.1051   31.0775 H   0  0  0  0  0  0  0  0  0  0  0  0
    3.6906    1.0989   29.9144 H   0  0  0  0  0  0  0  0  0  0  0  0
    3.1638    0.1111   27.9743 H   0  0  0  0  0  0  0  0  0  0  0  0
    1.3988   -2.2347   28.2125 H   0  0  0  0  0  0  0  0  0  0  0  0
    1.2729   -0.9529   27.0028 H   0  0  0  0  0  0  0  0  0  0  0  0
    2.2720   -3.4343   26.4719 H   0  0  0  0  0  0  0  0  0  0  0  0
    3.6798   -2.7608   27.2149 H   0  0  0  0  0  0  0  0  0  0  0  0
    2.5877   -1.0712   24.9853 H   0  0  0  0  0  0  0  0  0  0  0  0
    4.2537   -0.1844   26.0940 H   0  0  0  0  0  0  0  0  0  0  0  0
    5.1419   -1.6994   26.3345 H   0  0  0  0  0  0  0  0  0  0  0  0
    4.8559   -0.0710   24.1141 H   0  0  0  0  0  0  0  0  0  0  0  0
    5.7401   -1.4544   24.6529 H   0  0  0  0  0  0  0  0  0  0  0  0
    5.2221   -1.3579   17.9169 H   0  0  0  0  0  0  0  0  0  0  0  0
    8.8995    0.5445   17.3120 H   0  0  0  0  0  0  0  0  0  0  0  0
    8.8130   -0.7313   19.5691 H   0  0  0  0  0  0  0  0  0  0  0  0
    4.1221   -3.3467   24.3553 H   0  0  0  0  0  0  0  0  0  0  0  0
    2.9786   -2.7857   23.0314 H   0  0  0  0  0  0  0  0  0  0  0  0
  1  2  1  0
  2  3  1  0
  2  4  1  0
  4  5  1  0
  4  6  1  0
  6  7  1  0
  7  8  2  0
  7  9  1  0
  9 10  1  0
 10 11  1  0
 11 12  1  0
 12 13  1  0
 13 14  1  0
 14 15  1  0
 15 16  1  0
 16 17  2  0
 16 18  1  0
 18 19  2  0
 19 20  1  0
 20 21  2  0
 21 22  1  0
 15 23  1  0
 23 12  1  0
 22 18  1  0
  1 24  1  0
  1 25  1  0
  1 26  1  0
  2 27  1  0
  3 28  1  0
  3 29  1  0
  3 30  1  0
  4 31  1  0
  5 32  1  0
  5 33  1  0
  5 34  1  0
  6 35  1  0
  6 36  1  0
  9 37  1  0
 10 38  1  0
 10 39  1  0
 11 40  1  0
 11 41  1  0
 12 42  1  0
 13 43  1  0
 13 44  1  0
 14 45  1  0
 14 46  1  0
 19 47  1  0
 21 48  1  0
 22 49  1  0
 23 50  1  0
 23 51  1  0
M  END
>  <Energy>  (1429) 
585.1164560344032

>  <compound_id>  (1429) 
10757

>  <target_id>  (1429) 
1

>  <reference_id>  (1429) 
80

>  <inspiration_ids>  (1429) 
[53, 80]

>  <energy_score>  (1429) 
563.2424120107196

>  <distance_score>  (1429) 
6.180088914266638

>  <path>  (1429) 
/opt/xchem-fragalysis-2/maxwin/BulkDock/SCRATCH/511013/C10757-P80/C10757-P80.minimised.mol

>  <scratch_subdir>  (1429) 
/opt/xchem-fragalysis-2/maxwin/BulkDock/SCRATCH/511013/C10757-P80

>  <fragmenstein_runtime>  (1429) 
15.787146091461182

>  <fragmenstein_outcome>  (1429) 
too moved

>  <fragmenstein_mode>  (1429) 
expansion

>  <fragmenstein_error>  (1429) 


$$$$
C10758-P53
     RDKit          3D

 35 36  0  0  0  0  0  0  0  0999 V2000
   -0.6322    5.7179   24.4280 C   0  0  0  0  0  0  0  0  0  0  0  0
    0.7950    5.1998   24.2503 C   0  0  0  0  0  0  0  0  0  0  0  0
    1.7501    6.3576   23.9853 C   0  0  0  0  0  0  0  0  0  0  0  0
    0.8329    3.9701   22.9172 S   0  0  0  0  0  0  0  0  0  0  0  0
    0.5654    4.6592   21.6733 O   0  0  0  0  0  0  0  0  0  0  0  0
   -0.0333    2.8860   23.3452 O   0  0  0  0  0  0  0  0  0  0  0  0
    2.5209    3.3723   22.8671 C   0  0  0  0  0  0  0  0  0  0  0  0
    2.9529    2.8525   24.1684 C   0  0  0  0  0  0  0  0  0  0  0  0
    3.6450    1.5954   23.7338 C   0  0  0  0  0  0  0  0  0  0  0  0
    4.5137    1.5578   22.3848 N   0  0  0  0  0  0  0  0  0  0  0  0
    5.2054    0.1758   21.4676 C   0  0  0  0  0  0  0  0  0  0  0  0
    4.9706   -0.9480   21.7685 O   0  0  0  0  0  0  0  0  0  0  0  0
    6.6157    0.2132   20.0075 C   0  0  0  0  0  0  0  0  0  0  0  0
    7.1856   -0.1960   18.7711 C   0  0  0  0  0  0  0  0  0  0  0  0
    8.3890    0.2960   18.3007 N   0  0  0  0  0  0  0  0  0  0  0  0
    8.4896    1.4194   18.9298 C   0  0  0  0  0  0  0  0  0  0  0  0
    7.7149    1.3909   20.0302 N   0  0  0  0  0  0  0  0  0  0  0  0
    2.9388    2.2472   21.8799 C   0  0  0  0  0  0  0  0  0  0  0  0
   -1.3226    4.8994   24.6568 H   0  0  0  0  0  0  0  0  0  0  0  0
   -0.9936    6.2116   23.5195 H   0  0  0  0  0  0  0  0  0  0  0  0
   -0.6855    6.4382   25.2512 H   0  0  0  0  0  0  0  0  0  0  0  0
    1.0899    4.6813   25.1682 H   0  0  0  0  0  0  0  0  0  0  0  0
    1.6797    7.1071   24.7809 H   0  0  0  0  0  0  0  0  0  0  0  0
    1.5280    6.8530   23.0343 H   0  0  0  0  0  0  0  0  0  0  0  0
    2.7893    6.0197   23.9506 H   0  0  0  0  0  0  0  0  0  0  0  0
    3.1206    4.2559   22.6119 H   0  0  0  0  0  0  0  0  0  0  0  0
    3.6143    3.5576   24.6831 H   0  0  0  0  0  0  0  0  0  0  0  0
    2.1450    2.6177   24.8669 H   0  0  0  0  0  0  0  0  0  0  0  0
    3.2491    0.7046   24.2244 H   0  0  0  0  0  0  0  0  0  0  0  0
    4.4841    1.6099   24.4477 H   0  0  0  0  0  0  0  0  0  0  0  0
    6.5925   -0.6965   18.0298 H   0  0  0  0  0  0  0  0  0  0  0  0
    9.1391    2.2504   18.6822 H   0  0  0  0  0  0  0  0  0  0  0  0
    7.5802    2.1640   20.6597 H   0  0  0  0  0  0  0  0  0  0  0  0
    2.7892    2.8726   20.9768 H   0  0  0  0  0  0  0  0  0  0  0  0
    2.4237    1.4783   21.3642 H   0  0  0  0  0  0  0  0  0  0  0  0
  1  2  1  0
  2  3  1  0
  2  4  1  0
  4  5  2  0
  4  6  2  0
  4  7  1  0
  7  8  1  0
  8  9  1  0
  9 10  1  0
 10 11  1  0
 11 12  2  0
 11 13  1  0
 13 14  2  0
 14 15  1  0
 15 16  2  0
 16 17  1  0
 10 18  1  0
 18  7  1  0
 17 13  1  0
  1 19  1  0
  1 20  1  0
  1 21  1  0
  2 22  1  0
  3 23  1  0
  3 24  1  0
  3 25  1  0
  7 26  1  0
  8 27  1  0
  8 28  1  0
  9 29  1  0
  9 30  1  0
 14 31  1  0
 16 32  1  0
 17 33  1  0
 18 34  1  0
 18 35  1  0
M  END
>  <Energy>  (1430) 
308.92113621771733

>  <compound_id>  (1430) 
10758

>  <target_id>  (1430) 
1

>  <reference_id>  (1430) 
53

>  <inspiration_ids>  (1430) 
[53, 80]

>  <energy_score>  (1430) 
296.19628273031384

>  <distance_score>  (1430) 
6.072028849961958

>  <path>  (1430) 
/opt/xchem-fragalysis-2/maxwin/BulkDock/SCRATCH/511013/C10758-P53/C10758-P53.minimised.mol

>  <scratch_subdir>  (1430) 
/opt/xchem-fragalysis-2/maxwin/BulkDock/SCRATCH/511013/C10758-P53

>  <fragmenstein_runtime>  (1430) 
5.029414176940918

>  <fragmenstein_outcome>  (1430) 
too moved

>  <fragmenstein_mode>  (1430) 
expansion

>  <fragmenstein_error>  (1430) 


$$$$
C10758-P80
     RDKit          3D

 35 36  0  0  0  0  0  0  0  0999 V2000
   -1.6744    4.4950   25.6023 C   0  0  0  0  0  0  0  0  0  0  0  0
   -0.7409    4.4566   26.8064 C   0  0  0  0  0  0  0  0  0  0  0  0
   -0.2326    5.8430   27.1767 C   0  0  0  0  0  0  0  0  0  0  0  0
    0.5744    3.2460   26.5936 S   0  0  0  0  0  0  0  0  0  0  0  0
   -0.0780    1.9499   26.5992 O   0  0  0  0  0  0  0  0  0  0  0  0
    1.6234    3.5325   27.5520 O   0  0  0  0  0  0  0  0  0  0  0  0
    1.2455    3.4443   24.9598 C   0  0  0  0  0  0  0  0  0  0  0  0
    1.8651    4.7459   24.7008 C   0  0  0  0  0  0  0  0  0  0  0  0
    2.7078    4.2626   23.5540 C   0  0  0  0  0  0  0  0  0  0  0  0
    3.4280    2.9461   23.5227 N   0  0  0  0  0  0  0  0  0  0  0  0
    3.3348    1.8124   22.5570 C   0  0  0  0  0  0  0  0  0  0  0  0
    2.5884    1.6478   21.6211 O   0  0  0  0  0  0  0  0  0  0  0  0
    4.6575    0.5063   22.7424 C   0  0  0  0  0  0  0  0  0  0  0  0
    4.6838   -0.2227   24.3138 C   0  0  0  0  0  0  0  0  0  0  0  0
    4.9348   -1.5320   24.3662 N   0  0  0  0  0  0  0  0  0  0  0  0
    4.9976   -1.7492   23.1152 C   0  0  0  0  0  0  0  0  0  0  0  0
    4.7769   -0.7537   22.1420 N   0  0  0  0  0  0  0  0  0  0  0  0
    2.5387    2.6801   24.7418 C   0  0  0  0  0  0  0  0  0  0  0  0
   -2.0296    3.4922   25.3433 H   0  0  0  0  0  0  0  0  0  0  0  0
   -1.1831    4.9141   24.7194 H   0  0  0  0  0  0  0  0  0  0  0  0
   -2.5509    5.1121   25.8157 H   0  0  0  0  0  0  0  0  0  0  0  0
   -1.3140    4.0789   27.6637 H   0  0  0  0  0  0  0  0  0  0  0  0
    0.3550    6.2968   26.3761 H   0  0  0  0  0  0  0  0  0  0  0  0
   -1.0725    6.5132   27.3901 H   0  0  0  0  0  0  0  0  0  0  0  0
    0.3954    5.8084   28.0727 H   0  0  0  0  0  0  0  0  0  0  0  0
    0.4820    3.1681   24.2254 H   0  0  0  0  0  0  0  0  0  0  0  0
    1.1651    5.5269   24.3948 H   0  0  0  0  0  0  0  0  0  0  0  0
    2.4801    5.1259   25.5248 H   0  0  0  0  0  0  0  0  0  0  0  0
    2.0935    4.2683   22.6386 H   0  0  0  0  0  0  0  0  0  0  0  0
    3.4899    5.0082   23.3570 H   0  0  0  0  0  0  0  0  0  0  0  0
    4.2600    0.2531   25.1917 H   0  0  0  0  0  0  0  0  0  0  0  0
    5.4193   -2.5231   22.5587 H   0  0  0  0  0  0  0  0  0  0  0  0
    5.4059   -0.8452   21.3567 H   0  0  0  0  0  0  0  0  0  0  0  0
    3.2158    2.8535   25.5972 H   0  0  0  0  0  0  0  0  0  0  0  0
    2.3700    1.6149   24.7931 H   0  0  0  0  0  0  0  0  0  0  0  0
  1  2  1  0
  2  3  1  0
  2  4  1  0
  4  5  2  0
  4  6  2  0
  4  7  1  0
  7  8  1  0
  8  9  1  0
  9 10  1  0
 10 11  1  0
 11 12  2  0
 11 13  1  0
 13 14  2  0
 14 15  1  0
 15 16  2  0
 16 17  1  0
 10 18  1  0
 18  7  1  0
 17 13  1  0
  1 19  1  0
  1 20  1  0
  1 21  1  0
  2 22  1  0
  3 23  1  0
  3 24  1  0
  3 25  1  0
  7 26  1  0
  8 27  1  0
  8 28  1  0
  9 29  1  0
  9 30  1  0
 14 31  1  0
 16 32  1  0
 17 33  1  0
 18 34  1  0
 18 35  1  0
M  END
>  <Energy>  (1431) 
159.29071203254162

>  <compound_id>  (1431) 
10758

>  <target_id>  (1431) 
1

>  <reference_id>  (1431) 
80

>  <inspiration_ids>  (1431) 
[53, 80]

>  <energy_score>  (1431) 
146.56585854513617

>  <distance_score>  (1431) 
7.655631576195459

>  <path>  (1431) 
/opt/xchem-fragalysis-2/maxwin/BulkDock/SCRATCH/511013/C10758-P80/C10758-P80.minimised.mol

>  <scratch_subdir>  (1431) 
/opt/xchem-fragalysis-2/maxwin/BulkDock/SCRATCH/511013/C10758-P80

>  <fragmenstein_runtime>  (1431) 
6.900146484375

>  <fragmenstein_outcome>  (1431) 
too moved

>  <fragmenstein_mode>  (1431) 
expansion

>  <fragmenstein_error>  (1431) 


$$$$
C10761-P53
     RDKit          3D

 46 47  0  0  0  0  0  0  0  0999 V2000
    4.9566   -3.6242   24.2229 C   0  0  0  0  0  0  0  0  0  0  0  0
    4.5896   -2.2529   23.6420 C   0  0  0  0  0  0  0  0  0  0  0  0
    4.7846   -1.1658   24.7531 C   0  0  0  0  0  0  0  0  0  0  0  0
    4.0654   -1.2896   26.0748 C   0  0  0  0  0  0  0  0  0  0  0  0
    4.0700   -2.2307   27.0839 C   0  0  0  0  0  0  0  0  0  0  0  0
    3.2553   -1.8622   28.1209 N   0  0  0  0  0  0  0  0  0  0  0  0
    2.7784   -0.6890   27.7806 C   0  0  0  0  0  0  0  0  0  0  0  0
    3.2677   -0.2839   26.5729 N   0  0  0  0  0  0  0  0  0  0  0  0
    5.0808   -2.1465   22.0963 C   0  0  0  0  0  0  0  0  0  0  0  0
    5.0627   -3.1704   21.4460 O   0  0  0  0  0  0  0  0  0  0  0  0
    5.6456   -0.6074   21.7018 N   0  0  0  0  0  0  0  0  0  0  0  0
    4.8759    0.3900   21.1443 C   0  0  0  0  0  0  0  0  0  0  0  0
    6.6702   -0.0010   20.0064 C   0  0  0  0  0  0  0  0  0  0  0  0
    8.0981    1.1856   19.3839 C   0  0  0  0  0  0  0  0  0  0  0  0
    8.5566    2.1368   20.4685 C   0  0  0  0  0  0  0  0  0  0  0  0
    9.0807    3.3648   19.8617 C   0  0  0  0  0  0  0  0  0  0  0  0
    8.3375    3.1477   18.6231 C   0  0  0  0  0  0  0  0  0  0  0  0
    8.8740    2.0169   17.9193 N   0  0  0  0  0  0  0  0  0  0  0  0
    8.5127    1.4511   16.6533 C   0  0  0  0  0  0  0  0  0  0  0  0
    7.6097    1.7216   15.9018 O   0  0  0  0  0  0  0  0  0  0  0  0
    9.4579    0.4197   16.0831 C   0  0  0  0  0  0  0  0  0  0  0  0
    9.3518   -0.9356   16.3317 O   0  0  0  0  0  0  0  0  0  0  0  0
    4.2162   -3.9668   24.9508 H   0  0  0  0  0  0  0  0  0  0  0  0
    5.0106   -4.4065   23.4596 H   0  0  0  0  0  0  0  0  0  0  0  0
    5.9349   -3.5928   24.7138 H   0  0  0  0  0  0  0  0  0  0  0  0
    3.5519   -2.3750   23.3905 H   0  0  0  0  0  0  0  0  0  0  0  0
    5.8403   -1.1204   25.0420 H   0  0  0  0  0  0  0  0  0  0  0  0
    4.5178   -0.1845   24.3745 H   0  0  0  0  0  0  0  0  0  0  0  0
    4.6244   -3.1593   27.1251 H   0  0  0  0  0  0  0  0  0  0  0  0
    2.0903   -0.0896   28.3613 H   0  0  0  0  0  0  0  0  0  0  0  0
    3.0629    0.5949   26.1196 H   0  0  0  0  0  0  0  0  0  0  0  0
    3.9316    0.9719   21.2673 H   0  0  0  0  0  0  0  0  0  0  0  0
    5.0264    0.9372   22.0943 H   0  0  0  0  0  0  0  0  0  0  0  0
    4.2352   -0.3221   21.3527 H   0  0  0  0  0  0  0  0  0  0  0  0
    6.3701    0.1319   18.9469 H   0  0  0  0  0  0  0  0  0  0  0  0
    7.2910   -0.8784   19.9623 H   0  0  0  0  0  0  0  0  0  0  0  0
    8.7922    0.3496   19.3318 H   0  0  0  0  0  0  0  0  0  0  0  0
    9.3301    1.7709   21.1435 H   0  0  0  0  0  0  0  0  0  0  0  0
    7.6022    2.4423   20.8761 H   0  0  0  0  0  0  0  0  0  0  0  0
    8.7977    4.2722   20.4019 H   0  0  0  0  0  0  0  0  0  0  0  0
   10.1660    3.3474   19.7309 H   0  0  0  0  0  0  0  0  0  0  0  0
    8.5772    3.9944   17.9627 H   0  0  0  0  0  0  0  0  0  0  0  0
    7.2612    3.1908   18.6287 H   0  0  0  0  0  0  0  0  0  0  0  0
   10.4607    0.7911   16.2532 H   0  0  0  0  0  0  0  0  0  0  0  0
    9.3898    0.5356   14.9889 H   0  0  0  0  0  0  0  0  0  0  0  0
    8.7816   -1.2603   15.6032 H   0  0  0  0  0  0  0  0  0  0  0  0
  1  2  1  0
  2  3  1  0
  3  4  1  0
  4  5  2  0
  5  6  1  0
  6  7  2  0
  7  8  1  0
  2  9  1  0
  9 10  2  0
  9 11  1  0
 11 12  1  0
 11 13  1  0
 13 14  1  0
 14 15  1  0
 15 16  1  0
 16 17  1  0
 17 18  1  0
 18 19  1  0
 19 20  2  0
 19 21  1  0
 21 22  1  0
  8  4  1  0
 18 14  1  0
  1 23  1  0
  1 24  1  0
  1 25  1  0
  2 26  1  0
  3 27  1  0
  3 28  1  0
  5 29  1  0
  7 30  1  0
  8 31  1  0
 12 32  1  0
 12 33  1  0
 12 34  1  0
 13 35  1  0
 13 36  1  0
 14 37  1  0
 15 38  1  0
 15 39  1  0
 16 40  1  0
 16 41  1  0
 17 42  1  0
 17 43  1  0
 21 44  1  0
 21 45  1  0
 22 46  1  0
M  END
>  <Energy>  (1432) 
569.24175469707689

>  <compound_id>  (1432) 
10761

>  <target_id>  (1432) 
1

>  <reference_id>  (1432) 
53

>  <inspiration_ids>  (1432) 
[53, 80]

>  <energy_score>  (1432) 
482.1427776332496

>  <distance_score>  (1432) 
8.422143327308763

>  <path>  (1432) 
/opt/xchem-fragalysis-2/maxwin/BulkDock/SCRATCH/511013/C10761-P53/C10761-P53.minimised.mol

>  <scratch_subdir>  (1432) 
/opt/xchem-fragalysis-2/maxwin/BulkDock/SCRATCH/511013/C10761-P53

>  <fragmenstein_runtime>  (1432) 
10.765824317932129

>  <fragmenstein_outcome>  (1432) 
too moved

>  <fragmenstein_mode>  (1432) 
expansion

>  <fragmenstein_error>  (1432) 


$$$$
C10761-P80
     RDKit          3D

 46 47  0  0  0  0  0  0  0  0999 V2000
    0.9534    3.8449   21.7103 C   0  0  0  0  0  0  0  0  0  0  0  0
    1.3399    5.1825   22.3232 C   0  0  0  0  0  0  0  0  0  0  0  0
    0.8356    5.3540   23.7730 C   0  0  0  0  0  0  0  0  0  0  0  0
    0.9815    4.1859   24.6835 C   0  0  0  0  0  0  0  0  0  0  0  0
    0.0746    3.5104   25.4716 C   0  0  0  0  0  0  0  0  0  0  0  0
    0.6964    2.5149   26.1779 N   0  0  0  0  0  0  0  0  0  0  0  0
    1.9703    2.6084   25.8644 C   0  0  0  0  0  0  0  0  0  0  0  0
    2.1912    3.5936   24.9485 N   0  0  0  0  0  0  0  0  0  0  0  0
    2.8707    5.4199   22.1770 C   0  0  0  0  0  0  0  0  0  0  0  0
    3.6427    4.9367   22.9666 O   0  0  0  0  0  0  0  0  0  0  0  0
    3.1068    6.2701   21.0369 N   0  0  0  0  0  0  0  0  0  0  0  0
    3.0412    7.7217   21.4506 C   0  0  0  0  0  0  0  0  0  0  0  0
    4.4222    6.7427   20.3911 C   0  0  0  0  0  0  0  0  0  0  0  0
    5.0642    5.6753   19.3937 C   0  0  0  0  0  0  0  0  0  0  0  0
    3.9975    5.2737   18.3740 C   0  0  0  0  0  0  0  0  0  0  0  0
    4.8283    4.8306   17.2299 C   0  0  0  0  0  0  0  0  0  0  0  0
    6.1753    5.0273   17.8432 C   0  0  0  0  0  0  0  0  0  0  0  0
    6.3454    6.2645   18.6511 N   0  0  0  0  0  0  0  0  0  0  0  0
    7.3459    6.6249   19.6011 C   0  0  0  0  0  0  0  0  0  0  0  0
    8.2594    5.9835   20.0590 O   0  0  0  0  0  0  0  0  0  0  0  0
    7.2311    8.1158   19.9776 C   0  0  0  0  0  0  0  0  0  0  0  0
    7.2181    8.3110   21.3816 O   0  0  0  0  0  0  0  0  0  0  0  0
   -0.0808    3.5711   21.9402 H   0  0  0  0  0  0  0  0  0  0  0  0
    1.0531    3.8893   20.6196 H   0  0  0  0  0  0  0  0  0  0  0  0
    1.6263    3.0526   22.0456 H   0  0  0  0  0  0  0  0  0  0  0  0
    0.8273    5.9594   21.7391 H   0  0  0  0  0  0  0  0  0  0  0  0
    1.3331    6.2188   24.2312 H   0  0  0  0  0  0  0  0  0  0  0  0
   -0.2319    5.6102   23.7271 H   0  0  0  0  0  0  0  0  0  0  0  0
   -0.9873    3.6974   25.5748 H   0  0  0  0  0  0  0  0  0  0  0  0
    2.7660    1.9835   26.2481 H   0  0  0  0  0  0  0  0  0  0  0  0
    3.0794    3.8451   24.5226 H   0  0  0  0  0  0  0  0  0  0  0  0
    2.1458    7.8149   22.0827 H   0  0  0  0  0  0  0  0  0  0  0  0
    2.8237    8.4070   20.6186 H   0  0  0  0  0  0  0  0  0  0  0  0
    3.8463    8.0555   22.1234 H   0  0  0  0  0  0  0  0  0  0  0  0
    5.1669    6.8687   21.1877 H   0  0  0  0  0  0  0  0  0  0  0  0
    4.3208    7.6335   19.7513 H   0  0  0  0  0  0  0  0  0  0  0  0
    5.3806    4.8380   20.0324 H   0  0  0  0  0  0  0  0  0  0  0  0
    3.3409    4.4889   18.7599 H   0  0  0  0  0  0  0  0  0  0  0  0
    3.3680    6.1206   18.0770 H   0  0  0  0  0  0  0  0  0  0  0  0
    4.6482    3.7966   16.9265 H   0  0  0  0  0  0  0  0  0  0  0  0
    4.6800    5.4799   16.3605 H   0  0  0  0  0  0  0  0  0  0  0  0
    6.5751    4.1602   18.3752 H   0  0  0  0  0  0  0  0  0  0  0  0
    6.8999    5.1433   17.0245 H   0  0  0  0  0  0  0  0  0  0  0  0
    6.3410    8.5794   19.5465 H   0  0  0  0  0  0  0  0  0  0  0  0
    8.1001    8.6349   19.5591 H   0  0  0  0  0  0  0  0  0  0  0  0
    8.0058    7.8427   21.7210 H   0  0  0  0  0  0  0  0  0  0  0  0
  1  2  1  0
  2  3  1  0
  3  4  1  0
  4  5  2  0
  5  6  1  0
  6  7  2  0
  7  8  1  0
  2  9  1  0
  9 10  2  0
  9 11  1  0
 11 12  1  0
 11 13  1  0
 13 14  1  0
 14 15  1  0
 15 16  1  0
 16 17  1  0
 17 18  1  0
 18 19  1  0
 19 20  2  0
 19 21  1  0
 21 22  1  0
  8  4  1  0
 18 14  1  0
  1 23  1  0
  1 24  1  0
  1 25  1  0
  2 26  1  0
  3 27  1  0
  3 28  1  0
  5 29  1  0
  7 30  1  0
  8 31  1  0
 12 32  1  0
 12 33  1  0
 12 34  1  0
 13 35  1  0
 13 36  1  0
 14 37  1  0
 15 38  1  0
 15 39  1  0
 16 40  1  0
 16 41  1  0
 17 42  1  0
 17 43  1  0
 21 44  1  0
 21 45  1  0
 22 46  1  0
M  END
>  <Energy>  (1433) 
161.91999292137959

>  <compound_id>  (1433) 
10761

>  <target_id>  (1433) 
1

>  <reference_id>  (1433) 
80

>  <inspiration_ids>  (1433) 
[53, 80]

>  <energy_score>  (1433) 
74.82101585755333

>  <distance_score>  (1433) 
8.130360530756834

>  <path>  (1433) 
/opt/xchem-fragalysis-2/maxwin/BulkDock/SCRATCH/511013/C10761-P80/C10761-P80.minimised.mol

>  <scratch_subdir>  (1433) 
/opt/xchem-fragalysis-2/maxwin/BulkDock/SCRATCH/511013/C10761-P80

>  <fragmenstein_runtime>  (1433) 
8.865709781646729

>  <fragmenstein_outcome>  (1433) 
too moved

>  <fragmenstein_mode>  (1433) 
expansion

>  <fragmenstein_error>  (1433) 


$$$$
C10762-P53
     RDKit          3D

 46 47  0  0  0  0  0  0  0  0999 V2000
    6.6420   -4.7016   19.4430 C   0  0  0  0  0  0  0  0  0  0  0  0
    7.7851   -4.6086   20.8765 C   0  0  0  0  0  0  0  0  0  0  0  0
    9.7671   -5.2382   20.3407 C   0  0  0  0  0  0  0  0  0  0  0  0
   11.4155   -4.8514   21.0490 C   0  0  0  0  0  0  0  0  0  0  0  0
   12.6505   -5.0427   20.4216 C   0  0  0  0  0  0  0  0  0  0  0  0
   13.6803   -4.4674   21.1129 N   0  0  0  0  0  0  0  0  0  0  0  0
   13.1112   -3.8874   22.1362 C   0  0  0  0  0  0  0  0  0  0  0  0
   11.7619   -4.0938   22.1493 N   0  0  0  0  0  0  0  0  0  0  0  0
    6.9353   -5.4152   22.6398 C   0  0  0  0  0  0  0  0  0  0  0  0
    6.8724   -6.5955   22.6391 O   0  0  0  0  0  0  0  0  0  0  0  0
    6.4249   -4.4818   23.6779 N   0  0  0  0  0  0  0  0  0  0  0  0
    5.8129   -4.7310   24.9986 C   0  0  0  0  0  0  0  0  0  0  0  0
    5.5178   -3.4171   25.7401 C   0  0  0  0  0  0  0  0  0  0  0  0
    4.2486   -3.4562   26.5875 C   0  0  0  0  0  0  0  0  0  0  0  0
    4.2728   -4.3135   27.8083 C   0  0  0  0  0  0  0  0  0  0  0  0
    3.8139   -3.3009   28.8414 C   0  0  0  0  0  0  0  0  0  0  0  0
    2.8361   -2.3086   28.2587 N   0  0  0  0  0  0  0  0  0  0  0  0
    2.3530   -1.4345   29.2756 C   0  0  0  0  0  0  0  0  0  0  0  0
    2.7691   -0.3695   29.6560 O   0  0  0  0  0  0  0  0  0  0  0  0
    1.0427   -1.9926   29.8608 C   0  0  0  0  0  0  0  0  0  0  0  0
    0.7327   -1.3910   31.1130 O   0  0  0  0  0  0  0  0  0  0  0  0
    3.9421   -2.1370   27.2673 C   0  0  0  0  0  0  0  0  0  0  0  0
    5.6117   -4.9837   19.2002 H   0  0  0  0  0  0  0  0  0  0  0  0
    6.9172   -5.2098   18.5405 H   0  0  0  0  0  0  0  0  0  0  0  0
    6.0251   -3.7949   19.5885 H   0  0  0  0  0  0  0  0  0  0  0  0
    7.7051   -3.5285   21.0131 H   0  0  0  0  0  0  0  0  0  0  0  0
   10.1312   -6.2684   20.6084 H   0  0  0  0  0  0  0  0  0  0  0  0
    9.8801   -5.4846   19.3113 H   0  0  0  0  0  0  0  0  0  0  0  0
   12.8414   -5.4815   19.4553 H   0  0  0  0  0  0  0  0  0  0  0  0
   13.6096   -3.2927   22.8896 H   0  0  0  0  0  0  0  0  0  0  0  0
   11.1335   -3.6647   22.8108 H   0  0  0  0  0  0  0  0  0  0  0  0
    6.5550   -3.5405   23.3550 H   0  0  0  0  0  0  0  0  0  0  0  0
    4.9299   -5.3640   24.8829 H   0  0  0  0  0  0  0  0  0  0  0  0
    6.5323   -5.3304   25.5686 H   0  0  0  0  0  0  0  0  0  0  0  0
    6.3855   -3.1502   26.3567 H   0  0  0  0  0  0  0  0  0  0  0  0
    5.3999   -2.6001   25.0173 H   0  0  0  0  0  0  0  0  0  0  0  0
    3.4132   -3.7735   25.9592 H   0  0  0  0  0  0  0  0  0  0  0  0
    5.2543   -4.7267   28.0588 H   0  0  0  0  0  0  0  0  0  0  0  0
    3.5608   -5.1415   27.7190 H   0  0  0  0  0  0  0  0  0  0  0  0
    3.2878   -3.8380   29.6424 H   0  0  0  0  0  0  0  0  0  0  0  0
    4.6439   -2.7972   29.3679 H   0  0  0  0  0  0  0  0  0  0  0  0
    0.2301   -1.7751   29.1609 H   0  0  0  0  0  0  0  0  0  0  0  0
    1.1088   -3.0731   30.0098 H   0  0  0  0  0  0  0  0  0  0  0  0
    1.0898   -0.4816   31.0501 H   0  0  0  0  0  0  0  0  0  0  0  0
    3.5527   -1.4252   26.5280 H   0  0  0  0  0  0  0  0  0  0  0  0
    4.8112   -1.6047   27.6926 H   0  0  0  0  0  0  0  0  0  0  0  0
  1  2  1  0
  2  3  1  0
  3  4  1  0
  4  5  2  0
  5  6  1  0
  6  7  2  0
  7  8  1  0
  2  9  1  0
  9 10  2  0
  9 11  1  0
 11 12  1  0
 12 13  1  0
 13 14  1  0
 14 15  1  0
 15 16  1  0
 16 17  1  0
 17 18  1  0
 18 19  2  0
 18 20  1  0
 20 21  1  0
 17 22  1  0
  8  4  1  0
 22 14  1  0
  1 23  1  0
  1 24  1  0
  1 25  1  0
  2 26  1  0
  3 27  1  0
  3 28  1  0
  5 29  1  0
  7 30  1  0
  8 31  1  0
 11 32  1  0
 12 33  1  0
 12 34  1  0
 13 35  1  0
 13 36  1  0
 14 37  1  0
 15 38  1  0
 15 39  1  0
 16 40  1  0
 16 41  1  0
 20 42  1  0
 20 43  1  0
 21 44  1  0
 22 45  1  0
 22 46  1  0
M  END
>  <Energy>  (1434) 
394.44180392060605

>  <compound_id>  (1434) 
10762

>  <target_id>  (1434) 
1

>  <reference_id>  (1434) 
53

>  <inspiration_ids>  (1434) 
[53, 80]

>  <energy_score>  (1434) 
343.62072575415846

>  <distance_score>  (1434) 
7.191849853688569

>  <path>  (1434) 
/opt/xchem-fragalysis-2/maxwin/BulkDock/SCRATCH/511013/C10762-P53/C10762-P53.minimised.mol

>  <scratch_subdir>  (1434) 
/opt/xchem-fragalysis-2/maxwin/BulkDock/SCRATCH/511013/C10762-P53

>  <fragmenstein_runtime>  (1434) 
15.58371376991272

>  <fragmenstein_outcome>  (1434) 
too moved

>  <fragmenstein_mode>  (1434) 
expansion

>  <fragmenstein_error>  (1434) 


$$$$
C10762-P80
     RDKit          3D

 46 47  0  0  0  0  0  0  0  0999 V2000
    5.9149   -4.7965   19.4346 C   0  0  0  0  0  0  0  0  0  0  0  0
    4.4841   -5.3553   19.1870 C   0  0  0  0  0  0  0  0  0  0  0  0
    5.1303   -5.7404   17.2859 C   0  0  0  0  0  0  0  0  0  0  0  0
    6.5531   -5.3987   15.9364 C   0  0  0  0  0  0  0  0  0  0  0  0
    7.9082   -4.1598   15.7520 C   0  0  0  0  0  0  0  0  0  0  0  0
    7.7670   -2.7608   15.3380 N   0  0  0  0  0  0  0  0  0  0  0  0
    6.6355   -2.7505   14.7618 C   0  0  0  0  0  0  0  0  0  0  0  0
    5.8671   -3.7531   15.3142 N   0  0  0  0  0  0  0  0  0  0  0  0
    2.6788   -5.4051   20.3788 C   0  0  0  0  0  0  0  0  0  0  0  0
    1.8139   -6.1464   20.0385 O   0  0  0  0  0  0  0  0  0  0  0  0
    2.3200   -4.1793   21.8564 N   0  0  0  0  0  0  0  0  0  0  0  0
    1.0036   -3.8623   22.6592 C   0  0  0  0  0  0  0  0  0  0  0  0
   -0.2449   -2.1997   22.8085 C   0  0  0  0  0  0  0  0  0  0  0  0
   -1.3383   -0.6545   23.7973 C   0  0  0  0  0  0  0  0  0  0  0  0
   -1.8137    0.0895   25.6066 C   0  0  0  0  0  0  0  0  0  0  0  0
   -1.5423    1.6954   25.4578 C   0  0  0  0  0  0  0  0  0  0  0  0
   -2.0535    2.3902   24.1256 N   0  0  0  0  0  0  0  0  0  0  0  0
   -2.0614    3.8140   24.2914 C   0  0  0  0  0  0  0  0  0  0  0  0
   -1.2120    4.6335   24.0574 O   0  0  0  0  0  0  0  0  0  0  0  0
   -3.4200    4.2878   24.7945 C   0  0  0  0  0  0  0  0  0  0  0  0
   -3.8886    5.3503   23.9778 O   0  0  0  0  0  0  0  0  0  0  0  0
   -0.9510    1.4157   23.4533 C   0  0  0  0  0  0  0  0  0  0  0  0
    5.6657   -3.8027   19.8124 H   0  0  0  0  0  0  0  0  0  0  0  0
    6.8043   -5.1680   19.9512 H   0  0  0  0  0  0  0  0  0  0  0  0
    6.5043   -5.1240   18.5968 H   0  0  0  0  0  0  0  0  0  0  0  0
    4.4626   -6.4819   19.0539 H   0  0  0  0  0  0  0  0  0  0  0  0
    4.9813   -6.8157   17.1119 H   0  0  0  0  0  0  0  0  0  0  0  0
    4.4275   -5.1299   16.7459 H   0  0  0  0  0  0  0  0  0  0  0  0
    8.8034   -4.3482   15.1518 H   0  0  0  0  0  0  0  0  0  0  0  0
    6.2872   -2.0082   14.0804 H   0  0  0  0  0  0  0  0  0  0  0  0
    4.8763   -3.6424   15.4768 H   0  0  0  0  0  0  0  0  0  0  0  0
    3.1608   -3.6857   22.0786 H   0  0  0  0  0  0  0  0  0  0  0  0
    1.7283   -3.1299   22.9823 H   0  0  0  0  0  0  0  0  0  0  0  0
    0.7232   -3.9385   21.5914 H   0  0  0  0  0  0  0  0  0  0  0  0
   -1.1583   -2.6894   23.0351 H   0  0  0  0  0  0  0  0  0  0  0  0
   -0.2662   -2.0361   21.7844 H   0  0  0  0  0  0  0  0  0  0  0  0
   -2.2503   -1.3127   23.4114 H   0  0  0  0  0  0  0  0  0  0  0  0
   -1.1744   -0.2585   26.4361 H   0  0  0  0  0  0  0  0  0  0  0  0
   -2.8633   -0.0936   25.8685 H   0  0  0  0  0  0  0  0  0  0  0  0
   -0.5308    2.0272   25.7475 H   0  0  0  0  0  0  0  0  0  0  0  0
   -2.1676    2.1463   26.2433 H   0  0  0  0  0  0  0  0  0  0  0  0
   -4.1686    3.4986   24.8050 H   0  0  0  0  0  0  0  0  0  0  0  0
   -3.2838    4.6381   25.8209 H   0  0  0  0  0  0  0  0  0  0  0  0
   -3.2153    6.0529   24.0521 H   0  0  0  0  0  0  0  0  0  0  0  0
   -1.1681    1.7211   22.4189 H   0  0  0  0  0  0  0  0  0  0  0  0
   -0.0647    1.9628   23.8338 H   0  0  0  0  0  0  0  0  0  0  0  0
  1  2  1  0
  2  3  1  0
  3  4  1  0
  4  5  2  0
  5  6  1  0
  6  7  2  0
  7  8  1  0
  2  9  1  0
  9 10  2  0
  9 11  1  0
 11 12  1  0
 12 13  1  0
 13 14  1  0
 14 15  1  0
 15 16  1  0
 16 17  1  0
 17 18  1  0
 18 19  2  0
 18 20  1  0
 20 21  1  0
 17 22  1  0
  8  4  1  0
 22 14  1  0
  1 23  1  0
  1 24  1  0
  1 25  1  0
  2 26  1  0
  3 27  1  0
  3 28  1  0
  5 29  1  0
  7 30  1  0
  8 31  1  0
 11 32  1  0
 12 33  1  0
 12 34  1  0
 13 35  1  0
 13 36  1  0
 14 37  1  0
 15 38  1  0
 15 39  1  0
 16 40  1  0
 16 41  1  0
 20 42  1  0
 20 43  1  0
 21 44  1  0
 22 45  1  0
 22 46  1  0
M  END
>  <Energy>  (1435) 
1212.4034052820089

>  <compound_id>  (1435) 
10762

>  <target_id>  (1435) 
1

>  <reference_id>  (1435) 
80

>  <inspiration_ids>  (1435) 
[53, 80]

>  <energy_score>  (1435) 
1161.5823271155691

>  <distance_score>  (1435) 
4.957218420184019

>  <path>  (1435) 
/opt/xchem-fragalysis-2/maxwin/BulkDock/SCRATCH/511013/C10762-P80/C10762-P80.minimised.mol

>  <scratch_subdir>  (1435) 
/opt/xchem-fragalysis-2/maxwin/BulkDock/SCRATCH/511013/C10762-P80

>  <fragmenstein_runtime>  (1435) 
13.497162342071533

>  <fragmenstein_outcome>  (1435) 
too moved

>  <fragmenstein_mode>  (1435) 
expansion

>  <fragmenstein_error>  (1435) 


$$$$
C10763-P53
     RDKit          3D

 43 44  0  0  0  0  0  0  0  0999 V2000
    3.4183    3.5939   22.8673 C   0  0  0  0  0  0  0  0  0  0  0  0
    3.8412    2.0607   23.0118 C   0  0  0  0  0  0  0  0  0  0  0  0
    3.8107    1.6577   24.5441 C   0  0  0  0  0  0  0  0  0  0  0  0
    2.7763    2.2159   25.5035 C   0  0  0  0  0  0  0  0  0  0  0  0
    2.6985    2.0226   26.8736 C   0  0  0  0  0  0  0  0  0  0  0  0
    1.6246    2.6673   27.4186 N   0  0  0  0  0  0  0  0  0  0  0  0
    1.0231    3.2419   26.4071 C   0  0  0  0  0  0  0  0  0  0  0  0
    1.6739    2.9923   25.2314 N   0  0  0  0  0  0  0  0  0  0  0  0
    5.1040    1.0304   22.0053 C   0  0  0  0  0  0  0  0  0  0  0  0
    5.0973   -0.1939   21.9830 O   0  0  0  0  0  0  0  0  0  0  0  0
    6.3976    2.1580   21.1931 N   0  0  0  0  0  0  0  0  0  0  0  0
    7.7679    1.7764   20.1774 C   0  0  0  0  0  0  0  0  0  0  0  0
    8.3924    2.9359   19.2018 C   0  0  0  0  0  0  0  0  0  0  0  0
    8.5816    4.2314   19.9670 C   0  0  0  0  0  0  0  0  0  0  0  0
    7.4497    4.9425   19.3795 C   0  0  0  0  0  0  0  0  0  0  0  0
    7.6592    4.3733   18.0146 C   0  0  0  0  0  0  0  0  0  0  0  0
    7.8246    2.9143   17.7481 N   0  0  0  0  0  0  0  0  0  0  0  0
    8.7359    2.2167   16.8698 C   0  0  0  0  0  0  0  0  0  0  0  0
    9.6513    2.6299   16.2013 O   0  0  0  0  0  0  0  0  0  0  0  0
    8.4583    0.7061   16.8183 C   0  0  0  0  0  0  0  0  0  0  0  0
    9.5877   -0.0960   16.5038 O   0  0  0  0  0  0  0  0  0  0  0  0
    3.9352    4.1787   22.1047 H   0  0  0  0  0  0  0  0  0  0  0  0
    2.3563    3.6683   22.6022 H   0  0  0  0  0  0  0  0  0  0  0  0
    3.5629    4.1517   23.7993 H   0  0  0  0  0  0  0  0  0  0  0  0
    2.9505    1.7252   22.5186 H   0  0  0  0  0  0  0  0  0  0  0  0
    3.7991    0.5683   24.6546 H   0  0  0  0  0  0  0  0  0  0  0  0
    4.7680    1.9469   24.9942 H   0  0  0  0  0  0  0  0  0  0  0  0
    3.3744    1.4457   27.4926 H   0  0  0  0  0  0  0  0  0  0  0  0
    0.1218    3.8396   26.4613 H   0  0  0  0  0  0  0  0  0  0  0  0
    1.3599    3.3265   24.3344 H   0  0  0  0  0  0  0  0  0  0  0  0
    6.1263    3.1075   21.2888 H   0  0  0  0  0  0  0  0  0  0  0  0
    8.6270    1.7742   20.8451 H   0  0  0  0  0  0  0  0  0  0  0  0
    7.6559    0.7950   19.7082 H   0  0  0  0  0  0  0  0  0  0  0  0
    9.4218    2.5734   19.0639 H   0  0  0  0  0  0  0  0  0  0  0  0
    9.5364    4.7075   19.7075 H   0  0  0  0  0  0  0  0  0  0  0  0
    8.5371    4.1527   21.0537 H   0  0  0  0  0  0  0  0  0  0  0  0
    7.5597    6.0300   19.4084 H   0  0  0  0  0  0  0  0  0  0  0  0
    6.4875    4.6843   19.8215 H   0  0  0  0  0  0  0  0  0  0  0  0
    6.8047    4.6629   17.3877 H   0  0  0  0  0  0  0  0  0  0  0  0
    8.5152    4.8702   17.5259 H   0  0  0  0  0  0  0  0  0  0  0  0
    7.7465    0.5064   16.0220 H   0  0  0  0  0  0  0  0  0  0  0  0
    8.0785    0.3501   17.7706 H   0  0  0  0  0  0  0  0  0  0  0  0
    9.9812    0.3463   15.7209 H   0  0  0  0  0  0  0  0  0  0  0  0
  1  2  1  0
  2  3  1  0
  3  4  1  0
  4  5  2  0
  5  6  1  0
  6  7  2  0
  7  8  1  0
  2  9  1  0
  9 10  2  0
  9 11  1  0
 11 12  1  0
 12 13  1  0
 13 14  1  0
 14 15  1  0
 15 16  1  0
 16 17  1  0
 17 18  1  0
 18 19  2  0
 18 20  1  0
 20 21  1  0
  8  4  1  0
 17 13  1  0
  1 22  1  0
  1 23  1  0
  1 24  1  0
  2 25  1  0
  3 26  1  0
  3 27  1  0
  5 28  1  0
  7 29  1  0
  8 30  1  0
 11 31  1  0
 12 32  1  0
 12 33  1  0
 13 34  1  0
 14 35  1  0
 14 36  1  0
 15 37  1  0
 15 38  1  0
 16 39  1  0
 16 40  1  0
 20 41  1  0
 20 42  1  0
 21 43  1  0
M  END
>  <Energy>  (1436) 
261.13187808744311

>  <compound_id>  (1436) 
10763

>  <target_id>  (1436) 
1

>  <reference_id>  (1436) 
53

>  <inspiration_ids>  (1436) 
[53, 80]

>  <energy_score>  (1436) 
188.19818063203866

>  <distance_score>  (1436) 
7.822772515656232

>  <path>  (1436) 
/opt/xchem-fragalysis-2/maxwin/BulkDock/SCRATCH/511013/C10763-P53/C10763-P53.minimised.mol

>  <scratch_subdir>  (1436) 
/opt/xchem-fragalysis-2/maxwin/BulkDock/SCRATCH/511013/C10763-P53

>  <fragmenstein_runtime>  (1436) 
8.755570888519287

>  <fragmenstein_outcome>  (1436) 
too moved

>  <fragmenstein_mode>  (1436) 
expansion

>  <fragmenstein_error>  (1436) 


$$$$
C10763-P80
     RDKit          3D

 43 44  0  0  0  0  0  0  0  0999 V2000
    4.8990   -2.3826   23.7239 C   0  0  0  0  0  0  0  0  0  0  0  0
    5.4353   -3.2354   22.5376 C   0  0  0  0  0  0  0  0  0  0  0  0
    6.0046   -4.5677   23.0573 C   0  0  0  0  0  0  0  0  0  0  0  0
    4.9227   -5.4462   23.6364 C   0  0  0  0  0  0  0  0  0  0  0  0
    4.1540   -5.3805   24.7835 C   0  0  0  0  0  0  0  0  0  0  0  0
    3.2657   -6.4271   24.8397 N   0  0  0  0  0  0  0  0  0  0  0  0
    3.4749   -7.1159   23.7420 C   0  0  0  0  0  0  0  0  0  0  0  0
    4.4615   -6.5606   22.9793 N   0  0  0  0  0  0  0  0  0  0  0  0
    5.9263   -2.7708   20.8684 C   0  0  0  0  0  0  0  0  0  0  0  0
    5.3413   -3.4996   20.0436 O   0  0  0  0  0  0  0  0  0  0  0  0
    7.0328   -1.3003   20.4727 N   0  0  0  0  0  0  0  0  0  0  0  0
    7.4222   -0.4886   18.8657 C   0  0  0  0  0  0  0  0  0  0  0  0
    8.3107    0.5134   17.3521 C   0  0  0  0  0  0  0  0  0  0  0  0
    7.8623    2.0712   17.0126 C   0  0  0  0  0  0  0  0  0  0  0  0
    8.9583    2.6883   16.2749 C   0  0  0  0  0  0  0  0  0  0  0  0
    9.9495    1.7765   16.8276 C   0  0  0  0  0  0  0  0  0  0  0  0
    9.8709    0.3395   16.5263 N   0  0  0  0  0  0  0  0  0  0  0  0
    9.7053   -0.3345   15.2874 C   0  0  0  0  0  0  0  0  0  0  0  0
    9.4956    0.0969   14.1886 O   0  0  0  0  0  0  0  0  0  0  0  0
    9.9391   -1.8186   15.3809 C   0  0  0  0  0  0  0  0  0  0  0  0
   11.0088   -2.2349   14.5385 O   0  0  0  0  0  0  0  0  0  0  0  0
    5.4293   -2.5988   24.6580 H   0  0  0  0  0  0  0  0  0  0  0  0
    3.8501   -2.6216   23.9342 H   0  0  0  0  0  0  0  0  0  0  0  0
    4.9629   -1.3222   23.5654 H   0  0  0  0  0  0  0  0  0  0  0  0
    4.4604   -3.6217   22.2058 H   0  0  0  0  0  0  0  0  0  0  0  0
    6.7695   -4.4020   23.8238 H   0  0  0  0  0  0  0  0  0  0  0  0
    6.5028   -5.0962   22.2353 H   0  0  0  0  0  0  0  0  0  0  0  0
    4.1891   -4.6365   25.5693 H   0  0  0  0  0  0  0  0  0  0  0  0
    2.9483   -8.0123   23.4447 H   0  0  0  0  0  0  0  0  0  0  0  0
    4.7810   -6.8978   22.0813 H   0  0  0  0  0  0  0  0  0  0  0  0
    7.2827   -0.8819   21.2507 H   0  0  0  0  0  0  0  0  0  0  0  0
    7.1819    0.4398   19.3472 H   0  0  0  0  0  0  0  0  0  0  0  0
    8.3848   -0.7922   19.1785 H   0  0  0  0  0  0  0  0  0  0  0  0
    7.7593   -0.0578   16.5822 H   0  0  0  0  0  0  0  0  0  0  0  0
    7.0073    2.1889   16.3428 H   0  0  0  0  0  0  0  0  0  0  0  0
    7.6536    2.6221   17.9309 H   0  0  0  0  0  0  0  0  0  0  0  0
    9.1221    3.7342   16.5518 H   0  0  0  0  0  0  0  0  0  0  0  0
    8.8943    2.6356   15.1960 H   0  0  0  0  0  0  0  0  0  0  0  0
   10.2218    2.0961   17.7942 H   0  0  0  0  0  0  0  0  0  0  0  0
   10.8725    2.0381   16.2828 H   0  0  0  0  0  0  0  0  0  0  0  0
   10.3252   -2.0527   16.3541 H   0  0  0  0  0  0  0  0  0  0  0  0
    9.0239   -2.3427   15.1015 H   0  0  0  0  0  0  0  0  0  0  0  0
   10.7044   -1.9537   13.6457 H   0  0  0  0  0  0  0  0  0  0  0  0
  1  2  1  0
  2  3  1  0
  3  4  1  0
  4  5  2  0
  5  6  1  0
  6  7  2  0
  7  8  1  0
  2  9  1  0
  9 10  2  0
  9 11  1  0
 11 12  1  0
 12 13  1  0
 13 14  1  0
 14 15  1  0
 15 16  1  0
 16 17  1  0
 17 18  1  0
 18 19  2  0
 18 20  1  0
 20 21  1  0
  8  4  1  0
 17 13  1  0
  1 22  1  0
  1 23  1  0
  1 24  1  0
  2 25  1  0
  3 26  1  0
  3 27  1  0
  5 28  1  0
  7 29  1  0
  8 30  1  0
 11 31  1  0
 12 32  1  0
 12 33  1  0
 13 34  1  0
 14 35  1  0
 14 36  1  0
 15 37  1  0
 15 38  1  0
 16 39  1  0
 16 40  1  0
 20 41  1  0
 20 42  1  0
 21 43  1  0
M  END
>  <Energy>  (1437) 
444.07371585493064

>  <compound_id>  (1437) 
10763

>  <target_id>  (1437) 
1

>  <reference_id>  (1437) 
80

>  <inspiration_ids>  (1437) 
[53, 80]

>  <energy_score>  (1437) 
371.14001839951817

>  <distance_score>  (1437) 
8.904310149260443

>  <path>  (1437) 
/opt/xchem-fragalysis-2/maxwin/BulkDock/SCRATCH/511013/C10763-P80/C10763-P80.minimised.mol

>  <scratch_subdir>  (1437) 
/opt/xchem-fragalysis-2/maxwin/BulkDock/SCRATCH/511013/C10763-P80

>  <fragmenstein_runtime>  (1437) 
11.230348348617554

>  <fragmenstein_outcome>  (1437) 
too moved

>  <fragmenstein_mode>  (1437) 
expansion

>  <fragmenstein_error>  (1437) 


$$$$
C10764-P53
     RDKit          3D

 37 38  0  0  0  0  0  0  0  0999 V2000
    1.7414    3.9986   21.8855 C   0  0  0  0  0  0  0  0  0  0  0  0
    1.8991    4.9425   23.0294 N   0  0  0  0  0  0  0  0  0  0  0  0
    3.0830    5.4185   22.1907 C   0  0  0  0  0  0  0  0  0  0  0  0
    2.9586    6.3175   20.8821 C   0  0  0  0  0  0  0  0  0  0  0  0
    3.4015    5.6411   19.5810 C   0  0  0  0  0  0  0  0  0  0  0  0
    4.8309    6.0463   19.5574 C   0  0  0  0  0  0  0  0  0  0  0  0
    4.8254    6.9998   20.7340 C   0  0  0  0  0  0  0  0  0  0  0  0
    3.5146    7.7425   20.9178 N   0  0  0  0  0  0  0  0  0  0  0  0
    3.6228    8.6749   21.9944 C   0  0  0  0  0  0  0  0  0  0  0  0
    3.3867    8.5465   23.1685 O   0  0  0  0  0  0  0  0  0  0  0  0
    4.0617   10.0470   21.4510 C   0  0  0  0  0  0  0  0  0  0  0  0
    4.6630   10.8417   22.4644 O   0  0  0  0  0  0  0  0  0  0  0  0
    1.8621    4.2252   24.2664 C   0  0  0  0  0  0  0  0  0  0  0  0
    2.7498    3.7387   24.9112 O   0  0  0  0  0  0  0  0  0  0  0  0
    0.5001    3.9935   24.7270 C   0  0  0  0  0  0  0  0  0  0  0  0
    0.0737    3.0516   25.6480 C   0  0  0  0  0  0  0  0  0  0  0  0
   -1.2903    3.0136   25.7365 N   0  0  0  0  0  0  0  0  0  0  0  0
   -1.7049    4.0066   24.9840 C   0  0  0  0  0  0  0  0  0  0  0  0
   -0.6599    4.6354   24.3632 N   0  0  0  0  0  0  0  0  0  0  0  0
    1.4784    4.4384   20.9196 H   0  0  0  0  0  0  0  0  0  0  0  0
    2.4951    3.2039   21.8533 H   0  0  0  0  0  0  0  0  0  0  0  0
    0.8172    3.4448   22.1055 H   0  0  0  0  0  0  0  0  0  0  0  0
    3.5433    6.0728   22.9447 H   0  0  0  0  0  0  0  0  0  0  0  0
    3.8717    4.6573   22.1053 H   0  0  0  0  0  0  0  0  0  0  0  0
    1.8817    6.5204   20.7902 H   0  0  0  0  0  0  0  0  0  0  0  0
    2.8716    6.0809   18.7273 H   0  0  0  0  0  0  0  0  0  0  0  0
    3.2447    4.5642   19.5455 H   0  0  0  0  0  0  0  0  0  0  0  0
    5.5335    5.2263   19.7192 H   0  0  0  0  0  0  0  0  0  0  0  0
    5.0863    6.5490   18.6192 H   0  0  0  0  0  0  0  0  0  0  0  0
    5.5807    7.7722   20.5286 H   0  0  0  0  0  0  0  0  0  0  0  0
    5.1975    6.5562   21.6700 H   0  0  0  0  0  0  0  0  0  0  0  0
    3.1747   10.5694   21.0797 H   0  0  0  0  0  0  0  0  0  0  0  0
    4.7785    9.9392   20.6332 H   0  0  0  0  0  0  0  0  0  0  0  0
    4.1861   10.6170   23.2888 H   0  0  0  0  0  0  0  0  0  0  0  0
    0.6928    2.3659   26.2135 H   0  0  0  0  0  0  0  0  0  0  0  0
   -2.7348    4.3175   24.8550 H   0  0  0  0  0  0  0  0  0  0  0  0
   -0.7241    5.4333   23.7465 H   0  0  0  0  0  0  0  0  0  0  0  0
  1  2  1  0
  2  3  1  0
  3  4  1  0
  4  5  1  0
  5  6  1  0
  6  7  1  0
  7  8  1  0
  8  9  1  0
  9 10  2  0
  9 11  1  0
 11 12  1  0
  2 13  1  0
 13 14  2  0
 13 15  1  0
 15 16  2  0
 16 17  1  0
 17 18  2  0
 18 19  1  0
  8  4  1  0
 19 15  1  0
  1 20  1  0
  1 21  1  0
  1 22  1  0
  3 23  1  0
  3 24  1  0
  4 25  1  0
  5 26  1  0
  5 27  1  0
  6 28  1  0
  6 29  1  0
  7 30  1  0
  7 31  1  0
 11 32  1  0
 11 33  1  0
 12 34  1  0
 16 35  1  0
 18 36  1  0
 19 37  1  0
M  END
>  <Energy>  (1438) 
153.14985411145952

>  <compound_id>  (1438) 
10764

>  <target_id>  (1438) 
1

>  <reference_id>  (1438) 
53

>  <inspiration_ids>  (1438) 
[53, 80]

>  <energy_score>  (1438) 
93.20532634084555

>  <distance_score>  (1438) 
8.777859907650859

>  <path>  (1438) 
/opt/xchem-fragalysis-2/maxwin/BulkDock/SCRATCH/511013/C10764-P53/C10764-P53.minimised.mol

>  <scratch_subdir>  (1438) 
/opt/xchem-fragalysis-2/maxwin/BulkDock/SCRATCH/511013/C10764-P53

>  <fragmenstein_runtime>  (1438) 
6.869189023971558

>  <fragmenstein_outcome>  (1438) 
too moved

>  <fragmenstein_mode>  (1438) 
expansion

>  <fragmenstein_error>  (1438) 


$$$$
C10764-P80
     RDKit          3D

 37 38  0  0  0  0  0  0  0  0999 V2000
    4.8613   -0.8629   23.0575 C   0  0  0  0  0  0  0  0  0  0  0  0
    4.3882    0.4524   21.7000 N   0  0  0  0  0  0  0  0  0  0  0  0
    6.3120    0.0653   21.0525 C   0  0  0  0  0  0  0  0  0  0  0  0
    7.1967    0.8721   19.2455 C   0  0  0  0  0  0  0  0  0  0  0  0
    7.0568    2.6224   18.2950 C   0  0  0  0  0  0  0  0  0  0  0  0
    7.8284    2.6367   17.0653 C   0  0  0  0  0  0  0  0  0  0  0  0
    8.6070    1.4963   17.4879 C   0  0  0  0  0  0  0  0  0  0  0  0
    8.2351    0.0577   17.7713 N   0  0  0  0  0  0  0  0  0  0  0  0
    7.7767   -0.5947   16.5036 C   0  0  0  0  0  0  0  0  0  0  0  0
    6.6746   -0.6977   16.0316 O   0  0  0  0  0  0  0  0  0  0  0  0
    8.9625   -1.1179   15.6378 C   0  0  0  0  0  0  0  0  0  0  0  0
    8.6030   -2.2743   14.9151 O   0  0  0  0  0  0  0  0  0  0  0  0
    3.6037    2.0437   22.5349 C   0  0  0  0  0  0  0  0  0  0  0  0
    4.2197    3.0726   22.9111 O   0  0  0  0  0  0  0  0  0  0  0  0
    2.2677    2.2666   22.6833 C   0  0  0  0  0  0  0  0  0  0  0  0
    1.7025    2.8786   23.8406 C   0  0  0  0  0  0  0  0  0  0  0  0
    0.4770    3.4420   23.5789 N   0  0  0  0  0  0  0  0  0  0  0  0
    0.4166    3.5041   22.2692 C   0  0  0  0  0  0  0  0  0  0  0  0
    1.4968    2.8900   21.6850 N   0  0  0  0  0  0  0  0  0  0  0  0
    5.1315   -0.3826   23.9946 H   0  0  0  0  0  0  0  0  0  0  0  0
    5.2869   -1.7198   22.5136 H   0  0  0  0  0  0  0  0  0  0  0  0
    4.1414   -1.5843   23.5539 H   0  0  0  0  0  0  0  0  0  0  0  0
    6.7267    0.9827   21.6370 H   0  0  0  0  0  0  0  0  0  0  0  0
    6.7051   -0.9551   20.9736 H   0  0  0  0  0  0  0  0  0  0  0  0
    7.7381    1.4409   20.0103 H   0  0  0  0  0  0  0  0  0  0  0  0
    6.0552    2.8782   17.8665 H   0  0  0  0  0  0  0  0  0  0  0  0
    7.1773    3.5711   18.8182 H   0  0  0  0  0  0  0  0  0  0  0  0
    7.2460    2.4985   16.1562 H   0  0  0  0  0  0  0  0  0  0  0  0
    8.4253    3.5473   16.9497 H   0  0  0  0  0  0  0  0  0  0  0  0
    9.0357    1.3027   16.4846 H   0  0  0  0  0  0  0  0  0  0  0  0
    9.5923    1.8119   17.7942 H   0  0  0  0  0  0  0  0  0  0  0  0
    9.1973   -0.3228   14.9199 H   0  0  0  0  0  0  0  0  0  0  0  0
    9.8854   -1.3056   16.1779 H   0  0  0  0  0  0  0  0  0  0  0  0
    8.6348   -2.0251   13.9638 H   0  0  0  0  0  0  0  0  0  0  0  0
    2.1351    2.8925   24.8342 H   0  0  0  0  0  0  0  0  0  0  0  0
   -0.3525    4.0005   21.6910 H   0  0  0  0  0  0  0  0  0  0  0  0
    1.7781    2.9731   20.7188 H   0  0  0  0  0  0  0  0  0  0  0  0
  1  2  1  0
  2  3  1  0
  3  4  1  0
  4  5  1  0
  5  6  1  0
  6  7  1  0
  7  8  1  0
  8  9  1  0
  9 10  2  0
  9 11  1  0
 11 12  1  0
  2 13  1  0
 13 14  2  0
 13 15  1  0
 15 16  2  0
 16 17  1  0
 17 18  2  0
 18 19  1  0
  8  4  1  0
 19 15  1  0
  1 20  1  0
  1 21  1  0
  1 22  1  0
  3 23  1  0
  3 24  1  0
  4 25  1  0
  5 26  1  0
  5 27  1  0
  6 28  1  0
  6 29  1  0
  7 30  1  0
  7 31  1  0
 11 32  1  0
 11 33  1  0
 12 34  1  0
 16 35  1  0
 18 36  1  0
 19 37  1  0
M  END
>  <Energy>  (1439) 
732.52377136854216

>  <compound_id>  (1439) 
10764

>  <target_id>  (1439) 
1

>  <reference_id>  (1439) 
80

>  <inspiration_ids>  (1439) 
[53, 80]

>  <energy_score>  (1439) 
672.5792435979251

>  <distance_score>  (1439) 
6.350714853720788

>  <path>  (1439) 
/opt/xchem-fragalysis-2/maxwin/BulkDock/SCRATCH/511013/C10764-P80/C10764-P80.minimised.mol

>  <scratch_subdir>  (1439) 
/opt/xchem-fragalysis-2/maxwin/BulkDock/SCRATCH/511013/C10764-P80

>  <fragmenstein_runtime>  (1439) 
7.05647611618042

>  <fragmenstein_outcome>  (1439) 
too moved

>  <fragmenstein_mode>  (1439) 
expansion

>  <fragmenstein_error>  (1439) 


$$$$
C10765-P53
     RDKit          3D

 43 44  0  0  0  0  0  0  0  0999 V2000
    1.8065    3.5698   26.5907 C   0  0  0  0  0  0  0  0  0  0  0  0
    2.0414    4.2673   25.2571 C   0  0  0  0  0  0  0  0  0  0  0  0
    3.1132    5.2048   25.3990 O   0  0  0  0  0  0  0  0  0  0  0  0
    2.2005    3.3297   24.0368 C   0  0  0  0  0  0  0  0  0  0  0  0
    2.2994    4.1230   22.9265 F   0  0  0  0  0  0  0  0  0  0  0  0
    0.9757    2.7202   23.9015 F   0  0  0  0  0  0  0  0  0  0  0  0
    3.3664    2.2532   24.0862 C   0  0  0  0  0  0  0  0  0  0  0  0
    3.7222    1.8729   25.1701 O   0  0  0  0  0  0  0  0  0  0  0  0
    3.7829    1.8304   22.7383 N   0  0  0  0  0  0  0  0  0  0  0  0
    4.8707    0.7534   22.2673 C   0  0  0  0  0  0  0  0  0  0  0  0
    5.4420    0.2324   20.7207 C   0  0  0  0  0  0  0  0  0  0  0  0
    7.2573    0.4836   19.6966 C   0  0  0  0  0  0  0  0  0  0  0  0
    8.0348    1.8878   20.2188 C   0  0  0  0  0  0  0  0  0  0  0  0
    8.4916    2.9036   19.1642 C   0  0  0  0  0  0  0  0  0  0  0  0
    7.8417    2.5088   17.8959 C   0  0  0  0  0  0  0  0  0  0  0  0
    7.7440    1.0727   18.0765 N   0  0  0  0  0  0  0  0  0  0  0  0
    8.0847    0.3147   16.8064 C   0  0  0  0  0  0  0  0  0  0  0  0
    7.2606   -0.0037   15.9451 O   0  0  0  0  0  0  0  0  0  0  0  0
    9.4102   -0.0175   16.3585 C   0  0  0  0  0  0  0  0  0  0  0  0
   10.2947    0.9524   15.8817 C   0  0  0  0  0  0  0  0  0  0  0  0
   11.2590    0.4345   15.0518 N   0  0  0  0  0  0  0  0  0  0  0  0
   10.8606   -0.7869   14.8100 C   0  0  0  0  0  0  0  0  0  0  0  0
    9.7057   -1.0616   15.4824 N   0  0  0  0  0  0  0  0  0  0  0  0
    1.4693    4.2996   27.3359 H   0  0  0  0  0  0  0  0  0  0  0  0
    1.0458    2.7883   26.5092 H   0  0  0  0  0  0  0  0  0  0  0  0
    2.7272    3.1403   26.9950 H   0  0  0  0  0  0  0  0  0  0  0  0
    1.1472    4.8744   25.0641 H   0  0  0  0  0  0  0  0  0  0  0  0
    3.1334    5.7386   24.5828 H   0  0  0  0  0  0  0  0  0  0  0  0
    3.3304    2.4311   22.0438 H   0  0  0  0  0  0  0  0  0  0  0  0
    4.9941   -0.1058   22.9613 H   0  0  0  0  0  0  0  0  0  0  0  0
    5.5934    1.4242   22.3915 H   0  0  0  0  0  0  0  0  0  0  0  0
    4.6247    0.8469   20.6434 H   0  0  0  0  0  0  0  0  0  0  0  0
    5.4575   -0.7822   21.1458 H   0  0  0  0  0  0  0  0  0  0  0  0
    7.8119   -0.4286   19.7632 H   0  0  0  0  0  0  0  0  0  0  0  0
    8.9606    1.6782   20.7574 H   0  0  0  0  0  0  0  0  0  0  0  0
    7.3232    2.4582   20.7996 H   0  0  0  0  0  0  0  0  0  0  0  0
    8.2534    3.9334   19.4515 H   0  0  0  0  0  0  0  0  0  0  0  0
    9.5808    2.8588   19.0634 H   0  0  0  0  0  0  0  0  0  0  0  0
    6.9080    3.0289   17.7189 H   0  0  0  0  0  0  0  0  0  0  0  0
    8.4635    2.7644   17.0347 H   0  0  0  0  0  0  0  0  0  0  0  0
   10.2682    2.0168   16.0795 H   0  0  0  0  0  0  0  0  0  0  0  0
   11.3072   -1.4789   14.1074 H   0  0  0  0  0  0  0  0  0  0  0  0
    9.0353   -1.7496   15.1723 H   0  0  0  0  0  0  0  0  0  0  0  0
  1  2  1  0
  2  3  1  0
  2  4  1  0
  4  5  1  0
  4  6  1  0
  4  7  1  0
  7  8  2  0
  7  9  1  0
  9 10  1  0
 10 11  1  0
 11 12  1  0
 12 13  1  0
 13 14  1  0
 14 15  1  0
 15 16  1  0
 16 17  1  0
 17 18  2  0
 17 19  1  0
 19 20  2  0
 20 21  1  0
 21 22  2  0
 22 23  1  0
 16 12  1  0
 23 19  1  0
  1 24  1  0
  1 25  1  0
  1 26  1  0
  2 27  1  0
  3 28  1  0
  9 29  1  0
 10 30  1  0
 10 31  1  0
 11 32  1  0
 11 33  1  0
 12 34  1  0
 13 35  1  0
 13 36  1  0
 14 37  1  0
 14 38  1  0
 15 39  1  0
 15 40  1  0
 20 41  1  0
 22 42  1  0
 23 43  1  0
M  END
>  <Energy>  (1440) 
385.06916733642839

>  <compound_id>  (1440) 
10765

>  <target_id>  (1440) 
1

>  <reference_id>  (1440) 
53

>  <inspiration_ids>  (1440) 
[53, 80]

>  <energy_score>  (1440) 
274.97293372900236

>  <distance_score>  (1440) 
5.007802322172292

>  <path>  (1440) 
/opt/xchem-fragalysis-2/maxwin/BulkDock/SCRATCH/511013/C10765-P53/C10765-P53.minimised.mol

>  <scratch_subdir>  (1440) 
/opt/xchem-fragalysis-2/maxwin/BulkDock/SCRATCH/511013/C10765-P53

>  <fragmenstein_runtime>  (1440) 
6.7834672927856445

>  <fragmenstein_outcome>  (1440) 
too moved

>  <fragmenstein_mode>  (1440) 
expansion

>  <fragmenstein_error>  (1440) 


$$$$
C10765-P80
     RDKit          3D

 43 44  0  0  0  0  0  0  0  0999 V2000
    0.6788    5.1353   26.6472 C   0  0  0  0  0  0  0  0  0  0  0  0
    0.6578    3.6138   26.5913 C   0  0  0  0  0  0  0  0  0  0  0  0
   -0.5112    3.1701   25.8779 O   0  0  0  0  0  0  0  0  0  0  0  0
    1.9574    2.9805   26.0421 C   0  0  0  0  0  0  0  0  0  0  0  0
    1.9031    1.6445   26.3359 F   0  0  0  0  0  0  0  0  0  0  0  0
    3.0151    3.4428   26.7824 F   0  0  0  0  0  0  0  0  0  0  0  0
    2.2210    3.2283   24.5156 C   0  0  0  0  0  0  0  0  0  0  0  0
    1.9622    4.3112   24.0652 O   0  0  0  0  0  0  0  0  0  0  0  0
    2.8527    2.0682   23.8961 N   0  0  0  0  0  0  0  0  0  0  0  0
    3.2853    1.8265   22.4897 C   0  0  0  0  0  0  0  0  0  0  0  0
    4.7128    0.5456   22.0603 C   0  0  0  0  0  0  0  0  0  0  0  0
    6.5360    0.8390   21.5844 C   0  0  0  0  0  0  0  0  0  0  0  0
    6.8686    2.7380   21.5073 C   0  0  0  0  0  0  0  0  0  0  0  0
    7.6382    1.7784   20.8036 C   0  0  0  0  0  0  0  0  0  0  0  0
    6.9204    0.2342   20.6936 C   0  0  0  0  0  0  0  0  0  0  0  0
    8.0476    0.1953   20.3978 N   0  0  0  0  0  0  0  0  0  0  0  0
    8.1695   -0.5714   19.2608 C   0  0  0  0  0  0  0  0  0  0  0  0
    8.3267   -1.6385   19.5279 O   0  0  0  0  0  0  0  0  0  0  0  0
    8.2240    0.0943   17.6214 C   0  0  0  0  0  0  0  0  0  0  0  0
    8.4674   -0.4695   16.3429 C   0  0  0  0  0  0  0  0  0  0  0  0
    9.1100    0.3889   15.4899 N   0  0  0  0  0  0  0  0  0  0  0  0
    9.1119    1.5381   16.1052 C   0  0  0  0  0  0  0  0  0  0  0  0
    8.4603    1.4479   17.2891 N   0  0  0  0  0  0  0  0  0  0  0  0
    1.5898    5.5094   27.1230 H   0  0  0  0  0  0  0  0  0  0  0  0
    0.5813    5.5827   25.6540 H   0  0  0  0  0  0  0  0  0  0  0  0
   -0.1793    5.4996   27.2239 H   0  0  0  0  0  0  0  0  0  0  0  0
    0.5372    3.2486   27.6186 H   0  0  0  0  0  0  0  0  0  0  0  0
   -1.2638    3.7090   26.1899 H   0  0  0  0  0  0  0  0  0  0  0  0
    2.9890    1.3459   24.6020 H   0  0  0  0  0  0  0  0  0  0  0  0
    3.3889    2.9086   22.2891 H   0  0  0  0  0  0  0  0  0  0  0  0
    2.4809    1.6500   21.7696 H   0  0  0  0  0  0  0  0  0  0  0  0
    4.8644    0.2180   23.1167 H   0  0  0  0  0  0  0  0  0  0  0  0
    4.5537   -0.4810   21.8538 H   0  0  0  0  0  0  0  0  0  0  0  0
    6.7367    1.1935   22.4558 H   0  0  0  0  0  0  0  0  0  0  0  0
    7.6193    3.3562   22.0502 H   0  0  0  0  0  0  0  0  0  0  0  0
    6.4406    3.5421   20.9017 H   0  0  0  0  0  0  0  0  0  0  0  0
    7.5255    2.0176   19.7160 H   0  0  0  0  0  0  0  0  0  0  0  0
    8.5079    1.8853   21.5007 H   0  0  0  0  0  0  0  0  0  0  0  0
    6.5193    0.0673   19.6091 H   0  0  0  0  0  0  0  0  0  0  0  0
    6.9152   -0.8829   20.9453 H   0  0  0  0  0  0  0  0  0  0  0  0
    8.3667   -1.4874   15.9995 H   0  0  0  0  0  0  0  0  0  0  0  0
    9.5129    2.4687   15.7262 H   0  0  0  0  0  0  0  0  0  0  0  0
    8.1957    2.2316   17.8625 H   0  0  0  0  0  0  0  0  0  0  0  0
  1  2  1  0
  2  3  1  0
  2  4  1  0
  4  5  1  0
  4  6  1  0
  4  7  1  0
  7  8  2  0
  7  9  1  0
  9 10  1  0
 10 11  1  0
 11 12  1  0
 12 13  1  0
 13 14  1  0
 14 15  1  0
 15 16  1  0
 16 17  1  0
 17 18  2  0
 17 19  1  0
 19 20  2  0
 20 21  1  0
 21 22  2  0
 22 23  1  0
 16 12  1  0
 23 19  1  0
  1 24  1  0
  1 25  1  0
  1 26  1  0
  2 27  1  0
  3 28  1  0
  9 29  1  0
 10 30  1  0
 10 31  1  0
 11 32  1  0
 11 33  1  0
 12 34  1  0
 13 35  1  0
 13 36  1  0
 14 37  1  0
 14 38  1  0
 15 39  1  0
 15 40  1  0
 20 41  1  0
 22 42  1  0
 23 43  1  0
M  END
>  <Energy>  (1441) 
1100.8104346529776

>  <compound_id>  (1441) 
10765

>  <target_id>  (1441) 
1

>  <reference_id>  (1441) 
80

>  <inspiration_ids>  (1441) 
[53, 80]

>  <energy_score>  (1441) 
990.7142010455505

>  <distance_score>  (1441) 
4.577164457781497

>  <path>  (1441) 
/opt/xchem-fragalysis-2/maxwin/BulkDock/SCRATCH/511013/C10765-P80/C10765-P80.minimised.mol

>  <scratch_subdir>  (1441) 
/opt/xchem-fragalysis-2/maxwin/BulkDock/SCRATCH/511013/C10765-P80

>  <fragmenstein_runtime>  (1441) 
6.772745132446289

>  <fragmenstein_outcome>  (1441) 
too moved

>  <fragmenstein_mode>  (1441) 
expansion

>  <fragmenstein_error>  (1441) 


$$$$
C10768-P53
     RDKit          3D

 42 45  0  0  0  0  0  0  0  0999 V2000
    0.0753    6.5718   24.6528 O   0  0  0  0  0  0  0  0  0  0  0  0
    0.3682    5.5750   25.2480 C   0  0  0  0  0  0  0  0  0  0  0  0
   -0.2648    5.3178   26.6250 C   0  0  0  0  0  0  0  0  0  0  0  0
   -1.0735    4.0607   26.6486 C   0  0  0  0  0  0  0  0  0  0  0  0
   -1.5016    3.1896   25.6663 C   0  0  0  0  0  0  0  0  0  0  0  0
   -2.1144    2.0972   26.2119 N   0  0  0  0  0  0  0  0  0  0  0  0
   -2.1996    2.3629   27.4942 C   0  0  0  0  0  0  0  0  0  0  0  0
   -1.6151    3.5577   27.8060 N   0  0  0  0  0  0  0  0  0  0  0  0
    1.2123    4.4691   24.8723 N   0  0  0  0  0  0  0  0  0  0  0  0
    1.8833    4.1754   23.6375 C   0  0  0  0  0  0  0  0  0  0  0  0
    3.2215    3.4485   23.7697 C   0  0  0  0  0  0  0  0  0  0  0  0
    3.2072    2.1343   24.4028 C   0  0  0  0  0  0  0  0  0  0  0  0
    4.4871    1.4419   23.9750 C   0  0  0  0  0  0  0  0  0  0  0  0
    4.9638    1.5853   22.2002 N   0  0  0  0  0  0  0  0  0  0  0  0
    6.5086    2.3416   21.2030 C   0  0  0  0  0  0  0  0  0  0  0  0
    6.5651    3.8818   20.9996 N   0  0  0  0  0  0  0  0  0  0  0  0
    7.5235    4.6144   20.4045 C   0  0  0  0  0  0  0  0  0  0  0  0
    8.5336    4.1775   19.6923 N   0  0  0  0  0  0  0  0  0  0  0  0
    8.4550    2.8681   19.4051 C   0  0  0  0  0  0  0  0  0  0  0  0
    8.9928    2.4131   18.1640 C   0  0  0  0  0  0  0  0  0  0  0  0
    8.6596    1.1228   17.8890 C   0  0  0  0  0  0  0  0  0  0  0  0
    7.9706    0.3914   19.2522 S   0  0  0  0  0  0  0  0  0  0  0  0
    7.6772    1.9247   20.1077 C   0  0  0  0  0  0  0  0  0  0  0  0
    3.6445    2.9857   22.3862 C   0  0  0  0  0  0  0  0  0  0  0  0
    0.5401    5.2724   27.3678 H   0  0  0  0  0  0  0  0  0  0  0  0
   -0.9042    6.1711   26.8795 H   0  0  0  0  0  0  0  0  0  0  0  0
   -1.3671    3.2743   24.5951 H   0  0  0  0  0  0  0  0  0  0  0  0
   -2.6782    1.7423   28.2368 H   0  0  0  0  0  0  0  0  0  0  0  0
   -1.6079    4.0005   28.7196 H   0  0  0  0  0  0  0  0  0  0  0  0
    1.1655    3.7573   25.5938 H   0  0  0  0  0  0  0  0  0  0  0  0
    2.0202    5.1218   23.1010 H   0  0  0  0  0  0  0  0  0  0  0  0
    1.1665    3.5911   23.0498 H   0  0  0  0  0  0  0  0  0  0  0  0
    3.9162    4.1320   24.2669 H   0  0  0  0  0  0  0  0  0  0  0  0
    2.3794    1.6476   23.9641 H   0  0  0  0  0  0  0  0  0  0  0  0
    3.0824    2.1613   25.4888 H   0  0  0  0  0  0  0  0  0  0  0  0
    5.2117    1.8636   24.6981 H   0  0  0  0  0  0  0  0  0  0  0  0
    4.3869    0.3745   24.2276 H   0  0  0  0  0  0  0  0  0  0  0  0
    7.4373    5.6893   20.5221 H   0  0  0  0  0  0  0  0  0  0  0  0
    9.4952    3.0658   17.4620 H   0  0  0  0  0  0  0  0  0  0  0  0
    8.8385    0.5817   16.9713 H   0  0  0  0  0  0  0  0  0  0  0  0
    3.9692    3.9532   21.9422 H   0  0  0  0  0  0  0  0  0  0  0  0
    2.7885    2.5550   21.8427 H   0  0  0  0  0  0  0  0  0  0  0  0
  1  2  2  0
  2  3  1  0
  3  4  1  0
  4  5  2  0
  5  6  1  0
  6  7  2  0
  7  8  1  0
  2  9  1  0
  9 10  1  0
 10 11  1  0
 11 12  1  0
 12 13  1  0
 13 14  1  0
 14 15  1  0
 15 16  2  0
 16 17  1  0
 17 18  2  0
 18 19  1  0
 19 20  1  0
 20 21  2  0
 21 22  1  0
 22 23  1  0
 14 24  1  0
  8  4  1  0
 24 11  1  0
 23 15  1  0
 23 19  2  0
  3 25  1  0
  3 26  1  0
  5 27  1  0
  7 28  1  0
  8 29  1  0
  9 30  1  0
 10 31  1  0
 10 32  1  0
 11 33  1  0
 12 34  1  0
 12 35  1  0
 13 36  1  0
 13 37  1  0
 17 38  1  0
 20 39  1  0
 21 40  1  0
 24 41  1  0
 24 42  1  0
M  END
>  <Energy>  (1442) 
317.50557937809833

>  <compound_id>  (1442) 
10768

>  <target_id>  (1442) 
1

>  <reference_id>  (1442) 
53

>  <inspiration_ids>  (1442) 
[53, 80]

>  <energy_score>  (1442) 
269.890069335537

>  <distance_score>  (1442) 
6.482645639989056

>  <path>  (1442) 
/opt/xchem-fragalysis-2/maxwin/BulkDock/SCRATCH/511013/C10768-P53/C10768-P53.minimised.mol

>  <scratch_subdir>  (1442) 
/opt/xchem-fragalysis-2/maxwin/BulkDock/SCRATCH/511013/C10768-P53

>  <fragmenstein_runtime>  (1442) 
10.592764377593994

>  <fragmenstein_outcome>  (1442) 
too moved

>  <fragmenstein_mode>  (1442) 
expansion

>  <fragmenstein_error>  (1442) 


$$$$
C10768-P80
     RDKit          3D

 42 45  0  0  0  0  0  0  0  0999 V2000
    4.0612   -0.8450   28.1828 O   0  0  0  0  0  0  0  0  0  0  0  0
    3.6284   -1.5063   27.2813 C   0  0  0  0  0  0  0  0  0  0  0  0
    3.0029   -2.8681   27.6113 C   0  0  0  0  0  0  0  0  0  0  0  0
    1.7357   -2.7314   28.3894 C   0  0  0  0  0  0  0  0  0  0  0  0
    1.2715   -3.4142   29.4939 C   0  0  0  0  0  0  0  0  0  0  0  0
    0.0100   -3.0012   29.8359 N   0  0  0  0  0  0  0  0  0  0  0  0
   -0.2888   -2.0615   28.9689 C   0  0  0  0  0  0  0  0  0  0  0  0
    0.7342   -1.8446   28.0905 N   0  0  0  0  0  0  0  0  0  0  0  0
    3.6517   -1.2860   25.8600 N   0  0  0  0  0  0  0  0  0  0  0  0
    4.1184   -0.1572   25.0819 C   0  0  0  0  0  0  0  0  0  0  0  0
    4.8970   -0.5252   23.6930 C   0  0  0  0  0  0  0  0  0  0  0  0
    4.9780   -1.9285   23.2743 C   0  0  0  0  0  0  0  0  0  0  0  0
    5.6589   -1.8953   21.6379 C   0  0  0  0  0  0  0  0  0  0  0  0
    6.5350   -0.4366   20.8941 N   0  0  0  0  0  0  0  0  0  0  0  0
    7.1983    0.0906   19.3412 C   0  0  0  0  0  0  0  0  0  0  0  0
    7.3521    1.6518   19.1757 N   0  0  0  0  0  0  0  0  0  0  0  0
    7.7389    2.4816   18.0348 C   0  0  0  0  0  0  0  0  0  0  0  0
    8.5769    2.2075   17.0628 N   0  0  0  0  0  0  0  0  0  0  0  0
    8.7176    0.8816   16.9527 C   0  0  0  0  0  0  0  0  0  0  0  0
    9.6619    0.3362   16.0214 C   0  0  0  0  0  0  0  0  0  0  0  0
    9.2565   -0.8911   15.5878 C   0  0  0  0  0  0  0  0  0  0  0  0
    7.5742   -0.9573   15.9456 S   0  0  0  0  0  0  0  0  0  0  0  0
    7.9946   -0.1000   17.7772 C   0  0  0  0  0  0  0  0  0  0  0  0
    5.1363    0.4515   21.9420 C   0  0  0  0  0  0  0  0  0  0  0  0
    2.8310   -3.4708   26.7162 H   0  0  0  0  0  0  0  0  0  0  0  0
    3.7452   -3.4204   28.2019 H   0  0  0  0  0  0  0  0  0  0  0  0
    1.7754   -4.1936   30.0510 H   0  0  0  0  0  0  0  0  0  0  0  0
   -1.2182   -1.5106   28.9244 H   0  0  0  0  0  0  0  0  0  0  0  0
    0.7355   -1.1728   27.3365 H   0  0  0  0  0  0  0  0  0  0  0  0
    3.1128   -2.0176   25.4020 H   0  0  0  0  0  0  0  0  0  0  0  0
    4.8234    0.3173   25.7776 H   0  0  0  0  0  0  0  0  0  0  0  0
    3.3015    0.5645   24.9984 H   0  0  0  0  0  0  0  0  0  0  0  0
    5.7070   -0.7990   24.2381 H   0  0  0  0  0  0  0  0  0  0  0  0
    3.9689   -2.3556   23.3880 H   0  0  0  0  0  0  0  0  0  0  0  0
    5.5729   -2.4337   24.0457 H   0  0  0  0  0  0  0  0  0  0  0  0
    5.6180   -2.7889   21.0110 H   0  0  0  0  0  0  0  0  0  0  0  0
    4.8719   -1.2694   21.6967 H   0  0  0  0  0  0  0  0  0  0  0  0
    7.3480    3.4960   18.0587 H   0  0  0  0  0  0  0  0  0  0  0  0
   10.4697    0.8926   15.5635 H   0  0  0  0  0  0  0  0  0  0  0  0
    9.7061   -1.5234   14.8379 H   0  0  0  0  0  0  0  0  0  0  0  0
    6.0122    1.1151   22.0661 H   0  0  0  0  0  0  0  0  0  0  0  0
    4.1714    0.6604   21.5576 H   0  0  0  0  0  0  0  0  0  0  0  0
  1  2  2  0
  2  3  1  0
  3  4  1  0
  4  5  2  0
  5  6  1  0
  6  7  2  0
  7  8  1  0
  2  9  1  0
  9 10  1  0
 10 11  1  0
 11 12  1  0
 12 13  1  0
 13 14  1  0
 14 15  1  0
 15 16  2  0
 16 17  1  0
 17 18  2  0
 18 19  1  0
 19 20  1  0
 20 21  2  0
 21 22  1  0
 22 23  1  0
 14 24  1  0
  8  4  1  0
 24 11  1  0
 23 15  1  0
 23 19  2  0
  3 25  1  0
  3 26  1  0
  5 27  1  0
  7 28  1  0
  8 29  1  0
  9 30  1  0
 10 31  1  0
 10 32  1  0
 11 33  1  0
 12 34  1  0
 12 35  1  0
 13 36  1  0
 13 37  1  0
 17 38  1  0
 20 39  1  0
 21 40  1  0
 24 41  1  0
 24 42  1  0
M  END
>  <Energy>  (1443) 
577.22696466740251

>  <compound_id>  (1443) 
10768

>  <target_id>  (1443) 
1

>  <reference_id>  (1443) 
80

>  <inspiration_ids>  (1443) 
[53, 80]

>  <energy_score>  (1443) 
529.6114546248355

>  <distance_score>  (1443) 
7.04769387045547

>  <path>  (1443) 
/opt/xchem-fragalysis-2/maxwin/BulkDock/SCRATCH/511013/C10768-P80/C10768-P80.minimised.mol

>  <scratch_subdir>  (1443) 
/opt/xchem-fragalysis-2/maxwin/BulkDock/SCRATCH/511013/C10768-P80

>  <fragmenstein_runtime>  (1443) 
9.731488943099976

>  <fragmenstein_outcome>  (1443) 
too moved

>  <fragmenstein_mode>  (1443) 
expansion

>  <fragmenstein_error>  (1443) 


$$$$
C10769-P53
     RDKit          3D

 52 53  0  0  0  0  0  0  0  0999 V2000
    9.9834    1.5467   13.3715 C   0  0  0  0  0  0  0  0  0  0  0  0
   10.0965    0.8384   14.7211 C   0  0  0  0  0  0  0  0  0  0  0  0
   11.4321    0.0499   14.6844 C   0  0  0  0  0  0  0  0  0  0  0  0
    8.9899   -0.1912   14.9720 C   0  0  0  0  0  0  0  0  0  0  0  0
   10.0828    1.9059   15.8499 C   0  0  0  0  0  0  0  0  0  0  0  0
    8.7974    2.6818   16.2255 C   0  0  0  0  0  0  0  0  0  0  0  0
    7.8400    2.6382   15.5167 O   0  0  0  0  0  0  0  0  0  0  0  0
    8.9826    3.2946   17.5148 N   0  0  0  0  0  0  0  0  0  0  0  0
    8.0461    3.9597   18.3881 C   0  0  0  0  0  0  0  0  0  0  0  0
    8.2506    5.3861   18.9255 C   0  0  0  0  0  0  0  0  0  0  0  0
    9.1569    6.0694   18.7338 O   0  0  0  0  0  0  0  0  0  0  0  0
    6.8922    5.5839   19.7905 N   0  0  0  0  0  0  0  0  0  0  0  0
    6.4149    7.2837   20.6057 C   0  0  0  0  0  0  0  0  0  0  0  0
    4.9987    7.6391   21.2630 C   0  0  0  0  0  0  0  0  0  0  0  0
    4.7119    6.4414   20.5434 C   0  0  0  0  0  0  0  0  0  0  0  0
    3.9582    5.4442   21.2654 N   0  0  0  0  0  0  0  0  0  0  0  0
    2.7975    5.5687   22.1248 C   0  0  0  0  0  0  0  0  0  0  0  0
    2.2173    6.5403   22.5174 O   0  0  0  0  0  0  0  0  0  0  0  0
    2.3082    4.1558   22.5118 C   0  0  0  0  0  0  0  0  0  0  0  0
    1.3627    4.1026   23.6735 C   0  0  0  0  0  0  0  0  0  0  0  0
    1.4023    3.3855   24.8518 C   0  0  0  0  0  0  0  0  0  0  0  0
    0.2537    3.5499   25.5740 N   0  0  0  0  0  0  0  0  0  0  0  0
   -0.4685    4.4050   24.8871 C   0  0  0  0  0  0  0  0  0  0  0  0
    0.1686    4.7846   23.7365 N   0  0  0  0  0  0  0  0  0  0  0  0
    6.4336    6.4925   20.6236 C   0  0  0  0  0  0  0  0  0  0  0  0
   10.8985    2.1093   13.1486 H   0  0  0  0  0  0  0  0  0  0  0  0
    9.1723    2.2729   13.3601 H   0  0  0  0  0  0  0  0  0  0  0  0
    9.8239    0.8509   12.5468 H   0  0  0  0  0  0  0  0  0  0  0  0
   12.2924    0.7202   14.7750 H   0  0  0  0  0  0  0  0  0  0  0  0
   11.4881   -0.7083   15.4682 H   0  0  0  0  0  0  0  0  0  0  0  0
   11.5375   -0.4917   13.7361 H   0  0  0  0  0  0  0  0  0  0  0  0
    9.0735   -0.6001   15.9828 H   0  0  0  0  0  0  0  0  0  0  0  0
    7.9971    0.2355   14.8834 H   0  0  0  0  0  0  0  0  0  0  0  0
    9.0494   -1.0395   14.2895 H   0  0  0  0  0  0  0  0  0  0  0  0
   10.8637    2.6486   15.6538 H   0  0  0  0  0  0  0  0  0  0  0  0
   10.2944    1.3505   16.7598 H   0  0  0  0  0  0  0  0  0  0  0  0
    9.9645    3.2036   17.7900 H   0  0  0  0  0  0  0  0  0  0  0  0
    7.9391    3.2977   19.2547 H   0  0  0  0  0  0  0  0  0  0  0  0
    7.1006    3.9773   17.8372 H   0  0  0  0  0  0  0  0  0  0  0  0
    6.3923    7.9864   19.5963 H   0  0  0  0  0  0  0  0  0  0  0  0
    7.3486    7.9736   21.0369 H   0  0  0  0  0  0  0  0  0  0  0  0
    4.5665    8.5637   20.8757 H   0  0  0  0  0  0  0  0  0  0  0  0
    5.0185    7.5867   22.3565 H   0  0  0  0  0  0  0  0  0  0  0  0
    4.3451    6.5489   19.5143 H   0  0  0  0  0  0  0  0  0  0  0  0
    4.1273    4.4510   21.0725 H   0  0  0  0  0  0  0  0  0  0  0  0
    3.1751    3.5373   22.7634 H   0  0  0  0  0  0  0  0  0  0  0  0
    1.8216    3.7199   21.6312 H   0  0  0  0  0  0  0  0  0  0  0  0
    2.1890    2.7339   25.2076 H   0  0  0  0  0  0  0  0  0  0  0  0
   -1.4434    4.7862   25.1682 H   0  0  0  0  0  0  0  0  0  0  0  0
   -0.1737    5.4632   23.0680 H   0  0  0  0  0  0  0  0  0  0  0  0
    7.2100    6.2904   21.7196 H   0  0  0  0  0  0  0  0  0  0  0  0
    6.1729    5.5071   21.2586 H   0  0  0  0  0  0  0  0  0  0  0  0
  1  2  1  0
  2  3  1  0
  2  4  1  0
  2  5  1  0
  5  6  1  0
  6  7  2  0
  6  8  1  0
  8  9  1  0
  9 10  1  0
 10 11  2  0
 10 12  1  0
 12 13  1  0
 13 14  1  0
 14 15  1  0
 15 16  1  0
 16 17  1  0
 17 18  2  0
 17 19  1  0
 19 20  1  0
 20 21  2  0
 21 22  1  0
 22 23  2  0
 23 24  1  0
 15 25  1  0
 25 12  1  0
 24 20  1  0
  1 26  1  0
  1 27  1  0
  1 28  1  0
  3 29  1  0
  3 30  1  0
  3 31  1  0
  4 32  1  0
  4 33  1  0
  4 34  1  0
  5 35  1  0
  5 36  1  0
  8 37  1  0
  9 38  1  0
  9 39  1  0
 13 40  1  0
 13 41  1  0
 14 42  1  0
 14 43  1  0
 15 44  1  0
 16 45  1  0
 19 46  1  0
 19 47  1  0
 21 48  1  0
 23 49  1  0
 24 50  1  0
 25 51  1  0
 25 52  1  0
M  END
>  <Energy>  (1444) 
795.08989633529927

>  <compound_id>  (1444) 
10769

>  <target_id>  (1444) 
1

>  <reference_id>  (1444) 
53

>  <inspiration_ids>  (1444) 
[53, 80]

>  <energy_score>  (1444) 
708.3597237170468

>  <distance_score>  (1444) 
6.202998162212263

>  <path>  (1444) 
/opt/xchem-fragalysis-2/maxwin/BulkDock/SCRATCH/511013/C10769-P53/C10769-P53.minimised.mol

>  <scratch_subdir>  (1444) 
/opt/xchem-fragalysis-2/maxwin/BulkDock/SCRATCH/511013/C10769-P53

>  <fragmenstein_runtime>  (1444) 
12.68153977394104

>  <fragmenstein_outcome>  (1444) 
too moved

>  <fragmenstein_mode>  (1444) 
expansion

>  <fragmenstein_error>  (1444) 


$$$$
C10769-P80
     RDKit          3D

 52 53  0  0  0  0  0  0  0  0999 V2000
   11.0711    0.9527   14.1048 C   0  0  0  0  0  0  0  0  0  0  0  0
   10.7993    1.8316   15.3463 C   0  0  0  0  0  0  0  0  0  0  0  0
   12.0952    1.8397   16.1765 C   0  0  0  0  0  0  0  0  0  0  0  0
    9.6590    1.2005   16.1461 C   0  0  0  0  0  0  0  0  0  0  0  0
   10.4089    3.2688   14.8953 C   0  0  0  0  0  0  0  0  0  0  0  0
   10.0761    4.3105   15.9953 C   0  0  0  0  0  0  0  0  0  0  0  0
   10.9877    4.9186   16.4771 O   0  0  0  0  0  0  0  0  0  0  0  0
    8.6549    4.4256   16.2037 N   0  0  0  0  0  0  0  0  0  0  0  0
    7.8765    5.3793   16.9908 C   0  0  0  0  0  0  0  0  0  0  0  0
    6.5771    4.7967   17.6044 C   0  0  0  0  0  0  0  0  0  0  0  0
    6.1361    3.7636   17.3493 O   0  0  0  0  0  0  0  0  0  0  0  0
    6.1226    5.9917   18.6916 N   0  0  0  0  0  0  0  0  0  0  0  0
    5.1171    5.7830   19.5998 C   0  0  0  0  0  0  0  0  0  0  0  0
    3.7898    4.9743   18.9245 C   0  0  0  0  0  0  0  0  0  0  0  0
    3.1691    6.2130   19.2599 C   0  0  0  0  0  0  0  0  0  0  0  0
    2.0202    6.0851   20.1275 N   0  0  0  0  0  0  0  0  0  0  0  0
    1.9034    5.5846   21.4861 C   0  0  0  0  0  0  0  0  0  0  0  0
    2.7442    5.2242   22.2609 O   0  0  0  0  0  0  0  0  0  0  0  0
    0.4034    5.5819   21.9020 C   0  0  0  0  0  0  0  0  0  0  0  0
    0.0230    4.4970   22.8697 C   0  0  0  0  0  0  0  0  0  0  0  0
   -1.0419    3.6143   22.8938 C   0  0  0  0  0  0  0  0  0  0  0  0
   -1.0142    2.8246   24.0169 N   0  0  0  0  0  0  0  0  0  0  0  0
    0.0086    3.2708   24.7141 C   0  0  0  0  0  0  0  0  0  0  0  0
    0.6943    4.2452   24.0420 N   0  0  0  0  0  0  0  0  0  0  0  0
    4.6348    6.3137   19.8762 C   0  0  0  0  0  0  0  0  0  0  0  0
   11.3499   -0.0677   14.3919 H   0  0  0  0  0  0  0  0  0  0  0  0
   11.8891    1.3646   13.5030 H   0  0  0  0  0  0  0  0  0  0  0  0
   10.1924    0.8843   13.4590 H   0  0  0  0  0  0  0  0  0  0  0  0
   12.9172    2.2970   15.6139 H   0  0  0  0  0  0  0  0  0  0  0  0
   11.9755    2.4117   17.1015 H   0  0  0  0  0  0  0  0  0  0  0  0
   12.4063    0.8238   16.4442 H   0  0  0  0  0  0  0  0  0  0  0  0
    9.8856    0.1596   16.3888 H   0  0  0  0  0  0  0  0  0  0  0  0
    8.7236    1.1902   15.5939 H   0  0  0  0  0  0  0  0  0  0  0  0
    9.4666    1.7499   17.0693 H   0  0  0  0  0  0  0  0  0  0  0  0
   11.2395    3.6979   14.3162 H   0  0  0  0  0  0  0  0  0  0  0  0
    9.5776    3.2354   14.1843 H   0  0  0  0  0  0  0  0  0  0  0  0
    8.1756    3.8035   15.5638 H   0  0  0  0  0  0  0  0  0  0  0  0
    7.6028    6.2001   16.3210 H   0  0  0  0  0  0  0  0  0  0  0  0
    8.5244    5.7648   17.7838 H   0  0  0  0  0  0  0  0  0  0  0  0
    5.8447    5.3751   20.6438 H   0  0  0  0  0  0  0  0  0  0  0  0
    5.4335    4.6328   19.5693 H   0  0  0  0  0  0  0  0  0  0  0  0
    3.4415    4.1195   19.5137 H   0  0  0  0  0  0  0  0  0  0  0  0
    3.8709    4.7746   17.8530 H   0  0  0  0  0  0  0  0  0  0  0  0
    2.9780    6.8885   18.4205 H   0  0  0  0  0  0  0  0  0  0  0  0
    1.0913    6.2162   19.7415 H   0  0  0  0  0  0  0  0  0  0  0  0
    0.1901    6.5593   22.3507 H   0  0  0  0  0  0  0  0  0  0  0  0
   -0.2327    5.4783   21.0153 H   0  0  0  0  0  0  0  0  0  0  0  0
   -1.8366    3.5128   22.1639 H   0  0  0  0  0  0  0  0  0  0  0  0
    0.3188    2.9162   25.6885 H   0  0  0  0  0  0  0  0  0  0  0  0
    1.5480    4.6969   24.3479 H   0  0  0  0  0  0  0  0  0  0  0  0
    4.6799    7.5391   19.7137 H   0  0  0  0  0  0  0  0  0  0  0  0
    4.6960    6.6165   21.1002 H   0  0  0  0  0  0  0  0  0  0  0  0
  1  2  1  0
  2  3  1  0
  2  4  1  0
  2  5  1  0
  5  6  1  0
  6  7  2  0
  6  8  1  0
  8  9  1  0
  9 10  1  0
 10 11  2  0
 10 12  1  0
 12 13  1  0
 13 14  1  0
 14 15  1  0
 15 16  1  0
 16 17  1  0
 17 18  2  0
 17 19  1  0
 19 20  1  0
 20 21  2  0
 21 22  1  0
 22 23  2  0
 23 24  1  0
 15 25  1  0
 25 12  1  0
 24 20  1  0
  1 26  1  0
  1 27  1  0
  1 28  1  0
  3 29  1  0
  3 30  1  0
  3 31  1  0
  4 32  1  0
  4 33  1  0
  4 34  1  0
  5 35  1  0
  5 36  1  0
  8 37  1  0
  9 38  1  0
  9 39  1  0
 13 40  1  0
 13 41  1  0
 14 42  1  0
 14 43  1  0
 15 44  1  0
 16 45  1  0
 19 46  1  0
 19 47  1  0
 21 48  1  0
 23 49  1  0
 24 50  1  0
 25 51  1  0
 25 52  1  0
M  END
>  <Energy>  (1445) 
766.49745108151399

>  <compound_id>  (1445) 
10769

>  <target_id>  (1445) 
1

>  <reference_id>  (1445) 
80

>  <inspiration_ids>  (1445) 
[53, 80]

>  <energy_score>  (1445) 
679.7672784632558

>  <distance_score>  (1445) 
6.735017661159568

>  <path>  (1445) 
/opt/xchem-fragalysis-2/maxwin/BulkDock/SCRATCH/511013/C10769-P80/C10769-P80.minimised.mol

>  <scratch_subdir>  (1445) 
/opt/xchem-fragalysis-2/maxwin/BulkDock/SCRATCH/511013/C10769-P80

>  <fragmenstein_runtime>  (1445) 
16.636447429656982

>  <fragmenstein_outcome>  (1445) 
too moved

>  <fragmenstein_mode>  (1445) 
expansion

>  <fragmenstein_error>  (1445) 


$$$$
C10770-P53
     RDKit          3D

 39 42  0  0  0  0  0  0  0  0999 V2000
    0.3554   -2.5598   21.1372 O   0  0  0  0  0  0  0  0  0  0  0  0
    0.4999   -3.0462   22.2234 C   0  0  0  0  0  0  0  0  0  0  0  0
    2.2426   -3.3685   22.9466 C   0  0  0  0  0  0  0  0  0  0  0  0
    3.0574   -3.9176   24.4674 C   0  0  0  0  0  0  0  0  0  0  0  0
    4.1933   -3.2864   24.9992 N   0  0  0  0  0  0  0  0  0  0  0  0
    4.3467   -2.2641   24.2236 C   0  0  0  0  0  0  0  0  0  0  0  0
    3.4863   -2.3514   23.0906 N   0  0  0  0  0  0  0  0  0  0  0  0
   -0.4259   -3.3384   23.1868 N   0  0  0  0  0  0  0  0  0  0  0  0
   -0.9461   -4.7695   23.0000 C   0  0  0  0  0  0  0  0  0  0  0  0
   -2.0199   -4.7612   21.8774 C   0  0  0  0  0  0  0  0  0  0  0  0
   -2.9913   -3.6249   22.1798 C   0  0  0  0  0  0  0  0  0  0  0  0
   -2.2657   -2.9769   23.3194 C   0  0  0  0  0  0  0  0  0  0  0  0
   -2.7772   -1.7638   24.8588 C   0  0  0  0  0  0  0  0  0  0  0  0
   -3.1908   -2.1598   26.0750 C   0  0  0  0  0  0  0  0  0  0  0  0
   -2.5237   -1.8149   27.3957 C   0  0  0  0  0  0  0  0  0  0  0  0
   -1.3300   -1.1654   27.5564 C   0  0  0  0  0  0  0  0  0  0  0  0
   -1.1673   -0.2517   26.5902 C   0  0  0  0  0  0  0  0  0  0  0  0
   -0.3949    0.8688   26.9711 C   0  0  0  0  0  0  0  0  0  0  0  0
   -0.8419    2.1259   26.6321 C   0  0  0  0  0  0  0  0  0  0  0  0
   -2.1023    2.1831   26.0917 C   0  0  0  0  0  0  0  0  0  0  0  0
   -2.7300    0.9802   25.6885 C   0  0  0  0  0  0  0  0  0  0  0  0
   -2.1280   -0.3361   25.5302 C   0  0  0  0  0  0  0  0  0  0  0  0
    2.7339   -4.7727   25.0733 H   0  0  0  0  0  0  0  0  0  0  0  0
    4.9918   -1.4108   24.3620 H   0  0  0  0  0  0  0  0  0  0  0  0
    3.5881   -1.5267   22.5801 H   0  0  0  0  0  0  0  0  0  0  0  0
   -1.3111   -5.2650   23.9063 H   0  0  0  0  0  0  0  0  0  0  0  0
   -0.1037   -5.3859   22.6586 H   0  0  0  0  0  0  0  0  0  0  0  0
   -1.5454   -4.5902   20.9039 H   0  0  0  0  0  0  0  0  0  0  0  0
   -2.5322   -5.7273   21.8233 H   0  0  0  0  0  0  0  0  0  0  0  0
   -3.9691   -4.0196   22.4757 H   0  0  0  0  0  0  0  0  0  0  0  0
   -3.1725   -3.0028   21.3133 H   0  0  0  0  0  0  0  0  0  0  0  0
   -2.5971   -3.7530   24.0327 H   0  0  0  0  0  0  0  0  0  0  0  0
   -4.1908   -2.5198   26.2088 H   0  0  0  0  0  0  0  0  0  0  0  0
   -2.9876   -2.1725   28.3078 H   0  0  0  0  0  0  0  0  0  0  0  0
   -0.8325   -1.1278   28.5157 H   0  0  0  0  0  0  0  0  0  0  0  0
    0.4240    0.7737   27.6798 H   0  0  0  0  0  0  0  0  0  0  0  0
   -0.3348    3.0220   26.9724 H   0  0  0  0  0  0  0  0  0  0  0  0
   -2.6451    3.1247   26.0382 H   0  0  0  0  0  0  0  0  0  0  0  0
   -3.8011    1.0862   25.5304 H   0  0  0  0  0  0  0  0  0  0  0  0
  1  2  2  0
  2  3  1  0
  3  4  2  0
  4  5  1  0
  5  6  2  0
  6  7  1  0
  2  8  1  0
  8  9  1  0
  9 10  1  0
 10 11  1  0
 11 12  1  0
 12 13  1  0
 13 14  2  0
 14 15  1  0
 15 16  2  0
 16 17  1  0
 17 18  2  0
 18 19  1  0
 19 20  2  0
 20 21  1  0
 21 22  2  0
  7  3  1  0
 12  8  1  0
 22 13  1  0
 22 17  1  0
  4 23  1  0
  6 24  1  0
  7 25  1  0
  9 26  1  0
  9 27  1  0
 10 28  1  0
 10 29  1  0
 11 30  1  0
 11 31  1  0
 12 32  1  0
 14 33  1  0
 15 34  1  0
 16 35  1  0
 18 36  1  0
 19 37  1  0
 20 38  1  0
 21 39  1  0
M  END
>  <Energy>  (1446) 
540.2030207477161

>  <compound_id>  (1446) 
10770

>  <target_id>  (1446) 
1

>  <reference_id>  (1446) 
53

>  <inspiration_ids>  (1446) 
[53, 80]

>  <energy_score>  (1446) 
458.3960884807574

>  <distance_score>  (1446) 
9.461527712878393

>  <path>  (1446) 
/opt/xchem-fragalysis-2/maxwin/BulkDock/SCRATCH/511013/C10770-P53/C10770-P53.minimised.mol

>  <scratch_subdir>  (1446) 
/opt/xchem-fragalysis-2/maxwin/BulkDock/SCRATCH/511013/C10770-P53

>  <fragmenstein_runtime>  (1446) 
6.572261095046997

>  <fragmenstein_outcome>  (1446) 
too moved

>  <fragmenstein_mode>  (1446) 
expansion

>  <fragmenstein_error>  (1446) 


$$$$
C10770-P80
     RDKit          3D

 39 42  0  0  0  0  0  0  0  0999 V2000
    6.5623    1.9713   21.9467 O   0  0  0  0  0  0  0  0  0  0  0  0
    5.9383    1.0098   21.6736 C   0  0  0  0  0  0  0  0  0  0  0  0
    6.9781   -0.0582   20.4709 C   0  0  0  0  0  0  0  0  0  0  0  0
    7.5401   -0.4622   19.2181 C   0  0  0  0  0  0  0  0  0  0  0  0
    8.1085    0.0778   17.8411 N   0  0  0  0  0  0  0  0  0  0  0  0
    8.0039    1.3688   18.0054 C   0  0  0  0  0  0  0  0  0  0  0  0
    7.3909    1.3813   19.4332 N   0  0  0  0  0  0  0  0  0  0  0  0
    4.1598    1.1501   22.4045 N   0  0  0  0  0  0  0  0  0  0  0  0
    2.8416    1.8963   21.4314 C   0  0  0  0  0  0  0  0  0  0  0  0
    2.2249    3.2590   21.7279 C   0  0  0  0  0  0  0  0  0  0  0  0
    2.0148    3.1797   23.1556 C   0  0  0  0  0  0  0  0  0  0  0  0
    3.3197    2.4485   23.5537 C   0  0  0  0  0  0  0  0  0  0  0  0
    3.1225    2.2943   25.1610 C   0  0  0  0  0  0  0  0  0  0  0  0
    3.1853    1.0398   25.7867 C   0  0  0  0  0  0  0  0  0  0  0  0
    2.9171    0.8829   27.1439 C   0  0  0  0  0  0  0  0  0  0  0  0
    2.6060    1.9841   27.9263 C   0  0  0  0  0  0  0  0  0  0  0  0
    2.6528    3.2698   27.3902 C   0  0  0  0  0  0  0  0  0  0  0  0
    2.4204    4.3601   28.2466 C   0  0  0  0  0  0  0  0  0  0  0  0
    2.5434    5.6689   27.7959 C   0  0  0  0  0  0  0  0  0  0  0  0
    2.9294    5.8983   26.4879 C   0  0  0  0  0  0  0  0  0  0  0  0
    3.1483    4.8177   25.6258 C   0  0  0  0  0  0  0  0  0  0  0  0
    2.9656    3.4619   26.0165 C   0  0  0  0  0  0  0  0  0  0  0  0
    8.2097   -1.2066   19.3847 H   0  0  0  0  0  0  0  0  0  0  0  0
    8.2285    2.2697   17.4546 H   0  0  0  0  0  0  0  0  0  0  0  0
    7.4982    2.2155   19.9972 H   0  0  0  0  0  0  0  0  0  0  0  0
    2.0637    1.2130   21.4611 H   0  0  0  0  0  0  0  0  0  0  0  0
    2.9397    2.0897   20.4057 H   0  0  0  0  0  0  0  0  0  0  0  0
    1.2882    3.4161   21.1818 H   0  0  0  0  0  0  0  0  0  0  0  0
    2.8962    4.0830   21.4547 H   0  0  0  0  0  0  0  0  0  0  0  0
    1.0695    2.7920   23.5303 H   0  0  0  0  0  0  0  0  0  0  0  0
    1.9570    4.2119   23.5149 H   0  0  0  0  0  0  0  0  0  0  0  0
    3.8916    3.3908   23.4435 H   0  0  0  0  0  0  0  0  0  0  0  0
    3.4565    0.1500   25.2204 H   0  0  0  0  0  0  0  0  0  0  0  0
    2.9458   -0.1119   27.5826 H   0  0  0  0  0  0  0  0  0  0  0  0
    2.3842    1.8269   28.9794 H   0  0  0  0  0  0  0  0  0  0  0  0
    2.1568    4.1962   29.2896 H   0  0  0  0  0  0  0  0  0  0  0  0
    2.3648    6.5004   28.4718 H   0  0  0  0  0  0  0  0  0  0  0  0
    3.0693    6.9154   26.1308 H   0  0  0  0  0  0  0  0  0  0  0  0
    3.4991    5.0737   24.6302 H   0  0  0  0  0  0  0  0  0  0  0  0
  1  2  2  0
  2  3  1  0
  3  4  2  0
  4  5  1  0
  5  6  2  0
  6  7  1  0
  2  8  1  0
  8  9  1  0
  9 10  1  0
 10 11  1  0
 11 12  1  0
 12 13  1  0
 13 14  2  0
 14 15  1  0
 15 16  2  0
 16 17  1  0
 17 18  2  0
 18 19  1  0
 19 20  2  0
 20 21  1  0
 21 22  2  0
  7  3  1  0
 12  8  1  0
 22 13  1  0
 22 17  1  0
  4 23  1  0
  6 24  1  0
  7 25  1  0
  9 26  1  0
  9 27  1  0
 10 28  1  0
 10 29  1  0
 11 30  1  0
 11 31  1  0
 12 32  1  0
 14 33  1  0
 15 34  1  0
 16 35  1  0
 18 36  1  0
 19 37  1  0
 20 38  1  0
 21 39  1  0
M  END
>  <Energy>  (1447) 
573.70749335368487

>  <compound_id>  (1447) 
10770

>  <target_id>  (1447) 
1

>  <reference_id>  (1447) 
80

>  <inspiration_ids>  (1447) 
[53, 80]

>  <energy_score>  (1447) 
491.90056108671246

>  <distance_score>  (1447) 
5.818474293931893

>  <path>  (1447) 
/opt/xchem-fragalysis-2/maxwin/BulkDock/SCRATCH/511013/C10770-P80/C10770-P80.minimised.mol

>  <scratch_subdir>  (1447) 
/opt/xchem-fragalysis-2/maxwin/BulkDock/SCRATCH/511013/C10770-P80

>  <fragmenstein_runtime>  (1447) 
5.843594551086426

>  <fragmenstein_outcome>  (1447) 
too moved

>  <fragmenstein_mode>  (1447) 
expansion

>  <fragmenstein_error>  (1447) 


$$$$
C10771-P53
     RDKit          3D

 40 43  0  0  0  0  0  0  0  0999 V2000
    3.5850    2.1194   28.4194 C   0  0  0  0  0  0  0  0  0  0  0  0
    4.4048    1.6302   27.4179 C   0  0  0  0  0  0  0  0  0  0  0  0
    4.0118    1.7391   26.0797 C   0  0  0  0  0  0  0  0  0  0  0  0
    2.7949    2.3488   25.6787 C   0  0  0  0  0  0  0  0  0  0  0  0
    2.3633    2.5425   24.3070 C   0  0  0  0  0  0  0  0  0  0  0  0
    3.4207    2.4737   23.1152 C   0  0  0  0  0  0  0  0  0  0  0  0
    3.3662    3.9861   22.6751 C   0  0  0  0  0  0  0  0  0  0  0  0
    2.5242    4.0270   21.4215 C   0  0  0  0  0  0  0  0  0  0  0  0
    2.4217    2.5648   20.9521 C   0  0  0  0  0  0  0  0  0  0  0  0
    3.4246    1.6081   21.7544 N   0  0  0  0  0  0  0  0  0  0  0  0
    4.9975    0.5623   21.1661 C   0  0  0  0  0  0  0  0  0  0  0  0
    6.7496    0.3197   19.9927 C   0  0  0  0  0  0  0  0  0  0  0  0
    7.2544   -0.1247   18.7578 C   0  0  0  0  0  0  0  0  0  0  0  0
    8.4644    0.3438   18.3052 N   0  0  0  0  0  0  0  0  0  0  0  0
    8.5582    1.4811   18.9233 C   0  0  0  0  0  0  0  0  0  0  0  0
    7.7730    1.4784   20.0229 N   0  0  0  0  0  0  0  0  0  0  0  0
    1.0686    3.1064   24.1171 C   0  0  0  0  0  0  0  0  0  0  0  0
    0.2449    3.4793   25.1755 C   0  0  0  0  0  0  0  0  0  0  0  0
    0.6969    3.3437   26.4764 C   0  0  0  0  0  0  0  0  0  0  0  0
    1.9522    2.7907   26.7419 C   0  0  0  0  0  0  0  0  0  0  0  0
    2.3616    2.6864   28.0813 C   0  0  0  0  0  0  0  0  0  0  0  0
    3.8829    2.0414   29.4609 H   0  0  0  0  0  0  0  0  0  0  0  0
    5.3484    1.1520   27.6676 H   0  0  0  0  0  0  0  0  0  0  0  0
    4.6763    1.2873   25.3532 H   0  0  0  0  0  0  0  0  0  0  0  0
    4.2626    2.0707   23.6313 H   0  0  0  0  0  0  0  0  0  0  0  0
    2.9844    4.6825   23.4326 H   0  0  0  0  0  0  0  0  0  0  0  0
    4.3106    4.4438   22.3943 H   0  0  0  0  0  0  0  0  0  0  0  0
    3.0015    4.6558   20.6593 H   0  0  0  0  0  0  0  0  0  0  0  0
    1.5388    4.4701   21.5964 H   0  0  0  0  0  0  0  0  0  0  0  0
    2.4310    2.5385   19.8753 H   0  0  0  0  0  0  0  0  0  0  0  0
    1.3800    2.3742   21.1411 H   0  0  0  0  0  0  0  0  0  0  0  0
    4.9319   -0.4558   21.5851 H   0  0  0  0  0  0  0  0  0  0  0  0
    5.2852    0.9355   22.1448 H   0  0  0  0  0  0  0  0  0  0  0  0
    6.6395   -0.6123   18.0283 H   0  0  0  0  0  0  0  0  0  0  0  0
    9.2075    2.3092   18.6661 H   0  0  0  0  0  0  0  0  0  0  0  0
    7.6194    2.2801   20.6120 H   0  0  0  0  0  0  0  0  0  0  0  0
    0.6799    3.3083   23.1255 H   0  0  0  0  0  0  0  0  0  0  0  0
   -0.7328    3.9168   24.9837 H   0  0  0  0  0  0  0  0  0  0  0  0
    0.0494    3.6739   27.2873 H   0  0  0  0  0  0  0  0  0  0  0  0
    1.7174    3.0458   28.8820 H   0  0  0  0  0  0  0  0  0  0  0  0
  1  2  2  0
  2  3  1  0
  3  4  2  0
  4  5  1  0
  5  6  1  0
  6  7  1  0
  7  8  1  0
  8  9  1  0
  9 10  1  0
 10 11  1  0
 11 12  1  0
 12 13  2  0
 13 14  1  0
 14 15  2  0
 15 16  1  0
  5 17  2  0
 17 18  1  0
 18 19  2  0
 19 20  1  0
 20 21  2  0
 21  1  1  0
 20  4  1  0
 10  6  1  0
 16 12  1  0
  1 22  1  0
  2 23  1  0
  3 24  1  0
  6 25  1  0
  7 26  1  0
  7 27  1  0
  8 28  1  0
  8 29  1  0
  9 30  1  0
  9 31  1  0
 11 32  1  0
 11 33  1  0
 13 34  1  0
 15 35  1  0
 16 36  1  0
 17 37  1  0
 18 38  1  0
 19 39  1  0
 21 40  1  0
M  END
>  <Energy>  (1448) 
384.8673173019273

>  <compound_id>  (1448) 
10771

>  <target_id>  (1448) 
1

>  <reference_id>  (1448) 
53

>  <inspiration_ids>  (1448) 
[53, 80]

>  <energy_score>  (1448) 
323.78117257629134

>  <distance_score>  (1448) 
5.60804325155101

>  <path>  (1448) 
/opt/xchem-fragalysis-2/maxwin/BulkDock/SCRATCH/511013/C10771-P53/C10771-P53.minimised.mol

>  <scratch_subdir>  (1448) 
/opt/xchem-fragalysis-2/maxwin/BulkDock/SCRATCH/511013/C10771-P53

>  <fragmenstein_runtime>  (1448) 
6.044123888015747

>  <fragmenstein_outcome>  (1448) 
too moved

>  <fragmenstein_mode>  (1448) 
expansion

>  <fragmenstein_error>  (1448) 


$$$$
C10771-P80
     RDKit          3D

 40 43  0  0  0  0  0  0  0  0999 V2000
   -2.2043    4.1977   24.3132 C   0  0  0  0  0  0  0  0  0  0  0  0
   -1.0525    3.9527   25.0165 C   0  0  0  0  0  0  0  0  0  0  0  0
    0.1517    3.7800   24.3218 C   0  0  0  0  0  0  0  0  0  0  0  0
    0.3042    3.8214   22.9067 C   0  0  0  0  0  0  0  0  0  0  0  0
    1.5086    3.6206   22.0970 C   0  0  0  0  0  0  0  0  0  0  0  0
    2.9991    3.3783   22.5340 C   0  0  0  0  0  0  0  0  0  0  0  0
    3.3098    4.2014   23.8188 C   0  0  0  0  0  0  0  0  0  0  0  0
    3.3270    3.2324   24.9789 C   0  0  0  0  0  0  0  0  0  0  0  0
    3.0068    1.8751   24.3120 C   0  0  0  0  0  0  0  0  0  0  0  0
    3.4424    1.9206   22.8081 N   0  0  0  0  0  0  0  0  0  0  0  0
    4.7422    0.5795   22.2017 C   0  0  0  0  0  0  0  0  0  0  0  0
    6.2504   -0.0645   21.0696 C   0  0  0  0  0  0  0  0  0  0  0  0
    6.9076   -1.2437   20.7650 C   0  0  0  0  0  0  0  0  0  0  0  0
    7.9552   -1.1406   19.9386 N   0  0  0  0  0  0  0  0  0  0  0  0
    7.4568   -0.1753   19.2895 C   0  0  0  0  0  0  0  0  0  0  0  0
    7.4567    0.5756   20.4333 N   0  0  0  0  0  0  0  0  0  0  0  0
    1.3872    3.7561   20.6975 C   0  0  0  0  0  0  0  0  0  0  0  0
    0.1865    4.0746   20.0798 C   0  0  0  0  0  0  0  0  0  0  0  0
   -0.9508    4.2483   20.8496 C   0  0  0  0  0  0  0  0  0  0  0  0
   -0.9150    4.1108   22.2367 C   0  0  0  0  0  0  0  0  0  0  0  0
   -2.1289    4.2816   22.9310 C   0  0  0  0  0  0  0  0  0  0  0  0
   -3.1521    4.3487   24.8242 H   0  0  0  0  0  0  0  0  0  0  0  0
   -1.0718    3.9139   26.1029 H   0  0  0  0  0  0  0  0  0  0  0  0
    0.9887    3.6218   24.9632 H   0  0  0  0  0  0  0  0  0  0  0  0
    3.5700    3.9397   21.7874 H   0  0  0  0  0  0  0  0  0  0  0  0
    2.6290    5.0417   23.9865 H   0  0  0  0  0  0  0  0  0  0  0  0
    4.3109    4.6449   23.7274 H   0  0  0  0  0  0  0  0  0  0  0  0
    4.2954    3.2994   25.4864 H   0  0  0  0  0  0  0  0  0  0  0  0
    2.6374    3.4792   25.7887 H   0  0  0  0  0  0  0  0  0  0  0  0
    1.9326    1.8437   24.3693 H   0  0  0  0  0  0  0  0  0  0  0  0
    3.3447    1.0143   24.9042 H   0  0  0  0  0  0  0  0  0  0  0  0
    4.0088    0.3198   21.5452 H   0  0  0  0  0  0  0  0  0  0  0  0
    4.8560   -0.0283   23.1403 H   0  0  0  0  0  0  0  0  0  0  0  0
    6.3310   -2.1842   20.9040 H   0  0  0  0  0  0  0  0  0  0  0  0
    7.6934    0.0668   18.2619 H   0  0  0  0  0  0  0  0  0  0  0  0
    7.6296    1.5755   20.5375 H   0  0  0  0  0  0  0  0  0  0  0  0
    2.2607    3.6106   20.0663 H   0  0  0  0  0  0  0  0  0  0  0  0
    0.1382    4.1704   18.9994 H   0  0  0  0  0  0  0  0  0  0  0  0
   -1.8834    4.4879   20.3413 H   0  0  0  0  0  0  0  0  0  0  0  0
   -3.0499    4.4938   22.3868 H   0  0  0  0  0  0  0  0  0  0  0  0
  1  2  2  0
  2  3  1  0
  3  4  2  0
  4  5  1  0
  5  6  1  0
  6  7  1  0
  7  8  1  0
  8  9  1  0
  9 10  1  0
 10 11  1  0
 11 12  1  0
 12 13  2  0
 13 14  1  0
 14 15  2  0
 15 16  1  0
  5 17  2  0
 17 18  1  0
 18 19  2  0
 19 20  1  0
 20 21  2  0
 21  1  1  0
 20  4  1  0
 10  6  1  0
 16 12  1  0
  1 22  1  0
  2 23  1  0
  3 24  1  0
  6 25  1  0
  7 26  1  0
  7 27  1  0
  8 28  1  0
  8 29  1  0
  9 30  1  0
  9 31  1  0
 11 32  1  0
 11 33  1  0
 13 34  1  0
 15 35  1  0
 16 36  1  0
 17 37  1  0
 18 38  1  0
 19 39  1  0
 21 40  1  0
M  END
>  <Energy>  (1449) 
362.69943354471485

>  <compound_id>  (1449) 
10771

>  <target_id>  (1449) 
1

>  <reference_id>  (1449) 
80

>  <inspiration_ids>  (1449) 
[53, 80]

>  <energy_score>  (1449) 
301.6132888190765

>  <distance_score>  (1449) 
7.056853774395786

>  <path>  (1449) 
/opt/xchem-fragalysis-2/maxwin/BulkDock/SCRATCH/511013/C10771-P80/C10771-P80.minimised.mol

>  <scratch_subdir>  (1449) 
/opt/xchem-fragalysis-2/maxwin/BulkDock/SCRATCH/511013/C10771-P80

>  <fragmenstein_runtime>  (1449) 
6.515322685241699

>  <fragmenstein_outcome>  (1449) 
too moved

>  <fragmenstein_mode>  (1449) 
expansion

>  <fragmenstein_error>  (1449) 


$$$$
C10772-P53
     RDKit          3D

 47 48  0  0  0  0  0  0  0  0999 V2000
    5.8130    4.3224   27.1127 C   0  0  0  0  0  0  0  0  0  0  0  0
    6.2886    3.9041   28.3853 O   0  0  0  0  0  0  0  0  0  0  0  0
    7.6178    4.3597   28.6688 C   0  0  0  0  0  0  0  0  0  0  0  0
    8.7252    3.3776   28.2347 C   0  0  0  0  0  0  0  0  0  0  0  0
    8.7349    3.2566   26.8124 O   0  0  0  0  0  0  0  0  0  0  0  0
   10.0127    2.8907   26.3061 C   0  0  0  0  0  0  0  0  0  0  0  0
    8.6208    2.0825   29.1050 C   0  0  0  0  0  0  0  0  0  0  0  0
    8.7399    2.1716   30.3016 O   0  0  0  0  0  0  0  0  0  0  0  0
    8.4640    0.9331   28.2714 N   0  0  0  0  0  0  0  0  0  0  0  0
    6.9974    0.6183   28.0828 C   0  0  0  0  0  0  0  0  0  0  0  0
    6.7676   -0.5460   27.1375 C   0  0  0  0  0  0  0  0  0  0  0  0
    7.9827   -1.3650   27.4552 C   0  0  0  0  0  0  0  0  0  0  0  0
    8.9686   -1.4818   26.2700 C   0  0  0  0  0  0  0  0  0  0  0  0
   10.1935   -2.3678   26.5501 C   0  0  0  0  0  0  0  0  0  0  0  0
   10.8293   -2.9062   25.3561 N   0  0  0  0  0  0  0  0  0  0  0  0
   11.3255   -4.2240   25.0657 C   0  0  0  0  0  0  0  0  0  0  0  0
   11.2716   -5.2338   25.7021 O   0  0  0  0  0  0  0  0  0  0  0  0
   11.9677   -4.3322   23.7458 C   0  0  0  0  0  0  0  0  0  0  0  0
   12.1872   -5.4999   23.0235 C   0  0  0  0  0  0  0  0  0  0  0  0
   12.7723   -5.2662   21.8069 N   0  0  0  0  0  0  0  0  0  0  0  0
   12.9650   -3.9725   21.7789 C   0  0  0  0  0  0  0  0  0  0  0  0
   12.5060   -3.3711   22.9206 N   0  0  0  0  0  0  0  0  0  0  0  0
    8.5077   -0.5229   28.5992 C   0  0  0  0  0  0  0  0  0  0  0  0
    5.8052    5.4144   27.0444 H   0  0  0  0  0  0  0  0  0  0  0  0
    4.7860    3.9639   27.0001 H   0  0  0  0  0  0  0  0  0  0  0  0
    6.4109    3.8972   26.3045 H   0  0  0  0  0  0  0  0  0  0  0  0
    7.6654    4.5106   29.7530 H   0  0  0  0  0  0  0  0  0  0  0  0
    7.7795    5.3392   28.2019 H   0  0  0  0  0  0  0  0  0  0  0  0
    9.6766    3.8413   28.5340 H   0  0  0  0  0  0  0  0  0  0  0  0
    9.9251    2.7434   25.2264 H   0  0  0  0  0  0  0  0  0  0  0  0
   10.3743    1.9609   26.7531 H   0  0  0  0  0  0  0  0  0  0  0  0
   10.7334    3.6945   26.4852 H   0  0  0  0  0  0  0  0  0  0  0  0
    6.4753    0.5149   29.0502 H   0  0  0  0  0  0  0  0  0  0  0  0
    6.5397    1.5046   27.6293 H   0  0  0  0  0  0  0  0  0  0  0  0
    6.7337   -0.2220   26.0955 H   0  0  0  0  0  0  0  0  0  0  0  0
    5.8296   -1.0609   27.3670 H   0  0  0  0  0  0  0  0  0  0  0  0
    7.7109   -2.3694   27.7988 H   0  0  0  0  0  0  0  0  0  0  0  0
    9.3110   -0.4923   25.9427 H   0  0  0  0  0  0  0  0  0  0  0  0
    8.4031   -1.8929   25.4368 H   0  0  0  0  0  0  0  0  0  0  0  0
    9.9127   -3.2229   27.1742 H   0  0  0  0  0  0  0  0  0  0  0  0
   10.9577   -1.8000   27.0904 H   0  0  0  0  0  0  0  0  0  0  0  0
   11.1266   -2.2750   24.6276 H   0  0  0  0  0  0  0  0  0  0  0  0
   11.9271   -6.5042   23.3355 H   0  0  0  0  0  0  0  0  0  0  0  0
   13.4167   -3.4171   20.9690 H   0  0  0  0  0  0  0  0  0  0  0  0
   12.4865   -2.3679   23.0566 H   0  0  0  0  0  0  0  0  0  0  0  0
    9.5687   -0.7412   28.7772 H   0  0  0  0  0  0  0  0  0  0  0  0
    8.0415   -0.7403   29.5763 H   0  0  0  0  0  0  0  0  0  0  0  0
  1  2  1  0
  2  3  1  0
  3  4  1  0
  4  5  1  0
  5  6  1  0
  4  7  1  0
  7  8  2  0
  7  9  1  0
  9 10  1  0
 10 11  1  0
 11 12  1  0
 12 13  1  0
 13 14  1  0
 14 15  1  0
 15 16  1  0
 16 17  2  0
 16 18  1  0
 18 19  2  0
 19 20  1  0
 20 21  2  0
 21 22  1  0
 12 23  1  0
 23  9  1  0
 22 18  1  0
  1 24  1  0
  1 25  1  0
  1 26  1  0
  3 27  1  0
  3 28  1  0
  4 29  1  0
  6 30  1  0
  6 31  1  0
  6 32  1  0
 10 33  1  0
 10 34  1  0
 11 35  1  0
 11 36  1  0
 12 37  1  0
 13 38  1  0
 13 39  1  0
 14 40  1  0
 14 41  1  0
 15 42  1  0
 19 43  1  0
 21 44  1  0
 22 45  1  0
 23 46  1  0
 23 47  1  0
M  END
>  <Energy>  (1450) 
92.386034678525959

>  <compound_id>  (1450) 
10772

>  <target_id>  (1450) 
1

>  <reference_id>  (1450) 
53

>  <inspiration_ids>  (1450) 
[53, 80]

>  <energy_score>  (1450) 
37.68620390908478

>  <distance_score>  (1450) 
9.104509422708642

>  <path>  (1450) 
/opt/xchem-fragalysis-2/maxwin/BulkDock/SCRATCH/511013/C10772-P53/C10772-P53.minimised.mol

>  <scratch_subdir>  (1450) 
/opt/xchem-fragalysis-2/maxwin/BulkDock/SCRATCH/511013/C10772-P53

>  <fragmenstein_runtime>  (1450) 
15.053985357284546

>  <fragmenstein_outcome>  (1450) 
too moved

>  <fragmenstein_mode>  (1450) 
expansion

>  <fragmenstein_error>  (1450) 


$$$$
C10772-P80
     RDKit          3D

 47 48  0  0  0  0  0  0  0  0999 V2000
   -2.9490    2.8727   26.4844 C   0  0  0  0  0  0  0  0  0  0  0  0
   -2.1901    4.0084   26.8748 O   0  0  0  0  0  0  0  0  0  0  0  0
   -1.8627    4.8514   25.7517 C   0  0  0  0  0  0  0  0  0  0  0  0
   -0.4596    4.4833   25.2324 C   0  0  0  0  0  0  0  0  0  0  0  0
    0.5586    5.2870   25.8463 O   0  0  0  0  0  0  0  0  0  0  0  0
    0.7060    5.0419   27.2399 C   0  0  0  0  0  0  0  0  0  0  0  0
   -0.3938    4.5865   23.6775 C   0  0  0  0  0  0  0  0  0  0  0  0
   -1.2842    5.0993   23.0511 O   0  0  0  0  0  0  0  0  0  0  0  0
    0.7899    3.9100   23.2299 N   0  0  0  0  0  0  0  0  0  0  0  0
    1.9282    4.8846   23.0891 C   0  0  0  0  0  0  0  0  0  0  0  0
    3.1990    4.1219   22.8123 C   0  0  0  0  0  0  0  0  0  0  0  0
    2.7240    3.1668   21.7454 C   0  0  0  0  0  0  0  0  0  0  0  0
    3.1876    1.5161   21.9724 C   0  0  0  0  0  0  0  0  0  0  0  0
    4.7650    0.2689   21.7685 C   0  0  0  0  0  0  0  0  0  0  0  0
    5.7972   -1.3808   21.5119 N   0  0  0  0  0  0  0  0  0  0  0  0
    6.7337   -1.8141   20.9605 C   0  0  0  0  0  0  0  0  0  0  0  0
    7.2088   -0.5582   20.0106 O   0  0  0  0  0  0  0  0  0  0  0  0
    7.6231   -3.5684   21.2864 C   0  0  0  0  0  0  0  0  0  0  0  0
    8.4280   -4.6292   20.7590 C   0  0  0  0  0  0  0  0  0  0  0  0
    8.4615   -5.9016   21.3302 N   0  0  0  0  0  0  0  0  0  0  0  0
    7.9396   -5.7931   22.5151 C   0  0  0  0  0  0  0  0  0  0  0  0
    7.5018   -4.4792   22.7291 N   0  0  0  0  0  0  0  0  0  0  0  0
    1.2366    3.5323   21.8558 C   0  0  0  0  0  0  0  0  0  0  0  0
   -3.9359    3.1748   26.1233 H   0  0  0  0  0  0  0  0  0  0  0  0
   -3.0738    2.2299   27.3578 H   0  0  0  0  0  0  0  0  0  0  0  0
   -2.4231    2.3037   25.7130 H   0  0  0  0  0  0  0  0  0  0  0  0
   -1.8681    5.8835   26.1170 H   0  0  0  0  0  0  0  0  0  0  0  0
   -2.6495    4.7625   24.9948 H   0  0  0  0  0  0  0  0  0  0  0  0
   -0.2471    3.4312   25.4699 H   0  0  0  0  0  0  0  0  0  0  0  0
    1.6012    5.5686   27.5821 H   0  0  0  0  0  0  0  0  0  0  0  0
    0.8375    3.9739   27.4384 H   0  0  0  0  0  0  0  0  0  0  0  0
   -0.1480    5.4334   27.7989 H   0  0  0  0  0  0  0  0  0  0  0  0
    2.0528    5.4082   24.0426 H   0  0  0  0  0  0  0  0  0  0  0  0
    1.7098    5.6990   22.3758 H   0  0  0  0  0  0  0  0  0  0  0  0
    4.0146    4.7723   22.4849 H   0  0  0  0  0  0  0  0  0  0  0  0
    3.4888    3.6239   23.7396 H   0  0  0  0  0  0  0  0  0  0  0  0
    2.9768    3.4903   20.7258 H   0  0  0  0  0  0  0  0  0  0  0  0
    2.3846    1.1652   21.3728 H   0  0  0  0  0  0  0  0  0  0  0  0
    3.0517    1.6296   23.0620 H   0  0  0  0  0  0  0  0  0  0  0  0
    5.6656    0.8293   21.7426 H   0  0  0  0  0  0  0  0  0  0  0  0
    4.8073    0.1831   22.8601 H   0  0  0  0  0  0  0  0  0  0  0  0
    5.0557   -1.3812   22.1832 H   0  0  0  0  0  0  0  0  0  0  0  0
    9.0904   -4.5615   19.9869 H   0  0  0  0  0  0  0  0  0  0  0  0
    7.8488   -6.5607   23.2711 H   0  0  0  0  0  0  0  0  0  0  0  0
    7.0781   -4.0945   23.5639 H   0  0  0  0  0  0  0  0  0  0  0  0
    0.5884    2.7094   21.5770 H   0  0  0  0  0  0  0  0  0  0  0  0
    0.9333    4.3023   21.1219 H   0  0  0  0  0  0  0  0  0  0  0  0
  1  2  1  0
  2  3  1  0
  3  4  1  0
  4  5  1  0
  5  6  1  0
  4  7  1  0
  7  8  2  0
  7  9  1  0
  9 10  1  0
 10 11  1  0
 11 12  1  0
 12 13  1  0
 13 14  1  0
 14 15  1  0
 15 16  1  0
 16 17  2  0
 16 18  1  0
 18 19  2  0
 19 20  1  0
 20 21  2  0
 21 22  1  0
 12 23  1  0
 23  9  1  0
 22 18  1  0
  1 24  1  0
  1 25  1  0
  1 26  1  0
  3 27  1  0
  3 28  1  0
  4 29  1  0
  6 30  1  0
  6 31  1  0
  6 32  1  0
 10 33  1  0
 10 34  1  0
 11 35  1  0
 11 36  1  0
 12 37  1  0
 13 38  1  0
 13 39  1  0
 14 40  1  0
 14 41  1  0
 15 42  1  0
 19 43  1  0
 21 44  1  0
 22 45  1  0
 23 46  1  0
 23 47  1  0
M  END
>  <Energy>  (1451) 
631.76079910701014

>  <compound_id>  (1451) 
10772

>  <target_id>  (1451) 
1

>  <reference_id>  (1451) 
80

>  <inspiration_ids>  (1451) 
[53, 80]

>  <energy_score>  (1451) 
577.0609683375685

>  <distance_score>  (1451) 
6.793918868115003

>  <path>  (1451) 
/opt/xchem-fragalysis-2/maxwin/BulkDock/SCRATCH/511013/C10772-P80/C10772-P80.minimised.mol

>  <scratch_subdir>  (1451) 
/opt/xchem-fragalysis-2/maxwin/BulkDock/SCRATCH/511013/C10772-P80

>  <fragmenstein_runtime>  (1451) 
12.402227878570557

>  <fragmenstein_outcome>  (1451) 
too moved

>  <fragmenstein_mode>  (1451) 
expansion

>  <fragmenstein_error>  (1451) 


$$$$
C10773-P53
     RDKit          3D

 47 48  0  0  0  0  0  0  0  0999 V2000
   11.0135    2.9058   13.2794 C   0  0  0  0  0  0  0  0  0  0  0  0
    9.7302    2.4176   13.6477 O   0  0  0  0  0  0  0  0  0  0  0  0
    9.5911    1.0055   13.4784 C   0  0  0  0  0  0  0  0  0  0  0  0
   10.0050    0.2138   14.6696 C   0  0  0  0  0  0  0  0  0  0  0  0
   10.0755   -1.1974   14.3543 O   0  0  0  0  0  0  0  0  0  0  0  0
   11.4014   -1.6781   14.1805 C   0  0  0  0  0  0  0  0  0  0  0  0
    9.4660    0.2567   16.1083 C   0  0  0  0  0  0  0  0  0  0  0  0
    9.8841   -0.6779   16.7243 O   0  0  0  0  0  0  0  0  0  0  0  0
    8.6987    1.3514   16.5332 N   0  0  0  0  0  0  0  0  0  0  0  0
    9.5549    2.4466   16.9440 C   0  0  0  0  0  0  0  0  0  0  0  0
    8.7526    3.7003   17.1683 C   0  0  0  0  0  0  0  0  0  0  0  0
    7.5786    3.1352   17.9131 C   0  0  0  0  0  0  0  0  0  0  0  0
    8.0027    1.6803   17.9988 C   0  0  0  0  0  0  0  0  0  0  0  0
    7.3001    0.3855   18.6546 C   0  0  0  0  0  0  0  0  0  0  0  0
    6.2690    0.1578   20.0837 C   0  0  0  0  0  0  0  0  0  0  0  0
    5.0369    0.8214   21.5765 N   0  0  0  0  0  0  0  0  0  0  0  0
    3.4275    1.5404   21.5704 C   0  0  0  0  0  0  0  0  0  0  0  0
    2.6383    1.7245   20.6523 O   0  0  0  0  0  0  0  0  0  0  0  0
    3.0769    2.1069   22.9747 C   0  0  0  0  0  0  0  0  0  0  0  0
    3.4328    1.8562   24.2903 C   0  0  0  0  0  0  0  0  0  0  0  0
    2.7838    2.6998   25.1648 N   0  0  0  0  0  0  0  0  0  0  0  0
    2.0977    3.5218   24.4068 C   0  0  0  0  0  0  0  0  0  0  0  0
    2.2863    3.2457   23.0860 N   0  0  0  0  0  0  0  0  0  0  0  0
   11.7993    2.4426   13.8825 H   0  0  0  0  0  0  0  0  0  0  0  0
   11.1992    2.7271   12.2158 H   0  0  0  0  0  0  0  0  0  0  0  0
   11.0316    3.9843   13.4571 H   0  0  0  0  0  0  0  0  0  0  0  0
   10.1822    0.7118   12.6039 H   0  0  0  0  0  0  0  0  0  0  0  0
    8.5760    0.7141   13.2433 H   0  0  0  0  0  0  0  0  0  0  0  0
   11.0382    0.5514   14.8555 H   0  0  0  0  0  0  0  0  0  0  0  0
   11.3516   -2.7399   13.9239 H   0  0  0  0  0  0  0  0  0  0  0  0
   11.8997   -1.1437   13.3661 H   0  0  0  0  0  0  0  0  0  0  0  0
   11.9737   -1.5715   15.1069 H   0  0  0  0  0  0  0  0  0  0  0  0
   10.1009    2.1278   17.8082 H   0  0  0  0  0  0  0  0  0  0  0  0
   10.2799    2.6383   16.1460 H   0  0  0  0  0  0  0  0  0  0  0  0
    8.4357    4.1517   16.2215 H   0  0  0  0  0  0  0  0  0  0  0  0
    9.3082    4.4479   17.7417 H   0  0  0  0  0  0  0  0  0  0  0  0
    6.6888    3.3291   17.3100 H   0  0  0  0  0  0  0  0  0  0  0  0
    7.4861    3.6047   18.8970 H   0  0  0  0  0  0  0  0  0  0  0  0
    8.7654    1.7078   18.7983 H   0  0  0  0  0  0  0  0  0  0  0  0
    6.8967   -0.2733   17.8993 H   0  0  0  0  0  0  0  0  0  0  0  0
    8.1815   -0.2058   18.9510 H   0  0  0  0  0  0  0  0  0  0  0  0
    6.7275   -0.7780   20.3734 H   0  0  0  0  0  0  0  0  0  0  0  0
    7.2025    0.9031   20.2789 H   0  0  0  0  0  0  0  0  0  0  0  0
    5.3602    0.7532   22.4868 H   0  0  0  0  0  0  0  0  0  0  0  0
    4.0769    1.0727   24.6640 H   0  0  0  0  0  0  0  0  0  0  0  0
    1.4700    4.3339   24.7503 H   0  0  0  0  0  0  0  0  0  0  0  0
    1.8954    3.7378   22.2922 H   0  0  0  0  0  0  0  0  0  0  0  0
  1  2  1  0
  2  3  1  0
  3  4  1  0
  4  5  1  0
  5  6  1  0
  4  7  1  0
  7  8  2  0
  7  9  1  0
  9 10  1  0
 10 11  1  0
 11 12  1  0
 12 13  1  0
 13 14  1  0
 14 15  1  0
 15 16  1  0
 16 17  1  0
 17 18  2  0
 17 19  1  0
 19 20  2  0
 20 21  1  0
 21 22  2  0
 22 23  1  0
 13  9  1  0
 23 19  1  0
  1 24  1  0
  1 25  1  0
  1 26  1  0
  3 27  1  0
  3 28  1  0
  4 29  1  0
  6 30  1  0
  6 31  1  0
  6 32  1  0
 10 33  1  0
 10 34  1  0
 11 35  1  0
 11 36  1  0
 12 37  1  0
 12 38  1  0
 13 39  1  0
 14 40  1  0
 14 41  1  0
 15 42  1  0
 15 43  1  0
 16 44  1  0
 20 45  1  0
 22 46  1  0
 23 47  1  0
M  END
>  <Energy>  (1452) 
380.63275953436801

>  <compound_id>  (1452) 
10773

>  <target_id>  (1452) 
1

>  <reference_id>  (1452) 
53

>  <inspiration_ids>  (1452) 
[53, 80]

>  <energy_score>  (1452) 
325.2243674854938

>  <distance_score>  (1452) 
6.580586079791845

>  <path>  (1452) 
/opt/xchem-fragalysis-2/maxwin/BulkDock/SCRATCH/511013/C10773-P53/C10773-P53.minimised.mol

>  <scratch_subdir>  (1452) 
/opt/xchem-fragalysis-2/maxwin/BulkDock/SCRATCH/511013/C10773-P53

>  <fragmenstein_runtime>  (1452) 
9.822341442108154

>  <fragmenstein_outcome>  (1452) 
too moved

>  <fragmenstein_mode>  (1452) 
expansion

>  <fragmenstein_error>  (1452) 


$$$$
C10773-P80
     RDKit          3D

 47 48  0  0  0  0  0  0  0  0999 V2000
   13.8923   -1.4745   12.9335 C   0  0  0  0  0  0  0  0  0  0  0  0
   12.8157   -0.5586   13.0846 O   0  0  0  0  0  0  0  0  0  0  0  0
   12.0042   -0.8747   14.2232 C   0  0  0  0  0  0  0  0  0  0  0  0
   10.8883    0.1834   14.4622 C   0  0  0  0  0  0  0  0  0  0  0  0
   11.3678    1.5228   14.2138 O   0  0  0  0  0  0  0  0  0  0  0  0
   12.6043    1.8542   14.8407 C   0  0  0  0  0  0  0  0  0  0  0  0
   10.2937   -0.0414   15.9123 C   0  0  0  0  0  0  0  0  0  0  0  0
   10.8504   -0.8451   16.6118 O   0  0  0  0  0  0  0  0  0  0  0  0
    9.2012    0.8518   16.2018 N   0  0  0  0  0  0  0  0  0  0  0  0
    9.7230    2.1554   16.6856 C   0  0  0  0  0  0  0  0  0  0  0  0
    8.7356    3.2500   16.7216 C   0  0  0  0  0  0  0  0  0  0  0  0
    7.6437    2.5108   17.3686 C   0  0  0  0  0  0  0  0  0  0  0  0
    8.2025    1.0098   17.6182 C   0  0  0  0  0  0  0  0  0  0  0  0
    7.2802   -0.0662   19.0670 C   0  0  0  0  0  0  0  0  0  0  0  0
    6.3113   -0.1510   20.8065 C   0  0  0  0  0  0  0  0  0  0  0  0
    4.9692    0.6565   22.0768 N   0  0  0  0  0  0  0  0  0  0  0  0
    3.3635    1.4822   21.8255 C   0  0  0  0  0  0  0  0  0  0  0  0
    2.7012    1.6487   20.8111 O   0  0  0  0  0  0  0  0  0  0  0  0
    2.7597    2.2153   23.0706 C   0  0  0  0  0  0  0  0  0  0  0  0
    2.6928    2.0946   24.4547 C   0  0  0  0  0  0  0  0  0  0  0  0
    1.8805    3.0453   25.0284 N   0  0  0  0  0  0  0  0  0  0  0  0
    1.4967    3.8076   24.0339 C   0  0  0  0  0  0  0  0  0  0  0  0
    2.0178    3.3756   22.8511 N   0  0  0  0  0  0  0  0  0  0  0  0
   13.5075   -2.4810   12.7608 H   0  0  0  0  0  0  0  0  0  0  0  0
   14.4805   -1.1729   12.0628 H   0  0  0  0  0  0  0  0  0  0  0  0
   14.5400   -1.4602   13.8150 H   0  0  0  0  0  0  0  0  0  0  0  0
   12.6756   -0.9107   15.0904 H   0  0  0  0  0  0  0  0  0  0  0  0
   11.5683   -1.8737   14.1102 H   0  0  0  0  0  0  0  0  0  0  0  0
   10.0721    0.0467   13.7539 H   0  0  0  0  0  0  0  0  0  0  0  0
   13.4525    1.4610   14.2770 H   0  0  0  0  0  0  0  0  0  0  0  0
   12.6946    2.9445   14.8443 H   0  0  0  0  0  0  0  0  0  0  0  0
   12.6411    1.5032   15.8762 H   0  0  0  0  0  0  0  0  0  0  0  0
   10.3715    2.1148   17.5377 H   0  0  0  0  0  0  0  0  0  0  0  0
   10.4280    2.5058   15.9358 H   0  0  0  0  0  0  0  0  0  0  0  0
    8.4592    3.5886   15.7165 H   0  0  0  0  0  0  0  0  0  0  0  0
    9.0824    4.1194   17.2862 H   0  0  0  0  0  0  0  0  0  0  0  0
    6.8340    2.5795   16.6412 H   0  0  0  0  0  0  0  0  0  0  0  0
    7.2928    3.0141   18.2560 H   0  0  0  0  0  0  0  0  0  0  0  0
    7.7176    0.2564   16.9591 H   0  0  0  0  0  0  0  0  0  0  0  0
    6.6081   -0.6820   18.4843 H   0  0  0  0  0  0  0  0  0  0  0  0
    8.0726   -0.7423   19.3561 H   0  0  0  0  0  0  0  0  0  0  0  0
    7.1439    0.5617   21.0176 H   0  0  0  0  0  0  0  0  0  0  0  0
    6.5761   -1.1612   21.0990 H   0  0  0  0  0  0  0  0  0  0  0  0
    5.1889    0.6291   23.0726 H   0  0  0  0  0  0  0  0  0  0  0  0
    3.1118    1.3054   25.0676 H   0  0  0  0  0  0  0  0  0  0  0  0
    0.8509    4.6731   24.1046 H   0  0  0  0  0  0  0  0  0  0  0  0
    1.8491    3.7560   21.9286 H   0  0  0  0  0  0  0  0  0  0  0  0
  1  2  1  0
  2  3  1  0
  3  4  1  0
  4  5  1  0
  5  6  1  0
  4  7  1  0
  7  8  2  0
  7  9  1  0
  9 10  1  0
 10 11  1  0
 11 12  1  0
 12 13  1  0
 13 14  1  0
 14 15  1  0
 15 16  1  0
 16 17  1  0
 17 18  2  0
 17 19  1  0
 19 20  2  0
 20 21  1  0
 21 22  2  0
 22 23  1  0
 13  9  1  0
 23 19  1  0
  1 24  1  0
  1 25  1  0
  1 26  1  0
  3 27  1  0
  3 28  1  0
  4 29  1  0
  6 30  1  0
  6 31  1  0
  6 32  1  0
 10 33  1  0
 10 34  1  0
 11 35  1  0
 11 36  1  0
 12 37  1  0
 12 38  1  0
 13 39  1  0
 14 40  1  0
 14 41  1  0
 15 42  1  0
 15 43  1  0
 16 44  1  0
 20 45  1  0
 22 46  1  0
 23 47  1  0
M  END
>  <Energy>  (1453) 
493.67969954894801

>  <compound_id>  (1453) 
10773

>  <target_id>  (1453) 
1

>  <reference_id>  (1453) 
80

>  <inspiration_ids>  (1453) 
[53, 80]

>  <energy_score>  (1453) 
438.2713075000656

>  <distance_score>  (1453) 
6.2018579440133434

>  <path>  (1453) 
/opt/xchem-fragalysis-2/maxwin/BulkDock/SCRATCH/511013/C10773-P80/C10773-P80.minimised.mol

>  <scratch_subdir>  (1453) 
/opt/xchem-fragalysis-2/maxwin/BulkDock/SCRATCH/511013/C10773-P80

>  <fragmenstein_runtime>  (1453) 
11.931918144226074

>  <fragmenstein_outcome>  (1453) 
too moved

>  <fragmenstein_mode>  (1453) 
expansion

>  <fragmenstein_error>  (1453) 


$$$$
C10774-P53
     RDKit          3D

 47 48  0  0  0  0  0  0  0  0999 V2000
   12.3927    0.0002   13.4524 C   0  0  0  0  0  0  0  0  0  0  0  0
   11.8522    0.9967   14.3106 O   0  0  0  0  0  0  0  0  0  0  0  0
   10.4821    0.6968   14.6427 C   0  0  0  0  0  0  0  0  0  0  0  0
    9.9553    1.7906   15.5849 C   0  0  0  0  0  0  0  0  0  0  0  0
    9.2075    2.7815   14.8592 O   0  0  0  0  0  0  0  0  0  0  0  0
   10.0402    3.6636   14.1172 C   0  0  0  0  0  0  0  0  0  0  0  0
    9.0519    1.1517   16.6792 C   0  0  0  0  0  0  0  0  0  0  0  0
    8.3849    0.1935   16.3766 O   0  0  0  0  0  0  0  0  0  0  0  0
    9.1009    1.9124   17.9109 N   0  0  0  0  0  0  0  0  0  0  0  0
    8.1390    3.0391   17.8535 C   0  0  0  0  0  0  0  0  0  0  0  0
    8.2858    3.9651   19.0072 C   0  0  0  0  0  0  0  0  0  0  0  0
    8.1147    2.9678   20.0825 C   0  0  0  0  0  0  0  0  0  0  0  0
    8.3592    1.6619   19.3556 C   0  0  0  0  0  0  0  0  0  0  0  0
    7.5142    0.3122   19.3224 C   0  0  0  0  0  0  0  0  0  0  0  0
    6.8871   -0.7633   20.2024 N   0  0  0  0  0  0  0  0  0  0  0  0
    5.4679   -0.6959   21.3572 C   0  0  0  0  0  0  0  0  0  0  0  0
    4.8632    0.3192   21.6430 O   0  0  0  0  0  0  0  0  0  0  0  0
    5.1799   -2.4590   22.1521 C   0  0  0  0  0  0  0  0  0  0  0  0
    4.8327   -2.5661   23.6698 C   0  0  0  0  0  0  0  0  0  0  0  0
    4.4999   -3.7093   24.3840 C   0  0  0  0  0  0  0  0  0  0  0  0
    4.3132   -3.4452   25.7205 N   0  0  0  0  0  0  0  0  0  0  0  0
    4.5994   -2.1729   25.8587 C   0  0  0  0  0  0  0  0  0  0  0  0
    4.8930   -1.6043   24.6518 N   0  0  0  0  0  0  0  0  0  0  0  0
   11.8243   -0.0391   12.5219 H   0  0  0  0  0  0  0  0  0  0  0  0
   13.4266    0.2687   13.2208 H   0  0  0  0  0  0  0  0  0  0  0  0
   12.3859   -0.9775   13.9438 H   0  0  0  0  0  0  0  0  0  0  0  0
    9.8900    0.6582   13.7216 H   0  0  0  0  0  0  0  0  0  0  0  0
   10.4719   -0.2879   15.1231 H   0  0  0  0  0  0  0  0  0  0  0  0
   10.7812    2.3044   16.0556 H   0  0  0  0  0  0  0  0  0  0  0  0
   10.5591    3.1305   13.3162 H   0  0  0  0  0  0  0  0  0  0  0  0
    9.4031    4.4258   13.6600 H   0  0  0  0  0  0  0  0  0  0  0  0
   10.7598    4.1639   14.7723 H   0  0  0  0  0  0  0  0  0  0  0  0
    8.4031    3.6258   16.9659 H   0  0  0  0  0  0  0  0  0  0  0  0
    7.1196    2.7535   17.6524 H   0  0  0  0  0  0  0  0  0  0  0  0
    9.2804    4.4244   19.0325 H   0  0  0  0  0  0  0  0  0  0  0  0
    7.5324    4.7571   19.0256 H   0  0  0  0  0  0  0  0  0  0  0  0
    7.1454    3.0433   20.5545 H   0  0  0  0  0  0  0  0  0  0  0  0
    8.8850    3.1658   20.8360 H   0  0  0  0  0  0  0  0  0  0  0  0
    9.1521    1.3096   20.0082 H   0  0  0  0  0  0  0  0  0  0  0  0
    6.9213    0.2691   18.4463 H   0  0  0  0  0  0  0  0  0  0  0  0
    8.3265   -0.3197   18.9672 H   0  0  0  0  0  0  0  0  0  0  0  0
    7.1512   -1.7085   20.0659 H   0  0  0  0  0  0  0  0  0  0  0  0
    6.0355   -3.1469   22.0012 H   0  0  0  0  0  0  0  0  0  0  0  0
    4.4876   -3.1627   21.7092 H   0  0  0  0  0  0  0  0  0  0  0  0
    4.3826   -4.7122   23.9936 H   0  0  0  0  0  0  0  0  0  0  0  0
    4.5935   -1.6138   26.7846 H   0  0  0  0  0  0  0  0  0  0  0  0
    5.1106   -0.6335   24.5239 H   0  0  0  0  0  0  0  0  0  0  0  0
  1  2  1  0
  2  3  1  0
  3  4  1  0
  4  5  1  0
  5  6  1  0
  4  7  1  0
  7  8  2  0
  7  9  1  0
  9 10  1  0
 10 11  1  0
 11 12  1  0
 12 13  1  0
 13 14  1  0
 14 15  1  0
 15 16  1  0
 16 17  2  0
 16 18  1  0
 18 19  1  0
 19 20  2  0
 20 21  1  0
 21 22  2  0
 22 23  1  0
 13  9  1  0
 23 19  1  0
  1 24  1  0
  1 25  1  0
  1 26  1  0
  3 27  1  0
  3 28  1  0
  4 29  1  0
  6 30  1  0
  6 31  1  0
  6 32  1  0
 10 33  1  0
 10 34  1  0
 11 35  1  0
 11 36  1  0
 12 37  1  0
 12 38  1  0
 13 39  1  0
 14 40  1  0
 14 41  1  0
 15 42  1  0
 18 43  1  0
 18 44  1  0
 20 45  1  0
 22 46  1  0
 23 47  1  0
M  END
>  <Energy>  (1454) 
287.77044016087763

>  <compound_id>  (1454) 
10774

>  <target_id>  (1454) 
1

>  <reference_id>  (1454) 
53

>  <inspiration_ids>  (1454) 
[53, 80]

>  <energy_score>  (1454) 
166.13458199557044

>  <distance_score>  (1454) 
8.74826575291918

>  <path>  (1454) 
/opt/xchem-fragalysis-2/maxwin/BulkDock/SCRATCH/511013/C10774-P53/C10774-P53.minimised.mol

>  <scratch_subdir>  (1454) 
/opt/xchem-fragalysis-2/maxwin/BulkDock/SCRATCH/511013/C10774-P53

>  <fragmenstein_runtime>  (1454) 
12.95677900314331

>  <fragmenstein_outcome>  (1454) 
too moved

>  <fragmenstein_mode>  (1454) 
expansion

>  <fragmenstein_error>  (1454) 


$$$$
C10774-P80
     RDKit          3D

 47 48  0  0  0  0  0  0  0  0999 V2000
    0.1900    9.4928   15.9257 C   0  0  0  0  0  0  0  0  0  0  0  0
    0.9121    8.7481   14.9523 O   0  0  0  0  0  0  0  0  0  0  0  0
    2.2419    8.4095   15.3887 C   0  0  0  0  0  0  0  0  0  0  0  0
    2.2597    7.0734   16.1618 C   0  0  0  0  0  0  0  0  0  0  0  0
    2.3017    5.9473   15.2732 O   0  0  0  0  0  0  0  0  0  0  0  0
    1.1165    5.7751   14.5075 C   0  0  0  0  0  0  0  0  0  0  0  0
    3.4481    7.0501   17.1815 C   0  0  0  0  0  0  0  0  0  0  0  0
    4.1237    8.0308   17.3582 O   0  0  0  0  0  0  0  0  0  0  0  0
    3.4641    5.7752   17.8440 N   0  0  0  0  0  0  0  0  0  0  0  0
    4.4071    4.8159   17.1216 C   0  0  0  0  0  0  0  0  0  0  0  0
    5.8775    5.0122   17.4498 C   0  0  0  0  0  0  0  0  0  0  0  0
    5.7488    5.5097   18.8448 C   0  0  0  0  0  0  0  0  0  0  0  0
    4.2565    5.2921   19.0496 C   0  0  0  0  0  0  0  0  0  0  0  0
    3.7745    6.0412   20.3231 C   0  0  0  0  0  0  0  0  0  0  0  0
    2.4307    5.6446   20.7141 N   0  0  0  0  0  0  0  0  0  0  0  0
    1.9006    5.2229   21.9919 C   0  0  0  0  0  0  0  0  0  0  0  0
    2.4506    5.0172   23.0373 O   0  0  0  0  0  0  0  0  0  0  0  0
    0.3642    5.0377   21.8737 C   0  0  0  0  0  0  0  0  0  0  0  0
   -0.2309    4.1206   22.9041 C   0  0  0  0  0  0  0  0  0  0  0  0
   -1.2953    3.2436   22.8451 C   0  0  0  0  0  0  0  0  0  0  0  0
   -1.4606    2.5791   24.0353 N   0  0  0  0  0  0  0  0  0  0  0  0
   -0.5962    3.1380   24.8556 C   0  0  0  0  0  0  0  0  0  0  0  0
    0.1922    4.0488   24.2107 N   0  0  0  0  0  0  0  0  0  0  0  0
   -0.8163    9.6753   15.5394 H   0  0  0  0  0  0  0  0  0  0  0  0
    0.1073    8.9370   16.8638 H   0  0  0  0  0  0  0  0  0  0  0  0
    0.6741   10.4581   16.1017 H   0  0  0  0  0  0  0  0  0  0  0  0
    2.8498    8.3121   14.4822 H   0  0  0  0  0  0  0  0  0  0  0  0
    2.6451    9.2500   15.9636 H   0  0  0  0  0  0  0  0  0  0  0  0
    1.3527    6.9850   16.7744 H   0  0  0  0  0  0  0  0  0  0  0  0
    1.1591    4.7882   14.0381 H   0  0  0  0  0  0  0  0  0  0  0  0
    0.2255    5.8172   15.1411 H   0  0  0  0  0  0  0  0  0  0  0  0
    1.0595    6.5206   13.7105 H   0  0  0  0  0  0  0  0  0  0  0  0
    4.0652    3.7804   17.2682 H   0  0  0  0  0  0  0  0  0  0  0  0
    4.3029    4.9735   16.0419 H   0  0  0  0  0  0  0  0  0  0  0  0
    6.4391    4.0775   17.3648 H   0  0  0  0  0  0  0  0  0  0  0  0
    6.3459    5.7620   16.8041 H   0  0  0  0  0  0  0  0  0  0  0  0
    6.0167    6.5707   18.9067 H   0  0  0  0  0  0  0  0  0  0  0  0
    6.3607    4.9659   19.5670 H   0  0  0  0  0  0  0  0  0  0  0  0
    4.0073    4.2422   19.2466 H   0  0  0  0  0  0  0  0  0  0  0  0
    4.4381    5.8275   21.1681 H   0  0  0  0  0  0  0  0  0  0  0  0
    3.7565    7.1242   20.1638 H   0  0  0  0  0  0  0  0  0  0  0  0
    1.6850    5.6375   20.0276 H   0  0  0  0  0  0  0  0  0  0  0  0
    0.1216    4.6359   20.8826 H   0  0  0  0  0  0  0  0  0  0  0  0
   -0.0955    6.0287   21.9629 H   0  0  0  0  0  0  0  0  0  0  0  0
   -1.9443    3.0420   22.0011 H   0  0  0  0  0  0  0  0  0  0  0  0
   -0.4742    2.9103   25.9068 H   0  0  0  0  0  0  0  0  0  0  0  0
    0.9780    4.5557   24.6044 H   0  0  0  0  0  0  0  0  0  0  0  0
  1  2  1  0
  2  3  1  0
  3  4  1  0
  4  5  1  0
  5  6  1  0
  4  7  1  0
  7  8  2  0
  7  9  1  0
  9 10  1  0
 10 11  1  0
 11 12  1  0
 12 13  1  0
 13 14  1  0
 14 15  1  0
 15 16  1  0
 16 17  2  0
 16 18  1  0
 18 19  1  0
 19 20  2  0
 20 21  1  0
 21 22  2  0
 22 23  1  0
 13  9  1  0
 23 19  1  0
  1 24  1  0
  1 25  1  0
  1 26  1  0
  3 27  1  0
  3 28  1  0
  4 29  1  0
  6 30  1  0
  6 31  1  0
  6 32  1  0
 10 33  1  0
 10 34  1  0
 11 35  1  0
 11 36  1  0
 12 37  1  0
 12 38  1  0
 13 39  1  0
 14 40  1  0
 14 41  1  0
 15 42  1  0
 18 43  1  0
 18 44  1  0
 20 45  1  0
 22 46  1  0
 23 47  1  0
M  END
>  <Energy>  (1455) 
138.20100168298882

>  <compound_id>  (1455) 
10774

>  <target_id>  (1455) 
1

>  <reference_id>  (1455) 
80

>  <inspiration_ids>  (1455) 
[53, 80]

>  <energy_score>  (1455) 
16.565143517677825

>  <distance_score>  (1455) 
8.177132789555385

>  <path>  (1455) 
/opt/xchem-fragalysis-2/maxwin/BulkDock/SCRATCH/511013/C10774-P80/C10774-P80.minimised.mol

>  <scratch_subdir>  (1455) 
/opt/xchem-fragalysis-2/maxwin/BulkDock/SCRATCH/511013/C10774-P80

>  <fragmenstein_runtime>  (1455) 
13.207414388656616

>  <fragmenstein_outcome>  (1455) 
too moved

>  <fragmenstein_mode>  (1455) 
expansion

>  <fragmenstein_error>  (1455) 


$$$$
C10777-P53
     RDKit          3D

 57 58  0  0  0  0  0  0  0  0999 V2000
    8.1875    2.9010   14.8810 C   0  0  0  0  0  0  0  0  0  0  0  0
    7.8309    3.6476   16.1787 C   0  0  0  0  0  0  0  0  0  0  0  0
    8.9998    3.4860   17.1434 C   0  0  0  0  0  0  0  0  0  0  0  0
    7.3922    5.1121   15.8737 C   0  0  0  0  0  0  0  0  0  0  0  0
    6.8564    6.0396   17.0218 C   0  0  0  0  0  0  0  0  0  0  0  0
    7.9875    6.4102   18.0099 C   0  0  0  0  0  0  0  0  0  0  0  0
    8.0602    7.9173   18.3528 C   0  0  0  0  0  0  0  0  0  0  0  0
    8.6047    8.7372   17.1791 C   0  0  0  0  0  0  0  0  0  0  0  0
    8.9505    8.1288   19.5801 C   0  0  0  0  0  0  0  0  0  0  0  0
    5.5398    5.4904   17.6794 C   0  0  0  0  0  0  0  0  0  0  0  0
    4.9276    4.6172   17.2499 O   0  0  0  0  0  0  0  0  0  0  0  0
    5.3879    6.4007   19.0629 N   0  0  0  0  0  0  0  0  0  0  0  0
    4.4635    6.0796   20.0356 C   0  0  0  0  0  0  0  0  0  0  0  0
    2.9527    5.5482   19.4552 C   0  0  0  0  0  0  0  0  0  0  0  0
    2.5733    6.7701   20.0841 C   0  0  0  0  0  0  0  0  0  0  0  0
    1.5877    6.6786   21.1379 N   0  0  0  0  0  0  0  0  0  0  0  0
    1.6269    6.0054   22.4180 C   0  0  0  0  0  0  0  0  0  0  0  0
    2.5167    5.4178   22.9644 O   0  0  0  0  0  0  0  0  0  0  0  0
    0.2740    6.1772   23.1648 C   0  0  0  0  0  0  0  0  0  0  0  0
   -0.4156    4.8746   23.4252 C   0  0  0  0  0  0  0  0  0  0  0  0
   -0.3421    3.6432   22.8110 C   0  0  0  0  0  0  0  0  0  0  0  0
   -1.1913    2.7356   23.3897 N   0  0  0  0  0  0  0  0  0  0  0  0
   -1.8049    3.4061   24.3404 C   0  0  0  0  0  0  0  0  0  0  0  0
   -1.3654    4.7009   24.4089 N   0  0  0  0  0  0  0  0  0  0  0  0
    4.1092    6.5753   20.4787 C   0  0  0  0  0  0  0  0  0  0  0  0
    7.3701    2.9690   14.1564 H   0  0  0  0  0  0  0  0  0  0  0  0
    9.0839    3.3258   14.4166 H   0  0  0  0  0  0  0  0  0  0  0  0
    8.3725    1.8394   15.0768 H   0  0  0  0  0  0  0  0  0  0  0  0
    6.9685    3.1525   16.6201 H   0  0  0  0  0  0  0  0  0  0  0  0
    9.2917    2.4330   17.2233 H   0  0  0  0  0  0  0  0  0  0  0  0
    9.8684    4.0602   16.8070 H   0  0  0  0  0  0  0  0  0  0  0  0
    8.7307    3.8106   18.1515 H   0  0  0  0  0  0  0  0  0  0  0  0
    6.5968    5.0583   15.1167 H   0  0  0  0  0  0  0  0  0  0  0  0
    8.2289    5.6288   15.3839 H   0  0  0  0  0  0  0  0  0  0  0  0
    6.5207    6.9539   16.5139 H   0  0  0  0  0  0  0  0  0  0  0  0
    7.8777    5.8271   18.9323 H   0  0  0  0  0  0  0  0  0  0  0  0
    8.9630    6.1378   17.5908 H   0  0  0  0  0  0  0  0  0  0  0  0
    7.0620    8.2970   18.5956 H   0  0  0  0  0  0  0  0  0  0  0  0
    9.6103    8.4073   16.8966 H   0  0  0  0  0  0  0  0  0  0  0  0
    8.6619    9.7986   17.4438 H   0  0  0  0  0  0  0  0  0  0  0  0
    7.9628    8.6541   16.2973 H   0  0  0  0  0  0  0  0  0  0  0  0
    8.5503    7.5923   20.4470 H   0  0  0  0  0  0  0  0  0  0  0  0
    9.9696    7.7702   19.3993 H   0  0  0  0  0  0  0  0  0  0  0  0
    9.0059    9.1905   19.8429 H   0  0  0  0  0  0  0  0  0  0  0  0
    5.2368    5.3522   20.8560 H   0  0  0  0  0  0  0  0  0  0  0  0
    4.6316    4.9463   19.6721 H   0  0  0  0  0  0  0  0  0  0  0  0
    2.8658    5.5415   18.3660 H   0  0  0  0  0  0  0  0  0  0  0  0
    2.5944    4.6317   19.9407 H   0  0  0  0  0  0  0  0  0  0  0  0
    2.3810    7.6134   19.4135 H   0  0  0  0  0  0  0  0  0  0  0  0
    0.6415    6.9961   20.9598 H   0  0  0  0  0  0  0  0  0  0  0  0
   -0.4068    6.8359   22.6157 H   0  0  0  0  0  0  0  0  0  0  0  0
    0.4999    6.6808   24.1130 H   0  0  0  0  0  0  0  0  0  0  0  0
    0.2865    3.3724   21.9727 H   0  0  0  0  0  0  0  0  0  0  0  0
   -2.5766    3.0227   24.9980 H   0  0  0  0  0  0  0  0  0  0  0  0
   -1.7111    5.3921   25.0638 H   0  0  0  0  0  0  0  0  0  0  0  0
    4.2839    7.8022   20.5606 H   0  0  0  0  0  0  0  0  0  0  0  0
    4.3827    6.6243   21.7131 H   0  0  0  0  0  0  0  0  0  0  0  0
  1  2  1  0
  2  3  1  0
  2  4  1  0
  4  5  1  0
  5  6  1  0
  6  7  1  0
  7  8  1  0
  7  9  1  0
  5 10  1  0
 10 11  2  0
 10 12  1  0
 12 13  1  0
 13 14  1  0
 14 15  1  0
 15 16  1  0
 16 17  1  0
 17 18  2  0
 17 19  1  0
 19 20  1  0
 20 21  2  0
 21 22  1  0
 22 23  2  0
 23 24  1  0
 15 25  1  0
 25 12  1  0
 24 20  1  0
  1 26  1  0
  1 27  1  0
  1 28  1  0
  2 29  1  0
  3 30  1  0
  3 31  1  0
  3 32  1  0
  4 33  1  0
  4 34  1  0
  5 35  1  0
  6 36  1  0
  6 37  1  0
  7 38  1  0
  8 39  1  0
  8 40  1  0
  8 41  1  0
  9 42  1  0
  9 43  1  0
  9 44  1  0
 13 45  1  0
 13 46  1  0
 14 47  1  0
 14 48  1  0
 15 49  1  0
 16 50  1  0
 19 51  1  0
 19 52  1  0
 21 53  1  0
 23 54  1  0
 24 55  1  0
 25 56  1  0
 25 57  1  0
M  END
>  <Energy>  (1456) 
757.74980016472716

>  <compound_id>  (1456) 
10777

>  <target_id>  (1456) 
1

>  <reference_id>  (1456) 
53

>  <inspiration_ids>  (1456) 
[53, 80]

>  <energy_score>  (1456) 
682.1092279259351

>  <distance_score>  (1456) 
6.632789647426407

>  <path>  (1456) 
/opt/xchem-fragalysis-2/maxwin/BulkDock/SCRATCH/511013/C10777-P53/C10777-P53.minimised.mol

>  <scratch_subdir>  (1456) 
/opt/xchem-fragalysis-2/maxwin/BulkDock/SCRATCH/511013/C10777-P53

>  <fragmenstein_runtime>  (1456) 
17.33131241798401

>  <fragmenstein_outcome>  (1456) 
too moved

>  <fragmenstein_mode>  (1456) 
expansion

>  <fragmenstein_error>  (1456) 


$$$$
C10777-P80
     RDKit          3D

 57 58  0  0  0  0  0  0  0  0999 V2000
   10.3088    3.6613   14.9108 C   0  0  0  0  0  0  0  0  0  0  0  0
    9.7704    2.9681   16.1542 C   0  0  0  0  0  0  0  0  0  0  0  0
    9.9371    1.4511   15.9789 C   0  0  0  0  0  0  0  0  0  0  0  0
    8.3036    3.3364   16.5108 C   0  0  0  0  0  0  0  0  0  0  0  0
    7.9880    4.8091   16.9373 C   0  0  0  0  0  0  0  0  0  0  0  0
    7.5714    5.6748   15.7347 C   0  0  0  0  0  0  0  0  0  0  0  0
    7.3777    7.1737   16.0459 C   0  0  0  0  0  0  0  0  0  0  0  0
    6.8352    7.8903   14.8057 C   0  0  0  0  0  0  0  0  0  0  0  0
    8.6740    7.8466   16.4997 C   0  0  0  0  0  0  0  0  0  0  0  0
    6.8071    4.7610   17.9542 C   0  0  0  0  0  0  0  0  0  0  0  0
    5.8662    4.1032   17.7860 O   0  0  0  0  0  0  0  0  0  0  0  0
    7.2674    5.6612   19.1652 N   0  0  0  0  0  0  0  0  0  0  0  0
    6.7083    6.0526   20.2858 C   0  0  0  0  0  0  0  0  0  0  0  0
    5.1479    6.6149   19.8027 C   0  0  0  0  0  0  0  0  0  0  0  0
    4.9120    6.3316   21.1736 C   0  0  0  0  0  0  0  0  0  0  0  0
    3.8760    5.3942   21.5226 N   0  0  0  0  0  0  0  0  0  0  0  0
    2.7290    5.5302   22.3948 C   0  0  0  0  0  0  0  0  0  0  0  0
    2.3065    6.4819   22.9861 O   0  0  0  0  0  0  0  0  0  0  0  0
    2.0133    4.1657   22.5018 C   0  0  0  0  0  0  0  0  0  0  0  0
    1.0125    4.0713   23.6162 C   0  0  0  0  0  0  0  0  0  0  0  0
    0.9519    3.2535   24.7265 C   0  0  0  0  0  0  0  0  0  0  0  0
   -0.2396    3.3971   25.3850 N   0  0  0  0  0  0  0  0  0  0  0  0
   -0.8545    4.3812   24.7696 C   0  0  0  0  0  0  0  0  0  0  0  0
   -0.1280    4.8359   23.7016 N   0  0  0  0  0  0  0  0  0  0  0  0
    6.3513    5.7107   20.8942 C   0  0  0  0  0  0  0  0  0  0  0  0
   11.3067    3.2898   14.6533 H   0  0  0  0  0  0  0  0  0  0  0  0
   10.4026    4.7386   15.0788 H   0  0  0  0  0  0  0  0  0  0  0  0
    9.6567    3.5071   14.0462 H   0  0  0  0  0  0  0  0  0  0  0  0
   10.4012    3.2694   16.9965 H   0  0  0  0  0  0  0  0  0  0  0  0
   10.9969    1.1784   16.0271 H   0  0  0  0  0  0  0  0  0  0  0  0
    9.5669    1.0980   15.0163 H   0  0  0  0  0  0  0  0  0  0  0  0
    9.3995    0.8998   16.7545 H   0  0  0  0  0  0  0  0  0  0  0  0
    7.6422    3.0561   15.6893 H   0  0  0  0  0  0  0  0  0  0  0  0
    8.0232    2.6815   17.3436 H   0  0  0  0  0  0  0  0  0  0  0  0
    8.8793    5.2137   17.4271 H   0  0  0  0  0  0  0  0  0  0  0  0
    8.3097    5.5776   14.9320 H   0  0  0  0  0  0  0  0  0  0  0  0
    6.6297    5.2815   15.3274 H   0  0  0  0  0  0  0  0  0  0  0  0
    6.6318    7.2869   16.8413 H   0  0  0  0  0  0  0  0  0  0  0  0
    7.5382    7.8242   13.9683 H   0  0  0  0  0  0  0  0  0  0  0  0
    6.6566    8.9503   15.0155 H   0  0  0  0  0  0  0  0  0  0  0  0
    5.8845    7.4502   14.4866 H   0  0  0  0  0  0  0  0  0  0  0  0
    9.0217    7.4457   17.4559 H   0  0  0  0  0  0  0  0  0  0  0  0
    9.4717    7.7090   15.7619 H   0  0  0  0  0  0  0  0  0  0  0  0
    8.5242    8.9230   16.6375 H   0  0  0  0  0  0  0  0  0  0  0  0
    6.9279    7.1890   19.8754 H   0  0  0  0  0  0  0  0  0  0  0  0
    7.7623    6.6682   20.8344 H   0  0  0  0  0  0  0  0  0  0  0  0
    4.6526    5.9650   19.0736 H   0  0  0  0  0  0  0  0  0  0  0  0
    5.1114    7.6715   19.5113 H   0  0  0  0  0  0  0  0  0  0  0  0
    4.9383    7.1938   21.8473 H   0  0  0  0  0  0  0  0  0  0  0  0
    3.9811    4.4090   21.2594 H   0  0  0  0  0  0  0  0  0  0  0  0
    2.7638    3.3840   22.6598 H   0  0  0  0  0  0  0  0  0  0  0  0
    1.5134    3.9701   21.5460 H   0  0  0  0  0  0  0  0  0  0  0  0
    1.6900    2.5331   25.0562 H   0  0  0  0  0  0  0  0  0  0  0  0
   -1.8110    4.8086   25.0462 H   0  0  0  0  0  0  0  0  0  0  0  0
   -0.3802    5.6114   23.1024 H   0  0  0  0  0  0  0  0  0  0  0  0
    6.9933    5.5455   21.9607 H   0  0  0  0  0  0  0  0  0  0  0  0
    6.0645    4.5184   20.9457 H   0  0  0  0  0  0  0  0  0  0  0  0
  1  2  1  0
  2  3  1  0
  2  4  1  0
  4  5  1  0
  5  6  1  0
  6  7  1  0
  7  8  1  0
  7  9  1  0
  5 10  1  0
 10 11  2  0
 10 12  1  0
 12 13  1  0
 13 14  1  0
 14 15  1  0
 15 16  1  0
 16 17  1  0
 17 18  2  0
 17 19  1  0
 19 20  1  0
 20 21  2  0
 21 22  1  0
 22 23  2  0
 23 24  1  0
 15 25  1  0
 25 12  1  0
 24 20  1  0
  1 26  1  0
  1 27  1  0
  1 28  1  0
  2 29  1  0
  3 30  1  0
  3 31  1  0
  3 32  1  0
  4 33  1  0
  4 34  1  0
  5 35  1  0
  6 36  1  0
  6 37  1  0
  7 38  1  0
  8 39  1  0
  8 40  1  0
  8 41  1  0
  9 42  1  0
  9 43  1  0
  9 44  1  0
 13 45  1  0
 13 46  1  0
 14 47  1  0
 14 48  1  0
 15 49  1  0
 16 50  1  0
 19 51  1  0
 19 52  1  0
 21 53  1  0
 23 54  1  0
 24 55  1  0
 25 56  1  0
 25 57  1  0
M  END
>  <Energy>  (1457) 
793.38646630545281

>  <compound_id>  (1457) 
10777

>  <target_id>  (1457) 
1

>  <reference_id>  (1457) 
80

>  <inspiration_ids>  (1457) 
[53, 80]

>  <energy_score>  (1457) 
717.7458940666631

>  <distance_score>  (1457) 
6.48839668433173

>  <path>  (1457) 
/opt/xchem-fragalysis-2/maxwin/BulkDock/SCRATCH/511013/C10777-P80/C10777-P80.minimised.mol

>  <scratch_subdir>  (1457) 
/opt/xchem-fragalysis-2/maxwin/BulkDock/SCRATCH/511013/C10777-P80

>  <fragmenstein_runtime>  (1457) 
16.39565873146057

>  <fragmenstein_outcome>  (1457) 
too moved

>  <fragmenstein_mode>  (1457) 
expansion

>  <fragmenstein_error>  (1457) 


$$$$
C10778-P53
     RDKit          3D

 37 38  0  0  0  0  0  0  0  0999 V2000
    3.6900    1.4512   21.9217 C   0  0  0  0  0  0  0  0  0  0  0  0
    5.0674    0.1081   21.3167 C   0  0  0  0  0  0  0  0  0  0  0  0
    5.0482   -1.0853   22.8920 C   0  0  0  0  0  0  0  0  0  0  0  0
    5.0931   -1.3070   24.6277 C   0  0  0  0  0  0  0  0  0  0  0  0
    4.0126   -0.8507   25.5340 N   0  0  0  0  0  0  0  0  0  0  0  0
    4.0190    0.5798   25.8540 C   0  0  0  0  0  0  0  0  0  0  0  0
    3.1202    0.6871   27.0838 C   0  0  0  0  0  0  0  0  0  0  0  0
    3.1344   -0.7046   27.7015 C   0  0  0  0  0  0  0  0  0  0  0  0
    4.1111   -1.4989   26.8499 C   0  0  0  0  0  0  0  0  0  0  0  0
    6.7269    0.2691   20.0517 N   0  0  0  0  0  0  0  0  0  0  0  0
    6.9470   -0.1443   18.5377 C   0  0  0  0  0  0  0  0  0  0  0  0
    6.2166   -0.7508   17.7559 O   0  0  0  0  0  0  0  0  0  0  0  0
    8.2149    0.4046   17.9750 C   0  0  0  0  0  0  0  0  0  0  0  0
    8.7368    0.2042   16.6860 C   0  0  0  0  0  0  0  0  0  0  0  0
    9.5654    1.2066   16.2870 N   0  0  0  0  0  0  0  0  0  0  0  0
    9.3410    2.1524   17.1618 C   0  0  0  0  0  0  0  0  0  0  0  0
    8.6444    1.6934   18.2438 N   0  0  0  0  0  0  0  0  0  0  0  0
    3.6993    2.5338   22.2511 H   0  0  0  0  0  0  0  0  0  0  0  0
    3.6219    1.4331   23.0385 H   0  0  0  0  0  0  0  0  0  0  0  0
    2.8070    1.4770   21.2847 H   0  0  0  0  0  0  0  0  0  0  0  0
    5.3494    0.9166   22.0105 H   0  0  0  0  0  0  0  0  0  0  0  0
    4.7972   -0.1711   23.3953 H   0  0  0  0  0  0  0  0  0  0  0  0
    4.3269   -1.8848   22.7896 H   0  0  0  0  0  0  0  0  0  0  0  0
    6.0497   -0.9697   25.0517 H   0  0  0  0  0  0  0  0  0  0  0  0
    5.1391   -2.4049   24.7115 H   0  0  0  0  0  0  0  0  0  0  0  0
    5.0284    0.9270   26.1085 H   0  0  0  0  0  0  0  0  0  0  0  0
    3.6356    1.2070   25.0520 H   0  0  0  0  0  0  0  0  0  0  0  0
    3.4977    1.4411   27.7823 H   0  0  0  0  0  0  0  0  0  0  0  0
    2.0969    0.9659   26.8104 H   0  0  0  0  0  0  0  0  0  0  0  0
    3.4378   -0.6821   28.7528 H   0  0  0  0  0  0  0  0  0  0  0  0
    2.1306   -1.1426   27.6510 H   0  0  0  0  0  0  0  0  0  0  0  0
    5.1237   -1.4145   27.2654 H   0  0  0  0  0  0  0  0  0  0  0  0
    3.8379   -2.5582   26.8127 H   0  0  0  0  0  0  0  0  0  0  0  0
    7.5088    0.8373   20.3610 H   0  0  0  0  0  0  0  0  0  0  0  0
    8.4888   -0.5789   15.9804 H   0  0  0  0  0  0  0  0  0  0  0  0
    9.6700    3.1807   17.0857 H   0  0  0  0  0  0  0  0  0  0  0  0
    8.2624    2.2966   18.9553 H   0  0  0  0  0  0  0  0  0  0  0  0
  1  2  1  0
  2  3  1  0
  3  4  1  0
  4  5  1  0
  5  6  1  0
  6  7  1  0
  7  8  1  0
  8  9  1  0
  2 10  1  0
 10 11  1  0
 11 12  2  0
 11 13  1  0
 13 14  2  0
 14 15  1  0
 15 16  2  0
 16 17  1  0
  9  5  1  0
 17 13  1  0
  1 18  1  0
  1 19  1  0
  1 20  1  0
  2 21  1  0
  3 22  1  0
  3 23  1  0
  4 24  1  0
  4 25  1  0
  6 26  1  0
  6 27  1  0
  7 28  1  0
  7 29  1  0
  8 30  1  0
  8 31  1  0
  9 32  1  0
  9 33  1  0
 10 34  1  0
 14 35  1  0
 16 36  1  0
 17 37  1  0
M  END
>  <Energy>  (1458) 
395.31678508581786

>  <compound_id>  (1458) 
10778

>  <target_id>  (1458) 
1

>  <reference_id>  (1458) 
53

>  <inspiration_ids>  (1458) 
[53, 80]

>  <energy_score>  (1458) 
405.6873054769185

>  <distance_score>  (1458) 
6.907431111909895

>  <path>  (1458) 
/opt/xchem-fragalysis-2/maxwin/BulkDock/SCRATCH/511013/C10778-P53/C10778-P53.minimised.mol

>  <scratch_subdir>  (1458) 
/opt/xchem-fragalysis-2/maxwin/BulkDock/SCRATCH/511013/C10778-P53

>  <fragmenstein_runtime>  (1458) 
4.9121809005737305

>  <fragmenstein_outcome>  (1458) 
too moved

>  <fragmenstein_mode>  (1458) 
expansion

>  <fragmenstein_error>  (1458) 


$$$$
C10778-P80
     RDKit          3D

 37 38  0  0  0  0  0  0  0  0999 V2000
    3.7918    4.4508   25.8325 C   0  0  0  0  0  0  0  0  0  0  0  0
    2.9945    4.8215   24.5748 C   0  0  0  0  0  0  0  0  0  0  0  0
    1.7646    3.8959   24.3585 C   0  0  0  0  0  0  0  0  0  0  0  0
    0.9837    3.6229   25.6650 C   0  0  0  0  0  0  0  0  0  0  0  0
   -0.3210    2.9534   25.5081 N   0  0  0  0  0  0  0  0  0  0  0  0
   -1.3612    3.8668   24.9924 C   0  0  0  0  0  0  0  0  0  0  0  0
   -2.6275    3.5824   25.7969 C   0  0  0  0  0  0  0  0  0  0  0  0
   -2.2927    2.3670   26.6342 C   0  0  0  0  0  0  0  0  0  0  0  0
   -0.8008    2.5084   26.8315 C   0  0  0  0  0  0  0  0  0  0  0  0
    3.8929    4.9405   23.4123 N   0  0  0  0  0  0  0  0  0  0  0  0
    5.0775    5.7365   23.2129 C   0  0  0  0  0  0  0  0  0  0  0  0
    5.5875    6.5608   23.9107 O   0  0  0  0  0  0  0  0  0  0  0  0
    5.7391    5.5051   21.9246 C   0  0  0  0  0  0  0  0  0  0  0  0
    7.0943    5.6186   21.6374 C   0  0  0  0  0  0  0  0  0  0  0  0
    7.3585    5.4900   20.2923 N   0  0  0  0  0  0  0  0  0  0  0  0
    6.1763    5.3221   19.7451 C   0  0  0  0  0  0  0  0  0  0  0  0
    5.1815    5.2717   20.6874 N   0  0  0  0  0  0  0  0  0  0  0  0
    4.7043    5.0486   25.9227 H   0  0  0  0  0  0  0  0  0  0  0  0
    4.0872    3.3998   25.8221 H   0  0  0  0  0  0  0  0  0  0  0  0
    3.2109    4.6301   26.7427 H   0  0  0  0  0  0  0  0  0  0  0  0
    2.6208    5.8409   24.7365 H   0  0  0  0  0  0  0  0  0  0  0  0
    1.1123    4.3545   23.6058 H   0  0  0  0  0  0  0  0  0  0  0  0
    2.1051    2.9421   23.9396 H   0  0  0  0  0  0  0  0  0  0  0  0
    1.6145    2.9678   26.2803 H   0  0  0  0  0  0  0  0  0  0  0  0
    0.8604    4.5607   26.2233 H   0  0  0  0  0  0  0  0  0  0  0  0
   -1.0971    4.9267   25.0898 H   0  0  0  0  0  0  0  0  0  0  0  0
   -1.5242    3.6597   23.9293 H   0  0  0  0  0  0  0  0  0  0  0  0
   -3.5026    3.4201   25.1627 H   0  0  0  0  0  0  0  0  0  0  0  0
   -2.8413    4.4316   26.4564 H   0  0  0  0  0  0  0  0  0  0  0  0
   -2.8373    2.3527   27.5812 H   0  0  0  0  0  0  0  0  0  0  0  0
   -2.5270    1.4453   26.0926 H   0  0  0  0  0  0  0  0  0  0  0  0
   -0.6025    3.2552   27.6119 H   0  0  0  0  0  0  0  0  0  0  0  0
   -0.3399    1.5608   27.1277 H   0  0  0  0  0  0  0  0  0  0  0  0
    3.8040    4.2807   22.6447 H   0  0  0  0  0  0  0  0  0  0  0  0
    7.8869    5.8272   22.3468 H   0  0  0  0  0  0  0  0  0  0  0  0
    5.9732    5.2091   18.6875 H   0  0  0  0  0  0  0  0  0  0  0  0
    4.1986    5.1413   20.4943 H   0  0  0  0  0  0  0  0  0  0  0  0
  1  2  1  0
  2  3  1  0
  3  4  1  0
  4  5  1  0
  5  6  1  0
  6  7  1  0
  7  8  1  0
  8  9  1  0
  2 10  1  0
 10 11  1  0
 11 12  2  0
 11 13  1  0
 13 14  2  0
 14 15  1  0
 15 16  2  0
 16 17  1  0
  9  5  1  0
 17 13  1  0
  1 18  1  0
  1 19  1  0
  1 20  1  0
  2 21  1  0
  3 22  1  0
  3 23  1  0
  4 24  1  0
  4 25  1  0
  6 26  1  0
  6 27  1  0
  7 28  1  0
  7 29  1  0
  8 30  1  0
  8 31  1  0
  9 32  1  0
  9 33  1  0
 10 34  1  0
 14 35  1  0
 16 36  1  0
 17 37  1  0
M  END
>  <Energy>  (1459) 
-15.195173557739253

>  <compound_id>  (1459) 
10778

>  <target_id>  (1459) 
1

>  <reference_id>  (1459) 
80

>  <inspiration_ids>  (1459) 
[53, 80]

>  <energy_score>  (1459) 
-4.824653166636779

>  <distance_score>  (1459) 
7.572974941703988

>  <path>  (1459) 
/opt/xchem-fragalysis-2/maxwin/BulkDock/SCRATCH/511013/C10778-P80/C10778-P80.minimised.mol

>  <scratch_subdir>  (1459) 
/opt/xchem-fragalysis-2/maxwin/BulkDock/SCRATCH/511013/C10778-P80

>  <fragmenstein_runtime>  (1459) 
7.076251029968262

>  <fragmenstein_outcome>  (1459) 
too moved

>  <fragmenstein_mode>  (1459) 
expansion

>  <fragmenstein_error>  (1459) 


$$$$
C10779-P53
     RDKit          3D

 49 50  0  0  0  0  0  0  0  0999 V2000
    1.0864    5.9520   27.3568 C   0  0  0  0  0  0  0  0  0  0  0  0
    1.7926    5.0071   26.3915 C   0  0  0  0  0  0  0  0  0  0  0  0
    3.3175    5.2316   26.3070 C   0  0  0  0  0  0  0  0  0  0  0  0
    4.0426    5.0715   27.6598 C   0  0  0  0  0  0  0  0  0  0  0  0
    4.0103    3.6525   28.2195 C   0  0  0  0  0  0  0  0  0  0  0  0
    4.6749    3.6538   29.4839 O   0  0  0  0  0  0  0  0  0  0  0  0
    4.7517    2.3478   30.0377 C   0  0  0  0  0  0  0  0  0  0  0  0
    4.0937    4.4607   25.1933 C   0  0  0  0  0  0  0  0  0  0  0  0
    5.2978    4.5010   25.2055 O   0  0  0  0  0  0  0  0  0  0  0  0
    3.1972    3.8830   24.2486 N   0  0  0  0  0  0  0  0  0  0  0  0
    2.8922    2.4820   24.6205 C   0  0  0  0  0  0  0  0  0  0  0  0
    3.9666    1.4383   24.3154 C   0  0  0  0  0  0  0  0  0  0  0  0
    4.1723    1.6715   22.8103 C   0  0  0  0  0  0  0  0  0  0  0  0
    5.0753    0.4068   21.5412 C   0  0  0  0  0  0  0  0  0  0  0  0
    6.4846    0.1917   20.0815 N   0  0  0  0  0  0  0  0  0  0  0  0
    7.6526    1.1607   19.6263 C   0  0  0  0  0  0  0  0  0  0  0  0
    8.0282    2.2086   20.1033 O   0  0  0  0  0  0  0  0  0  0  0  0
    8.3774    0.8883   18.3689 C   0  0  0  0  0  0  0  0  0  0  0  0
    8.0451    0.3196   17.1491 C   0  0  0  0  0  0  0  0  0  0  0  0
    8.9632    0.5248   16.1622 N   0  0  0  0  0  0  0  0  0  0  0  0
    9.6015    1.5774   16.5822 C   0  0  0  0  0  0  0  0  0  0  0  0
    9.2838    1.8439   17.8808 N   0  0  0  0  0  0  0  0  0  0  0  0
    3.4617    3.2182   22.8718 C   0  0  0  0  0  0  0  0  0  0  0  0
    0.0014    5.8287   27.2737 H   0  0  0  0  0  0  0  0  0  0  0  0
    1.3257    6.9962   27.1331 H   0  0  0  0  0  0  0  0  0  0  0  0
    1.3599    5.7445   28.3952 H   0  0  0  0  0  0  0  0  0  0  0  0
    1.3455    5.1600   25.4017 H   0  0  0  0  0  0  0  0  0  0  0  0
    1.5573    3.9792   26.6825 H   0  0  0  0  0  0  0  0  0  0  0  0
    3.4466    6.2851   26.0141 H   0  0  0  0  0  0  0  0  0  0  0  0
    5.0921    5.3803   27.5621 H   0  0  0  0  0  0  0  0  0  0  0  0
    3.6272    5.7644   28.4013 H   0  0  0  0  0  0  0  0  0  0  0  0
    2.9795    3.3141   28.3659 H   0  0  0  0  0  0  0  0  0  0  0  0
    4.5218    2.9603   27.5418 H   0  0  0  0  0  0  0  0  0  0  0  0
    3.7491    1.9389   30.1959 H   0  0  0  0  0  0  0  0  0  0  0  0
    5.3292    1.6875   29.3836 H   0  0  0  0  0  0  0  0  0  0  0  0
    5.2591    2.4125   31.0039 H   0  0  0  0  0  0  0  0  0  0  0  0
    1.8958    2.2758   24.2240 H   0  0  0  0  0  0  0  0  0  0  0  0
    2.7523    2.4488   25.7084 H   0  0  0  0  0  0  0  0  0  0  0  0
    3.6563    0.4411   24.6328 H   0  0  0  0  0  0  0  0  0  0  0  0
    4.8366    1.6923   24.9283 H   0  0  0  0  0  0  0  0  0  0  0  0
    3.2361    1.5362   22.2596 H   0  0  0  0  0  0  0  0  0  0  0  0
    5.0669   -0.5942   21.9812 H   0  0  0  0  0  0  0  0  0  0  0  0
    4.2537    0.6416   20.9903 H   0  0  0  0  0  0  0  0  0  0  0  0
    6.4962   -0.6430   19.5069 H   0  0  0  0  0  0  0  0  0  0  0  0
    7.1484   -0.1847   16.8491 H   0  0  0  0  0  0  0  0  0  0  0  0
   10.2984    2.1763   16.0106 H   0  0  0  0  0  0  0  0  0  0  0  0
    9.6364    2.6242   18.4254 H   0  0  0  0  0  0  0  0  0  0  0  0
    4.0072    4.0043   22.3374 H   0  0  0  0  0  0  0  0  0  0  0  0
    2.4776    3.2247   22.3628 H   0  0  0  0  0  0  0  0  0  0  0  0
  1  2  1  0
  2  3  1  0
  3  4  1  0
  4  5  1  0
  5  6  1  0
  6  7  1  0
  3  8  1  0
  8  9  2  0
  8 10  1  0
 10 11  1  0
 11 12  1  0
 12 13  1  0
 13 14  1  0
 14 15  1  0
 15 16  1  0
 16 17  2  0
 16 18  1  0
 18 19  2  0
 19 20  1  0
 20 21  2  0
 21 22  1  0
 13 23  1  0
 23 10  1  0
 22 18  1  0
  1 24  1  0
  1 25  1  0
  1 26  1  0
  2 27  1  0
  2 28  1  0
  3 29  1  0
  4 30  1  0
  4 31  1  0
  5 32  1  0
  5 33  1  0
  7 34  1  0
  7 35  1  0
  7 36  1  0
 11 37  1  0
 11 38  1  0
 12 39  1  0
 12 40  1  0
 13 41  1  0
 14 42  1  0
 14 43  1  0
 15 44  1  0
 19 45  1  0
 21 46  1  0
 22 47  1  0
 23 48  1  0
 23 49  1  0
M  END
>  <Energy>  (1460) 
309.50847607738984

>  <compound_id>  (1460) 
10779

>  <target_id>  (1460) 
1

>  <reference_id>  (1460) 
53

>  <inspiration_ids>  (1460) 
[53, 80]

>  <energy_score>  (1460) 
297.9145265656899

>  <distance_score>  (1460) 
5.797092650690956

>  <path>  (1460) 
/opt/xchem-fragalysis-2/maxwin/BulkDock/SCRATCH/511013/C10779-P53/C10779-P53.minimised.mol

>  <scratch_subdir>  (1460) 
/opt/xchem-fragalysis-2/maxwin/BulkDock/SCRATCH/511013/C10779-P53

>  <fragmenstein_runtime>  (1460) 
7.6864941120147705

>  <fragmenstein_outcome>  (1460) 
too moved

>  <fragmenstein_mode>  (1460) 
expansion

>  <fragmenstein_error>  (1460) 


$$$$
C10779-P80
     RDKit          3D

 49 50  0  0  0  0  0  0  0  0999 V2000
   -1.7742    6.7867   21.3554 C   0  0  0  0  0  0  0  0  0  0  0  0
   -1.8172    5.2628   21.3891 C   0  0  0  0  0  0  0  0  0  0  0  0
   -0.6272    4.6436   22.1620 C   0  0  0  0  0  0  0  0  0  0  0  0
   -1.0749    3.3822   22.9114 C   0  0  0  0  0  0  0  0  0  0  0  0
   -1.9660    3.6735   24.1156 C   0  0  0  0  0  0  0  0  0  0  0  0
   -2.0253    2.4671   24.8904 O   0  0  0  0  0  0  0  0  0  0  0  0
   -2.7905    2.6803   26.0798 C   0  0  0  0  0  0  0  0  0  0  0  0
    0.5958    4.4664   21.2032 C   0  0  0  0  0  0  0  0  0  0  0  0
    0.8016    5.3451   20.4036 O   0  0  0  0  0  0  0  0  0  0  0  0
    1.3500    3.2924   21.5033 N   0  0  0  0  0  0  0  0  0  0  0  0
    2.3084    3.5610   22.5623 C   0  0  0  0  0  0  0  0  0  0  0  0
    3.0046    2.3054   23.0853 C   0  0  0  0  0  0  0  0  0  0  0  0
    3.4380    1.3667   21.7241 C   0  0  0  0  0  0  0  0  0  0  0  0
    5.2182    0.2882   21.3043 C   0  0  0  0  0  0  0  0  0  0  0  0
    6.4076    0.1175   19.5771 N   0  0  0  0  0  0  0  0  0  0  0  0
    7.5527   -0.4489   19.3576 C   0  0  0  0  0  0  0  0  0  0  0  0
    8.2107   -1.0949   20.0399 O   0  0  0  0  0  0  0  0  0  0  0  0
    8.1318    0.0502   17.7035 C   0  0  0  0  0  0  0  0  0  0  0  0
    8.3771   -0.5037   16.4119 C   0  0  0  0  0  0  0  0  0  0  0  0
    9.2240    0.2686   15.6532 N   0  0  0  0  0  0  0  0  0  0  0  0
    9.2491    1.4254   16.2458 C   0  0  0  0  0  0  0  0  0  0  0  0
    8.4588    1.3973   17.3450 N   0  0  0  0  0  0  0  0  0  0  0  0
    2.5809    2.7171   20.8468 C   0  0  0  0  0  0  0  0  0  0  0  0
   -1.8037    7.1984   22.3694 H   0  0  0  0  0  0  0  0  0  0  0  0
   -2.6416    7.1736   20.8109 H   0  0  0  0  0  0  0  0  0  0  0  0
   -0.8752    7.1615   20.8596 H   0  0  0  0  0  0  0  0  0  0  0  0
   -2.7723    4.9776   21.8424 H   0  0  0  0  0  0  0  0  0  0  0  0
   -1.8419    4.8803   20.3612 H   0  0  0  0  0  0  0  0  0  0  0  0
   -0.2801    5.3632   22.9172 H   0  0  0  0  0  0  0  0  0  0  0  0
   -1.5765    2.6859   22.2323 H   0  0  0  0  0  0  0  0  0  0  0  0
   -0.2162    2.8400   23.3054 H   0  0  0  0  0  0  0  0  0  0  0  0
   -2.9765    3.9582   23.8064 H   0  0  0  0  0  0  0  0  0  0  0  0
   -1.5336    4.4720   24.7291 H   0  0  0  0  0  0  0  0  0  0  0  0
   -3.8074    3.0008   25.8343 H   0  0  0  0  0  0  0  0  0  0  0  0
   -2.3031    3.4244   26.7170 H   0  0  0  0  0  0  0  0  0  0  0  0
   -2.8423    1.7338   26.6242 H   0  0  0  0  0  0  0  0  0  0  0  0
    1.7464    3.9848   23.4083 H   0  0  0  0  0  0  0  0  0  0  0  0
    3.0047    4.3852   22.3149 H   0  0  0  0  0  0  0  0  0  0  0  0
    2.4482    1.7691   23.8500 H   0  0  0  0  0  0  0  0  0  0  0  0
    3.6600    2.8587   23.7319 H   0  0  0  0  0  0  0  0  0  0  0  0
    2.5814    0.8631   21.4128 H   0  0  0  0  0  0  0  0  0  0  0  0
    4.9957   -0.6918   21.7808 H   0  0  0  0  0  0  0  0  0  0  0  0
    5.9514    0.9064   21.8475 H   0  0  0  0  0  0  0  0  0  0  0  0
    6.1886    0.6356   18.8331 H   0  0  0  0  0  0  0  0  0  0  0  0
    8.1044   -1.4602   15.9851 H   0  0  0  0  0  0  0  0  0  0  0  0
    9.7639    2.3131   15.9024 H   0  0  0  0  0  0  0  0  0  0  0  0
    8.1605    2.2015   17.8699 H   0  0  0  0  0  0  0  0  0  0  0  0
    3.1854    3.5637   20.4643 H   0  0  0  0  0  0  0  0  0  0  0  0
    2.1318    2.3250   19.9348 H   0  0  0  0  0  0  0  0  0  0  0  0
  1  2  1  0
  2  3  1  0
  3  4  1  0
  4  5  1  0
  5  6  1  0
  6  7  1  0
  3  8  1  0
  8  9  2  0
  8 10  1  0
 10 11  1  0
 11 12  1  0
 12 13  1  0
 13 14  1  0
 14 15  1  0
 15 16  1  0
 16 17  2  0
 16 18  1  0
 18 19  2  0
 19 20  1  0
 20 21  2  0
 21 22  1  0
 13 23  1  0
 23 10  1  0
 22 18  1  0
  1 24  1  0
  1 25  1  0
  1 26  1  0
  2 27  1  0
  2 28  1  0
  3 29  1  0
  4 30  1  0
  4 31  1  0
  5 32  1  0
  5 33  1  0
  7 34  1  0
  7 35  1  0
  7 36  1  0
 11 37  1  0
 11 38  1  0
 12 39  1  0
 12 40  1  0
 13 41  1  0
 14 42  1  0
 14 43  1  0
 15 44  1  0
 19 45  1  0
 21 46  1  0
 22 47  1  0
 23 48  1  0
 23 49  1  0
M  END
>  <Energy>  (1461) 
397.30807216736326

>  <compound_id>  (1461) 
10779

>  <target_id>  (1461) 
1

>  <reference_id>  (1461) 
80

>  <inspiration_ids>  (1461) 
[53, 80]

>  <energy_score>  (1461) 
385.71412265566096

>  <distance_score>  (1461) 
6.458282140882777

>  <path>  (1461) 
/opt/xchem-fragalysis-2/maxwin/BulkDock/SCRATCH/511013/C10779-P80/C10779-P80.minimised.mol

>  <scratch_subdir>  (1461) 
/opt/xchem-fragalysis-2/maxwin/BulkDock/SCRATCH/511013/C10779-P80

>  <fragmenstein_runtime>  (1461) 
18.272937774658203

>  <fragmenstein_outcome>  (1461) 
too moved

>  <fragmenstein_mode>  (1461) 
expansion

>  <fragmenstein_error>  (1461) 


$$$$
C10781-P53
     RDKit          3D

 51 52  0  0  0  0  0  0  0  0999 V2000
   17.0653   -5.2122   19.9981 C   0  0  0  0  0  0  0  0  0  0  0  0
   16.0155   -4.0977   19.9772 C   0  0  0  0  0  0  0  0  0  0  0  0
   14.6174   -4.7011   20.1192 C   0  0  0  0  0  0  0  0  0  0  0  0
   16.3323   -3.0634   21.0758 C   0  0  0  0  0  0  0  0  0  0  0  0
   15.3373   -1.9047   21.2047 C   0  0  0  0  0  0  0  0  0  0  0  0
   15.1984   -1.0818   19.9263 C   0  0  0  0  0  0  0  0  0  0  0  0
   14.2149    0.0738   20.0842 C   0  0  0  0  0  0  0  0  0  0  0  0
   14.5093    1.2161   19.9812 O   0  0  0  0  0  0  0  0  0  0  0  0
   12.7976   -0.6323   20.3320 N   0  0  0  0  0  0  0  0  0  0  0  0
   11.9548   -1.1733   18.2983 C   0  0  0  0  0  0  0  0  0  0  0  0
   10.2395    0.2009   17.8634 C   0  0  0  0  0  0  0  0  0  0  0  0
    9.2255    0.3091   19.5711 C   0  0  0  0  0  0  0  0  0  0  0  0
   10.8415    0.3820   20.8454 C   0  0  0  0  0  0  0  0  0  0  0  0
   11.2280    2.1411   21.1499 C   0  0  0  0  0  0  0  0  0  0  0  0
   10.1647    3.1332   21.0657 N   0  0  0  0  0  0  0  0  0  0  0  0
    9.7561    4.1733   21.9969 C   0  0  0  0  0  0  0  0  0  0  0  0
   10.1405    4.4258   23.1062 O   0  0  0  0  0  0  0  0  0  0  0  0
    8.6811    5.1056   21.3465 C   0  0  0  0  0  0  0  0  0  0  0  0
    7.6711    5.6864   22.3170 C   0  0  0  0  0  0  0  0  0  0  0  0
    6.3944    6.1940   22.1264 C   0  0  0  0  0  0  0  0  0  0  0  0
    5.7748    6.4495   23.3255 N   0  0  0  0  0  0  0  0  0  0  0  0
    6.6806    6.1949   24.2411 C   0  0  0  0  0  0  0  0  0  0  0  0
    7.8595    5.7810   23.6795 N   0  0  0  0  0  0  0  0  0  0  0  0
   16.8856   -5.9308   19.1914 H   0  0  0  0  0  0  0  0  0  0  0  0
   17.0478   -5.7578   20.9478 H   0  0  0  0  0  0  0  0  0  0  0  0
   18.0712   -4.8018   19.8604 H   0  0  0  0  0  0  0  0  0  0  0  0
   16.0800   -3.6101   18.9971 H   0  0  0  0  0  0  0  0  0  0  0  0
   14.4806   -5.1597   21.1041 H   0  0  0  0  0  0  0  0  0  0  0  0
   14.4520   -5.4725   19.3602 H   0  0  0  0  0  0  0  0  0  0  0  0
   13.8384   -3.9449   19.9826 H   0  0  0  0  0  0  0  0  0  0  0  0
   16.3850   -3.5730   22.0469 H   0  0  0  0  0  0  0  0  0  0  0  0
   17.3317   -2.6474   20.8936 H   0  0  0  0  0  0  0  0  0  0  0  0
   14.3661   -2.2940   21.5292 H   0  0  0  0  0  0  0  0  0  0  0  0
   15.6735   -1.2449   22.0151 H   0  0  0  0  0  0  0  0  0  0  0  0
   14.8622   -1.6981   19.0867 H   0  0  0  0  0  0  0  0  0  0  0  0
   16.1706   -0.6592   19.6464 H   0  0  0  0  0  0  0  0  0  0  0  0
   12.7367   -1.3476   17.3920 H   0  0  0  0  0  0  0  0  0  0  0  0
   12.0214   -2.3407   18.1165 H   0  0  0  0  0  0  0  0  0  0  0  0
   10.3753    1.2681   17.5813 H   0  0  0  0  0  0  0  0  0  0  0  0
    9.6082   -0.0780   16.9577 H   0  0  0  0  0  0  0  0  0  0  0  0
    8.7748    1.3155   19.5811 H   0  0  0  0  0  0  0  0  0  0  0  0
    8.4383   -0.4244   19.5352 H   0  0  0  0  0  0  0  0  0  0  0  0
   10.5041    0.4075   21.9274 H   0  0  0  0  0  0  0  0  0  0  0  0
   12.0048    2.5070   20.4682 H   0  0  0  0  0  0  0  0  0  0  0  0
   11.6648    2.1772   22.1565 H   0  0  0  0  0  0  0  0  0  0  0  0
    9.6833    3.2704   20.1838 H   0  0  0  0  0  0  0  0  0  0  0  0
    9.2163    5.9240   20.8518 H   0  0  0  0  0  0  0  0  0  0  0  0
    8.1287    4.5486   20.5808 H   0  0  0  0  0  0  0  0  0  0  0  0
    5.8647    6.3223   21.1902 H   0  0  0  0  0  0  0  0  0  0  0  0
    6.5528    6.2926   25.3109 H   0  0  0  0  0  0  0  0  0  0  0  0
    8.6984    5.4946   24.1747 H   0  0  0  0  0  0  0  0  0  0  0  0
  1  2  1  0
  2  3  1  0
  2  4  1  0
  4  5  1  0
  5  6  1  0
  6  7  1  0
  7  8  2  0
  7  9  1  0
  9 10  1  0
 10 11  1  0
 11 12  1  0
 12 13  1  0
 13 14  1  0
 14 15  1  0
 15 16  1  0
 16 17  2  0
 16 18  1  0
 18 19  1  0
 19 20  2  0
 20 21  1  0
 21 22  2  0
 22 23  1  0
 13  9  1  0
 23 19  1  0
  1 24  1  0
  1 25  1  0
  1 26  1  0
  2 27  1  0
  3 28  1  0
  3 29  1  0
  3 30  1  0
  4 31  1  0
  4 32  1  0
  5 33  1  0
  5 34  1  0
  6 35  1  0
  6 36  1  0
 10 37  1  0
 10 38  1  0
 11 39  1  0
 11 40  1  0
 12 41  1  0
 12 42  1  0
 13 43  1  0
 14 44  1  0
 14 45  1  0
 15 46  1  0
 18 47  1  0
 18 48  1  0
 20 49  1  0
 22 50  1  0
 23 51  1  0
M  END
>  <Energy>  (1462) 
817.46474623914207

>  <compound_id>  (1462) 
10781

>  <target_id>  (1462) 
1

>  <reference_id>  (1462) 
53

>  <inspiration_ids>  (1462) 
[53, 80]

>  <energy_score>  (1462) 
754.4352656911628

>  <distance_score>  (1462) 
9.069561817806315

>  <path>  (1462) 
/opt/xchem-fragalysis-2/maxwin/BulkDock/SCRATCH/511013/C10781-P53/C10781-P53.minimised.mol

>  <scratch_subdir>  (1462) 
/opt/xchem-fragalysis-2/maxwin/BulkDock/SCRATCH/511013/C10781-P53

>  <fragmenstein_runtime>  (1462) 
13.706607818603516

>  <fragmenstein_outcome>  (1462) 
too moved

>  <fragmenstein_mode>  (1462) 
expansion

>  <fragmenstein_error>  (1462) 


$$$$
C10781-P80
     RDKit          3D

 51 52  0  0  0  0  0  0  0  0999 V2000
   14.5803    0.2097   15.2618 C   0  0  0  0  0  0  0  0  0  0  0  0
   13.4034    0.7462   16.0819 C   0  0  0  0  0  0  0  0  0  0  0  0
   13.9338    1.6178   17.2223 C   0  0  0  0  0  0  0  0  0  0  0  0
   12.4392    1.5224   15.1639 C   0  0  0  0  0  0  0  0  0  0  0  0
   11.0849    1.8812   15.7945 C   0  0  0  0  0  0  0  0  0  0  0  0
   10.1605    0.6723   15.9248 C   0  0  0  0  0  0  0  0  0  0  0  0
    8.7881    0.8008   16.6333 C   0  0  0  0  0  0  0  0  0  0  0  0
    7.9124    0.1161   16.1711 O   0  0  0  0  0  0  0  0  0  0  0  0
    8.7744    1.7195   17.7569 N   0  0  0  0  0  0  0  0  0  0  0  0
    8.4361    3.0843   17.2854 C   0  0  0  0  0  0  0  0  0  0  0  0
    7.1193    3.4355   16.7875 C   0  0  0  0  0  0  0  0  0  0  0  0
    6.5782    3.4441   18.1321 C   0  0  0  0  0  0  0  0  0  0  0  0
    7.4078    2.0979   19.0409 C   0  0  0  0  0  0  0  0  0  0  0  0
    7.1537    1.7227   21.1276 C   0  0  0  0  0  0  0  0  0  0  0  0
    5.3304    1.1085   21.9408 N   0  0  0  0  0  0  0  0  0  0  0  0
    3.8417    2.1786   22.7161 C   0  0  0  0  0  0  0  0  0  0  0  0
    3.9682    3.4066   22.8617 O   0  0  0  0  0  0  0  0  0  0  0  0
    2.6000    1.8266   23.0395 C   0  0  0  0  0  0  0  0  0  0  0  0
    2.1761    2.2942   24.4596 C   0  0  0  0  0  0  0  0  0  0  0  0
    2.5447    1.9037   25.7372 C   0  0  0  0  0  0  0  0  0  0  0  0
    1.8160    2.5633   26.6955 N   0  0  0  0  0  0  0  0  0  0  0  0
    1.0837    3.4302   26.0412 C   0  0  0  0  0  0  0  0  0  0  0  0
    1.2966    3.3408   24.6965 N   0  0  0  0  0  0  0  0  0  0  0  0
   15.2675   -0.3619   15.8948 H   0  0  0  0  0  0  0  0  0  0  0  0
   15.1457    1.0245   14.7964 H   0  0  0  0  0  0  0  0  0  0  0  0
   14.2287   -0.4569   14.4672 H   0  0  0  0  0  0  0  0  0  0  0  0
   12.8874   -0.1161   16.5179 H   0  0  0  0  0  0  0  0  0  0  0  0
   14.6288    1.0506   17.8508 H   0  0  0  0  0  0  0  0  0  0  0  0
   13.1272    1.9733   17.8683 H   0  0  0  0  0  0  0  0  0  0  0  0
   14.4672    2.4935   16.8371 H   0  0  0  0  0  0  0  0  0  0  0  0
   12.9267    2.4521   14.8423 H   0  0  0  0  0  0  0  0  0  0  0  0
   12.2544    0.9430   14.2499 H   0  0  0  0  0  0  0  0  0  0  0  0
   11.2319    2.3841   16.7534 H   0  0  0  0  0  0  0  0  0  0  0  0
   10.6075    2.6094   15.1277 H   0  0  0  0  0  0  0  0  0  0  0  0
   10.6790   -0.1764   16.3768 H   0  0  0  0  0  0  0  0  0  0  0  0
    9.9321    0.3441   14.9000 H   0  0  0  0  0  0  0  0  0  0  0  0
    9.0308    3.1851   16.3709 H   0  0  0  0  0  0  0  0  0  0  0  0
    8.9197    3.8855   17.8540 H   0  0  0  0  0  0  0  0  0  0  0  0
    7.0742    4.4195   16.3121 H   0  0  0  0  0  0  0  0  0  0  0  0
    6.6925    2.7060   16.1180 H   0  0  0  0  0  0  0  0  0  0  0  0
    6.8050    4.3852   18.6590 H   0  0  0  0  0  0  0  0  0  0  0  0
    5.4849    3.4133   18.0046 H   0  0  0  0  0  0  0  0  0  0  0  0
    7.1812    1.0406   18.9892 H   0  0  0  0  0  0  0  0  0  0  0  0
    7.7513    0.8822   20.9183 H   0  0  0  0  0  0  0  0  0  0  0  0
    7.3538    2.7170   21.5165 H   0  0  0  0  0  0  0  0  0  0  0  0
    5.0161    0.1519   21.8190 H   0  0  0  0  0  0  0  0  0  0  0  0
    2.0534    2.7379   22.6367 H   0  0  0  0  0  0  0  0  0  0  0  0
    2.3094    1.5093   22.0113 H   0  0  0  0  0  0  0  0  0  0  0  0
    3.2479    1.1264   26.0139 H   0  0  0  0  0  0  0  0  0  0  0  0
    0.4040    4.1498   26.4792 H   0  0  0  0  0  0  0  0  0  0  0  0
    0.8856    3.9484   24.0011 H   0  0  0  0  0  0  0  0  0  0  0  0
  1  2  1  0
  2  3  1  0
  2  4  1  0
  4  5  1  0
  5  6  1  0
  6  7  1  0
  7  8  2  0
  7  9  1  0
  9 10  1  0
 10 11  1  0
 11 12  1  0
 12 13  1  0
 13 14  1  0
 14 15  1  0
 15 16  1  0
 16 17  2  0
 16 18  1  0
 18 19  1  0
 19 20  2  0
 20 21  1  0
 21 22  2  0
 22 23  1  0
 13  9  1  0
 23 19  1  0
  1 24  1  0
  1 25  1  0
  1 26  1  0
  2 27  1  0
  3 28  1  0
  3 29  1  0
  3 30  1  0
  4 31  1  0
  4 32  1  0
  5 33  1  0
  5 34  1  0
  6 35  1  0
  6 36  1  0
 10 37  1  0
 10 38  1  0
 11 39  1  0
 11 40  1  0
 12 41  1  0
 12 42  1  0
 13 43  1  0
 14 44  1  0
 14 45  1  0
 15 46  1  0
 18 47  1  0
 18 48  1  0
 20 49  1  0
 22 50  1  0
 23 51  1  0
M  END
>  <Energy>  (1463) 
597.83317993762842

>  <compound_id>  (1463) 
10781

>  <target_id>  (1463) 
1

>  <reference_id>  (1463) 
80

>  <inspiration_ids>  (1463) 
[53, 80]

>  <energy_score>  (1463) 
534.8036993896474

>  <distance_score>  (1463) 
6.511331835948528

>  <path>  (1463) 
/opt/xchem-fragalysis-2/maxwin/BulkDock/SCRATCH/511013/C10781-P80/C10781-P80.minimised.mol

>  <scratch_subdir>  (1463) 
/opt/xchem-fragalysis-2/maxwin/BulkDock/SCRATCH/511013/C10781-P80

>  <fragmenstein_runtime>  (1463) 
10.641966581344604

>  <fragmenstein_outcome>  (1463) 
too moved

>  <fragmenstein_mode>  (1463) 
expansion

>  <fragmenstein_error>  (1463) 


$$$$
C10784-P53
     RDKit          3D

 48 49  0  0  0  0  0  0  0  0999 V2000
   -3.2813    4.7670   22.5395 C   0  0  0  0  0  0  0  0  0  0  0  0
   -1.9705    4.8462   23.1144 N   0  0  0  0  0  0  0  0  0  0  0  0
   -0.7713    5.6054   22.6878 C   0  0  0  0  0  0  0  0  0  0  0  0
   -0.5921    6.2595   21.7343 O   0  0  0  0  0  0  0  0  0  0  0  0
    0.1571    5.2377   23.7827 N   0  0  0  0  0  0  0  0  0  0  0  0
    1.5133    5.6502   24.0445 C   0  0  0  0  0  0  0  0  0  0  0  0
    2.5285    5.1924   23.0077 C   0  0  0  0  0  0  0  0  0  0  0  0
    2.6093    3.6838   22.7830 C   0  0  0  0  0  0  0  0  0  0  0  0
    1.9829    3.1934   21.8825 O   0  0  0  0  0  0  0  0  0  0  0  0
    3.5520    3.0952   23.6948 N   0  0  0  0  0  0  0  0  0  0  0  0
    2.8396    2.6065   24.9257 C   0  0  0  0  0  0  0  0  0  0  0  0
    3.4558    1.6355   25.8994 C   0  0  0  0  0  0  0  0  0  0  0  0
    3.8904    0.6274   24.9111 C   0  0  0  0  0  0  0  0  0  0  0  0
    4.1785    1.6190   23.7449 C   0  0  0  0  0  0  0  0  0  0  0  0
    5.0383    1.0039   22.1526 C   0  0  0  0  0  0  0  0  0  0  0  0
    6.4073    2.1118   21.2149 N   0  0  0  0  0  0  0  0  0  0  0  0
    7.6366    1.6738   20.1776 C   0  0  0  0  0  0  0  0  0  0  0  0
    8.0186    0.5609   19.8282 O   0  0  0  0  0  0  0  0  0  0  0  0
    8.2727    2.9589   19.5918 C   0  0  0  0  0  0  0  0  0  0  0  0
    8.6868    2.7903   18.1472 C   0  0  0  0  0  0  0  0  0  0  0  0
    9.3219    3.6419   17.2637 C   0  0  0  0  0  0  0  0  0  0  0  0
    9.4919    3.0650   16.0256 N   0  0  0  0  0  0  0  0  0  0  0  0
    8.9494    1.8769   16.1306 C   0  0  0  0  0  0  0  0  0  0  0  0
    8.4618    1.6637   17.3870 N   0  0  0  0  0  0  0  0  0  0  0  0
   -3.3025    5.3118   21.5931 H   0  0  0  0  0  0  0  0  0  0  0  0
   -3.9955    5.2052   23.2387 H   0  0  0  0  0  0  0  0  0  0  0  0
   -3.5239    3.7165   22.3733 H   0  0  0  0  0  0  0  0  0  0  0  0
   -1.8127    4.4630   24.0240 H   0  0  0  0  0  0  0  0  0  0  0  0
   -0.3444    4.7330   24.4855 H   0  0  0  0  0  0  0  0  0  0  0  0
    1.5067    6.7458   24.0639 H   0  0  0  0  0  0  0  0  0  0  0  0
    1.7690    5.3126   25.0498 H   0  0  0  0  0  0  0  0  0  0  0  0
    2.3006    5.6495   22.0361 H   0  0  0  0  0  0  0  0  0  0  0  0
    3.5239    5.5607   23.2854 H   0  0  0  0  0  0  0  0  0  0  0  0
    2.6935    3.5195   25.5155 H   0  0  0  0  0  0  0  0  0  0  0  0
    1.8136    2.3448   24.6501 H   0  0  0  0  0  0  0  0  0  0  0  0
    2.7419    1.2507   26.6325 H   0  0  0  0  0  0  0  0  0  0  0  0
    4.3001    2.0843   26.4358 H   0  0  0  0  0  0  0  0  0  0  0  0
    3.1461   -0.1362   24.7562 H   0  0  0  0  0  0  0  0  0  0  0  0
    4.7748    0.0845   25.2662 H   0  0  0  0  0  0  0  0  0  0  0  0
    5.0317    1.9287   24.3486 H   0  0  0  0  0  0  0  0  0  0  0  0
    5.2340   -0.0792   22.2402 H   0  0  0  0  0  0  0  0  0  0  0  0
    4.2297    0.9468   21.4294 H   0  0  0  0  0  0  0  0  0  0  0  0
    6.3074    3.1069   21.2152 H   0  0  0  0  0  0  0  0  0  0  0  0
    7.5819    3.8031   19.6687 H   0  0  0  0  0  0  0  0  0  0  0  0
    9.1564    3.1862   20.1981 H   0  0  0  0  0  0  0  0  0  0  0  0
    9.6854    4.6418   17.4599 H   0  0  0  0  0  0  0  0  0  0  0  0
    8.8473    1.1486   15.3381 H   0  0  0  0  0  0  0  0  0  0  0  0
    7.8653    0.8887   17.6608 H   0  0  0  0  0  0  0  0  0  0  0  0
  1  2  1  0
  2  3  1  0
  3  4  2  0
  3  5  1  0
  5  6  1  0
  6  7  1  0
  7  8  1  0
  8  9  2  0
  8 10  1  0
 10 11  1  0
 11 12  1  0
 12 13  1  0
 13 14  1  0
 14 15  1  0
 15 16  1  0
 16 17  1  0
 17 18  2  0
 17 19  1  0
 19 20  1  0
 20 21  2  0
 21 22  1  0
 22 23  2  0
 23 24  1  0
 14 10  1  0
 24 20  1  0
  1 25  1  0
  1 26  1  0
  1 27  1  0
  2 28  1  0
  5 29  1  0
  6 30  1  0
  6 31  1  0
  7 32  1  0
  7 33  1  0
 11 34  1  0
 11 35  1  0
 12 36  1  0
 12 37  1  0
 13 38  1  0
 13 39  1  0
 14 40  1  0
 15 41  1  0
 15 42  1  0
 16 43  1  0
 19 44  1  0
 19 45  1  0
 21 46  1  0
 23 47  1  0
 24 48  1  0
M  END
>  <Energy>  (1464) 
165.75855213755102

>  <compound_id>  (1464) 
10784

>  <target_id>  (1464) 
1

>  <reference_id>  (1464) 
53

>  <inspiration_ids>  (1464) 
[53, 80]

>  <energy_score>  (1464) 
190.99110480188205

>  <distance_score>  (1464) 
6.354017924711597

>  <path>  (1464) 
/opt/xchem-fragalysis-2/maxwin/BulkDock/SCRATCH/511013/C10784-P53/C10784-P53.minimised.mol

>  <scratch_subdir>  (1464) 
/opt/xchem-fragalysis-2/maxwin/BulkDock/SCRATCH/511013/C10784-P53

>  <fragmenstein_runtime>  (1464) 
15.853398084640503

>  <fragmenstein_outcome>  (1464) 
too moved

>  <fragmenstein_mode>  (1464) 
expansion

>  <fragmenstein_error>  (1464) 


$$$$
C10784-P80
     RDKit          3D

 48 49  0  0  0  0  0  0  0  0999 V2000
   -3.1814    3.2984   26.3832 C   0  0  0  0  0  0  0  0  0  0  0  0
   -1.7563    3.1838   26.4467 N   0  0  0  0  0  0  0  0  0  0  0  0
   -0.7702    2.8834   25.4007 C   0  0  0  0  0  0  0  0  0  0  0  0
   -0.9253    2.5888   24.2771 O   0  0  0  0  0  0  0  0  0  0  0  0
    0.4803    3.0282   26.1894 N   0  0  0  0  0  0  0  0  0  0  0  0
    1.8679    2.9433   25.7850 C   0  0  0  0  0  0  0  0  0  0  0  0
    2.2325    4.0604   24.8328 C   0  0  0  0  0  0  0  0  0  0  0  0
    3.1166    3.6508   23.6605 C   0  0  0  0  0  0  0  0  0  0  0  0
    4.0525    4.3637   23.3878 O   0  0  0  0  0  0  0  0  0  0  0  0
    2.6001    2.4672   22.9875 N   0  0  0  0  0  0  0  0  0  0  0  0
    1.4655    2.8991   21.9116 C   0  0  0  0  0  0  0  0  0  0  0  0
    1.6368    3.4955   20.5847 C   0  0  0  0  0  0  0  0  0  0  0  0
    3.0306    3.2111   20.6340 C   0  0  0  0  0  0  0  0  0  0  0  0
    3.2679    1.5093   21.5294 C   0  0  0  0  0  0  0  0  0  0  0  0
    5.1053    0.3637   21.3032 C   0  0  0  0  0  0  0  0  0  0  0  0
    6.3476    0.0754   19.6154 N   0  0  0  0  0  0  0  0  0  0  0  0
    7.5709   -0.3818   19.4871 C   0  0  0  0  0  0  0  0  0  0  0  0
    8.2842   -0.8335   20.2623 O   0  0  0  0  0  0  0  0  0  0  0  0
    8.0250    0.0030   17.6549 C   0  0  0  0  0  0  0  0  0  0  0  0
    9.2422    0.1598   16.6816 C   0  0  0  0  0  0  0  0  0  0  0  0
    9.7889   -0.6626   15.7036 C   0  0  0  0  0  0  0  0  0  0  0  0
   10.8229   -0.0442   15.0507 N   0  0  0  0  0  0  0  0  0  0  0  0
   10.8355    1.1844   15.4966 C   0  0  0  0  0  0  0  0  0  0  0  0
    9.8476    1.3829   16.4146 N   0  0  0  0  0  0  0  0  0  0  0  0
   -3.4509    4.2063   26.9178 H   0  0  0  0  0  0  0  0  0  0  0  0
   -3.6240    2.4241   26.8623 H   0  0  0  0  0  0  0  0  0  0  0  0
   -3.5020    3.3593   25.3418 H   0  0  0  0  0  0  0  0  0  0  0  0
   -1.2792    3.4792   27.2746 H   0  0  0  0  0  0  0  0  0  0  0  0
    0.2490    3.2122   27.1459 H   0  0  0  0  0  0  0  0  0  0  0  0
    2.0395    1.9596   25.3595 H   0  0  0  0  0  0  0  0  0  0  0  0
    2.4706    3.0099   26.6972 H   0  0  0  0  0  0  0  0  0  0  0  0
    2.7746    4.8295   25.3991 H   0  0  0  0  0  0  0  0  0  0  0  0
    1.3487    4.5648   24.4272 H   0  0  0  0  0  0  0  0  0  0  0  0
    1.0818    3.7780   22.4599 H   0  0  0  0  0  0  0  0  0  0  0  0
    0.4981    2.4025   21.9415 H   0  0  0  0  0  0  0  0  0  0  0  0
    1.4125    4.5665   20.5412 H   0  0  0  0  0  0  0  0  0  0  0  0
    1.1233    3.0068   19.7599 H   0  0  0  0  0  0  0  0  0  0  0  0
    3.4439    4.0180   21.2695 H   0  0  0  0  0  0  0  0  0  0  0  0
    3.5024    3.5370   19.7049 H   0  0  0  0  0  0  0  0  0  0  0  0
    3.7792    1.4405   22.4844 H   0  0  0  0  0  0  0  0  0  0  0  0
    4.8802   -0.5811   21.8279 H   0  0  0  0  0  0  0  0  0  0  0  0
    5.8677    0.9067   21.8651 H   0  0  0  0  0  0  0  0  0  0  0  0
    6.0290    0.2952   18.7790 H   0  0  0  0  0  0  0  0  0  0  0  0
    7.9842    1.1097   17.7432 H   0  0  0  0  0  0  0  0  0  0  0  0
    7.2901   -0.4095   16.9446 H   0  0  0  0  0  0  0  0  0  0  0  0
    9.5077   -1.6690   15.4226 H   0  0  0  0  0  0  0  0  0  0  0  0
   11.5149    1.9681   15.1892 H   0  0  0  0  0  0  0  0  0  0  0  0
    9.6546    2.2629   16.8744 H   0  0  0  0  0  0  0  0  0  0  0  0
  1  2  1  0
  2  3  1  0
  3  4  2  0
  3  5  1  0
  5  6  1  0
  6  7  1  0
  7  8  1  0
  8  9  2  0
  8 10  1  0
 10 11  1  0
 11 12  1  0
 12 13  1  0
 13 14  1  0
 14 15  1  0
 15 16  1  0
 16 17  1  0
 17 18  2  0
 17 19  1  0
 19 20  1  0
 20 21  2  0
 21 22  1  0
 22 23  2  0
 23 24  1  0
 14 10  1  0
 24 20  1  0
  1 25  1  0
  1 26  1  0
  1 27  1  0
  2 28  1  0
  5 29  1  0
  6 30  1  0
  6 31  1  0
  7 32  1  0
  7 33  1  0
 11 34  1  0
 11 35  1  0
 12 36  1  0
 12 37  1  0
 13 38  1  0
 13 39  1  0
 14 40  1  0
 15 41  1  0
 15 42  1  0
 16 43  1  0
 19 44  1  0
 19 45  1  0
 21 46  1  0
 23 47  1  0
 24 48  1  0
M  END
>  <Energy>  (1465) 
511.77288501627311

>  <compound_id>  (1465) 
10784

>  <target_id>  (1465) 
1

>  <reference_id>  (1465) 
80

>  <inspiration_ids>  (1465) 
[53, 80]

>  <energy_score>  (1465) 
537.0054376805945

>  <distance_score>  (1465) 
4.691517227526228

>  <path>  (1465) 
/opt/xchem-fragalysis-2/maxwin/BulkDock/SCRATCH/511013/C10784-P80/C10784-P80.minimised.mol

>  <scratch_subdir>  (1465) 
/opt/xchem-fragalysis-2/maxwin/BulkDock/SCRATCH/511013/C10784-P80

>  <fragmenstein_runtime>  (1465) 
18.40555191040039

>  <fragmenstein_outcome>  (1465) 
too moved

>  <fragmenstein_mode>  (1465) 
expansion

>  <fragmenstein_error>  (1465) 


$$$$
C10785-P53
     RDKit          3D

 45 46  0  0  0  0  0  0  0  0999 V2000
   11.9744   -6.0146   21.3010 C   0  0  0  0  0  0  0  0  0  0  0  0
   10.9502   -5.0251   21.0100 N   0  0  0  0  0  0  0  0  0  0  0  0
   11.0185   -3.4853   20.9358 C   0  0  0  0  0  0  0  0  0  0  0  0
   11.9473   -2.8257   21.1953 O   0  0  0  0  0  0  0  0  0  0  0  0
    9.2232   -2.9776   20.1562 N   0  0  0  0  0  0  0  0  0  0  0  0
    8.4757   -1.0609   19.3781 C   0  0  0  0  0  0  0  0  0  0  0  0
    6.9657   -0.6440   20.2686 C   0  0  0  0  0  0  0  0  0  0  0  0
    5.4394   -0.7219   21.7223 C   0  0  0  0  0  0  0  0  0  0  0  0
    4.9534    0.2579   22.0622 O   0  0  0  0  0  0  0  0  0  0  0  0
    5.2787   -2.4377   22.2674 N   0  0  0  0  0  0  0  0  0  0  0  0
    4.4155   -3.3914   23.6626 C   0  0  0  0  0  0  0  0  0  0  0  0
    5.0906   -3.2433   25.0921 C   0  0  0  0  0  0  0  0  0  0  0  0
    4.7416   -1.8919   24.7838 C   0  0  0  0  0  0  0  0  0  0  0  0
    3.8583   -1.3879   25.8256 N   0  0  0  0  0  0  0  0  0  0  0  0
    3.6316   -0.0442   26.3078 C   0  0  0  0  0  0  0  0  0  0  0  0
    4.0549    1.0087   25.9196 O   0  0  0  0  0  0  0  0  0  0  0  0
    2.7066   -0.0753   27.5492 C   0  0  0  0  0  0  0  0  0  0  0  0
    1.4811    0.7592   27.3783 C   0  0  0  0  0  0  0  0  0  0  0  0
    0.1369    0.4630   27.4856 C   0  0  0  0  0  0  0  0  0  0  0  0
   -0.6292    1.5790   27.2773 N   0  0  0  0  0  0  0  0  0  0  0  0
    0.2220    2.5471   27.0309 C   0  0  0  0  0  0  0  0  0  0  0  0
    1.5129    2.0995   27.0688 N   0  0  0  0  0  0  0  0  0  0  0  0
    4.3159   -2.7785   23.2264 C   0  0  0  0  0  0  0  0  0  0  0  0
   12.8093   -5.8325   20.6217 H   0  0  0  0  0  0  0  0  0  0  0  0
   12.3357   -5.8428   22.3191 H   0  0  0  0  0  0  0  0  0  0  0  0
   11.5907   -7.0298   21.2007 H   0  0  0  0  0  0  0  0  0  0  0  0
   10.0629   -5.3252   20.6474 H   0  0  0  0  0  0  0  0  0  0  0  0
    8.5487   -3.8818   20.1345 H   0  0  0  0  0  0  0  0  0  0  0  0
    9.0802   -0.2059   19.7454 H   0  0  0  0  0  0  0  0  0  0  0  0
    8.3428   -0.7957   18.3439 H   0  0  0  0  0  0  0  0  0  0  0  0
    6.8766    0.2341   19.6593 H   0  0  0  0  0  0  0  0  0  0  0  0
    6.7121   -1.6324   20.0964 H   0  0  0  0  0  0  0  0  0  0  0  0
    5.1161   -4.3918   23.4382 H   0  0  0  0  0  0  0  0  0  0  0  0
    3.4879   -4.2704   23.5973 H   0  0  0  0  0  0  0  0  0  0  0  0
    6.1518   -3.4630   25.1263 H   0  0  0  0  0  0  0  0  0  0  0  0
    4.5218   -3.7776   25.8573 H   0  0  0  0  0  0  0  0  0  0  0  0
    5.5636   -1.1948   24.6977 H   0  0  0  0  0  0  0  0  0  0  0  0
    3.4033   -2.0431   26.4485 H   0  0  0  0  0  0  0  0  0  0  0  0
    2.4095   -1.0970   27.8078 H   0  0  0  0  0  0  0  0  0  0  0  0
    3.2941    0.2992   28.3965 H   0  0  0  0  0  0  0  0  0  0  0  0
   -0.3241   -0.4941   27.6977 H   0  0  0  0  0  0  0  0  0  0  0  0
   -0.0338    3.5760   26.8133 H   0  0  0  0  0  0  0  0  0  0  0  0
    2.3429    2.6439   26.8659 H   0  0  0  0  0  0  0  0  0  0  0  0
    3.8338   -1.7702   23.1561 H   0  0  0  0  0  0  0  0  0  0  0  0
    3.2335   -2.8416   22.5198 H   0  0  0  0  0  0  0  0  0  0  0  0
  1  2  1  0
  2  3  1  0
  3  4  2  0
  3  5  1  0
  5  6  1  0
  6  7  1  0
  7  8  1  0
  8  9  2  0
  8 10  1  0
 10 11  1  0
 11 12  1  0
 12 13  1  0
 13 14  1  0
 14 15  1  0
 15 16  2  0
 15 17  1  0
 17 18  1  0
 18 19  2  0
 19 20  1  0
 20 21  2  0
 21 22  1  0
 13 23  1  0
 23 10  1  0
 22 18  1  0
  1 24  1  0
  1 25  1  0
  1 26  1  0
  2 27  1  0
  5 28  1  0
  6 29  1  0
  6 30  1  0
  7 31  1  0
  7 32  1  0
 11 33  1  0
 11 34  1  0
 12 35  1  0
 12 36  1  0
 13 37  1  0
 14 38  1  0
 17 39  1  0
 17 40  1  0
 19 41  1  0
 21 42  1  0
 22 43  1  0
 23 44  1  0
 23 45  1  0
M  END
>  <Energy>  (1466) 
1140.0900193488144

>  <compound_id>  (1466) 
10785

>  <target_id>  (1466) 
1

>  <reference_id>  (1466) 
53

>  <inspiration_ids>  (1466) 
[53, 80]

>  <energy_score>  (1466) 
1196.371409081261

>  <distance_score>  (1466) 
6.754569838598491

>  <path>  (1466) 
/opt/xchem-fragalysis-2/maxwin/BulkDock/SCRATCH/511013/C10785-P53/C10785-P53.minimised.mol

>  <scratch_subdir>  (1466) 
/opt/xchem-fragalysis-2/maxwin/BulkDock/SCRATCH/511013/C10785-P53

>  <fragmenstein_runtime>  (1466) 
9.549468994140625

>  <fragmenstein_outcome>  (1466) 
too moved

>  <fragmenstein_mode>  (1466) 
expansion

>  <fragmenstein_error>  (1466) 


$$$$
C10785-P80
     RDKit          3D

 45 46  0  0  0  0  0  0  0  0999 V2000
   10.8607    7.1917   21.4838 C   0  0  0  0  0  0  0  0  0  0  0  0
    9.4366    7.3646   21.5249 N   0  0  0  0  0  0  0  0  0  0  0  0
    8.3634    6.7222   20.7378 C   0  0  0  0  0  0  0  0  0  0  0  0
    8.4196    5.8611   19.9458 O   0  0  0  0  0  0  0  0  0  0  0  0
    7.1926    7.4525   21.2711 N   0  0  0  0  0  0  0  0  0  0  0  0
    5.7949    7.3886   20.9082 C   0  0  0  0  0  0  0  0  0  0  0  0
    5.2160    5.9881   21.0284 C   0  0  0  0  0  0  0  0  0  0  0  0
    5.0034    5.5989   22.4812 C   0  0  0  0  0  0  0  0  0  0  0  0
    5.6971    4.9120   23.0902 O   0  0  0  0  0  0  0  0  0  0  0  0
    3.6022    6.3643   22.8440 N   0  0  0  0  0  0  0  0  0  0  0  0
    3.1048    6.3761   24.0910 C   0  0  0  0  0  0  0  0  0  0  0  0
    3.2281    4.8357   24.7944 C   0  0  0  0  0  0  0  0  0  0  0  0
    1.8148    4.9214   24.6020 C   0  0  0  0  0  0  0  0  0  0  0  0
    1.0362    4.7120   25.7752 N   0  0  0  0  0  0  0  0  0  0  0  0
    0.0443    5.5343   26.4051 C   0  0  0  0  0  0  0  0  0  0  0  0
   -0.3272    6.6429   26.1509 O   0  0  0  0  0  0  0  0  0  0  0  0
   -0.5651    4.7815   27.5956 C   0  0  0  0  0  0  0  0  0  0  0  0
   -1.4049    3.6525   27.1130 C   0  0  0  0  0  0  0  0  0  0  0  0
   -1.1909    2.2942   27.0215 C   0  0  0  0  0  0  0  0  0  0  0  0
   -2.2694    1.6668   26.4606 N   0  0  0  0  0  0  0  0  0  0  0  0
   -3.1653    2.6125   26.2848 C   0  0  0  0  0  0  0  0  0  0  0  0
   -2.6795    3.8381   26.6365 N   0  0  0  0  0  0  0  0  0  0  0  0
    2.3656    6.3818   24.3287 C   0  0  0  0  0  0  0  0  0  0  0  0
   11.1202    6.4495   20.7256 H   0  0  0  0  0  0  0  0  0  0  0  0
   11.1981    6.8585   22.4676 H   0  0  0  0  0  0  0  0  0  0  0  0
   11.3202    8.1528   21.2431 H   0  0  0  0  0  0  0  0  0  0  0  0
    9.0305    8.0114   22.1708 H   0  0  0  0  0  0  0  0  0  0  0  0
    7.5076    8.1856   21.8752 H   0  0  0  0  0  0  0  0  0  0  0  0
    5.2608    8.1127   21.5308 H   0  0  0  0  0  0  0  0  0  0  0  0
    5.7314    7.7157   19.8651 H   0  0  0  0  0  0  0  0  0  0  0  0
    4.2531    5.9343   20.5065 H   0  0  0  0  0  0  0  0  0  0  0  0
    5.8633    5.2373   20.5628 H   0  0  0  0  0  0  0  0  0  0  0  0
    4.2345    6.3283   24.5657 H   0  0  0  0  0  0  0  0  0  0  0  0
    3.6208    7.5585   24.3932 H   0  0  0  0  0  0  0  0  0  0  0  0
    3.7086    4.0689   24.1897 H   0  0  0  0  0  0  0  0  0  0  0  0
    3.5590    4.8521   25.8426 H   0  0  0  0  0  0  0  0  0  0  0  0
    1.4049    4.4195   23.7203 H   0  0  0  0  0  0  0  0  0  0  0  0
    1.0279    3.7938   26.2080 H   0  0  0  0  0  0  0  0  0  0  0  0
    0.2375    4.4291   28.2531 H   0  0  0  0  0  0  0  0  0  0  0  0
   -1.1672    5.4905   28.1697 H   0  0  0  0  0  0  0  0  0  0  0  0
   -0.3133    1.7322   27.3156 H   0  0  0  0  0  0  0  0  0  0  0  0
   -4.1726    2.4840   25.9082 H   0  0  0  0  0  0  0  0  0  0  0  0
   -3.1851    4.7140   26.5713 H   0  0  0  0  0  0  0  0  0  0  0  0
    2.1480    7.2222   25.2730 H   0  0  0  0  0  0  0  0  0  0  0  0
    1.3802    6.7943   23.7246 H   0  0  0  0  0  0  0  0  0  0  0  0
  1  2  1  0
  2  3  1  0
  3  4  2  0
  3  5  1  0
  5  6  1  0
  6  7  1  0
  7  8  1  0
  8  9  2  0
  8 10  1  0
 10 11  1  0
 11 12  1  0
 12 13  1  0
 13 14  1  0
 14 15  1  0
 15 16  2  0
 15 17  1  0
 17 18  1  0
 18 19  2  0
 19 20  1  0
 20 21  2  0
 21 22  1  0
 13 23  1  0
 23 10  1  0
 22 18  1  0
  1 24  1  0
  1 25  1  0
  1 26  1  0
  2 27  1  0
  5 28  1  0
  6 29  1  0
  6 30  1  0
  7 31  1  0
  7 32  1  0
 11 33  1  0
 11 34  1  0
 12 35  1  0
 12 36  1  0
 13 37  1  0
 14 38  1  0
 17 39  1  0
 17 40  1  0
 19 41  1  0
 21 42  1  0
 22 43  1  0
 23 44  1  0
 23 45  1  0
M  END
>  <Energy>  (1467) 
669.11402206572768

>  <compound_id>  (1467) 
10785

>  <target_id>  (1467) 
1

>  <reference_id>  (1467) 
80

>  <inspiration_ids>  (1467) 
[53, 80]

>  <energy_score>  (1467) 
725.3954117981691

>  <distance_score>  (1467) 
6.546150054510359

>  <path>  (1467) 
/opt/xchem-fragalysis-2/maxwin/BulkDock/SCRATCH/511013/C10785-P80/C10785-P80.minimised.mol

>  <scratch_subdir>  (1467) 
/opt/xchem-fragalysis-2/maxwin/BulkDock/SCRATCH/511013/C10785-P80

>  <fragmenstein_runtime>  (1467) 
16.608606576919556

>  <fragmenstein_outcome>  (1467) 
too moved

>  <fragmenstein_mode>  (1467) 
expansion

>  <fragmenstein_error>  (1467) 


$$$$
C10786-P53
     RDKit          3D

 40 41  0  0  0  0  0  0  0  0999 V2000
    4.2349    1.5352   24.3448 O   0  0  0  0  0  0  0  0  0  0  0  0
    3.9108    1.8065   23.2049 C   0  0  0  0  0  0  0  0  0  0  0  0
    2.9505    3.0164   23.0068 C   0  0  0  0  0  0  0  0  0  0  0  0
    2.2539    3.3261   24.3534 C   0  0  0  0  0  0  0  0  0  0  0  0
    0.6029    4.0698   24.2004 S   0  0  0  0  0  0  0  0  0  0  0  0
    0.3518    4.4307   25.9450 C   0  0  0  0  0  0  0  0  0  0  0  0
    0.4248    3.3053   26.6921 F   0  0  0  0  0  0  0  0  0  0  0  0
   -0.8510    5.0000   26.1663 F   0  0  0  0  0  0  0  0  0  0  0  0
    1.2985    5.2839   26.4024 F   0  0  0  0  0  0  0  0  0  0  0  0
    4.3154    1.1409   21.8500 N   0  0  0  0  0  0  0  0  0  0  0  0
    5.1578   -0.1207   21.5595 C   0  0  0  0  0  0  0  0  0  0  0  0
    6.6597   -0.6429   20.3024 C   0  0  0  0  0  0  0  0  0  0  0  0
    6.0161   -2.4931   20.5080 C   0  0  0  0  0  0  0  0  0  0  0  0
    5.5858   -2.8177   19.2032 C   0  0  0  0  0  0  0  0  0  0  0  0
    6.4683   -1.1978   18.2574 C   0  0  0  0  0  0  0  0  0  0  0  0
    6.8475    0.1614   18.7497 N   0  0  0  0  0  0  0  0  0  0  0  0
    8.0844    0.8521   18.6794 C   0  0  0  0  0  0  0  0  0  0  0  0
    9.1470    0.4847   18.2918 O   0  0  0  0  0  0  0  0  0  0  0  0
    8.1352    2.2541   19.0137 C   0  0  0  0  0  0  0  0  0  0  0  0
    7.8674    3.3198   18.1727 C   0  0  0  0  0  0  0  0  0  0  0  0
    8.3474    4.4968   18.6800 N   0  0  0  0  0  0  0  0  0  0  0  0
    9.0166    4.1482   19.7520 C   0  0  0  0  0  0  0  0  0  0  0  0
    8.9284    2.8082   19.9867 N   0  0  0  0  0  0  0  0  0  0  0  0
    2.2606    2.8450   22.1827 H   0  0  0  0  0  0  0  0  0  0  0  0
    3.5334    3.8983   22.7214 H   0  0  0  0  0  0  0  0  0  0  0  0
    2.8963    4.0120   24.9178 H   0  0  0  0  0  0  0  0  0  0  0  0
    2.1324    2.4302   24.9645 H   0  0  0  0  0  0  0  0  0  0  0  0
    3.7828    1.5718   21.0870 H   0  0  0  0  0  0  0  0  0  0  0  0
    5.4199   -0.2605   22.5962 H   0  0  0  0  0  0  0  0  0  0  0  0
    4.7624   -1.0385   21.8661 H   0  0  0  0  0  0  0  0  0  0  0  0
    7.7007   -0.5392   20.4992 H   0  0  0  0  0  0  0  0  0  0  0  0
    6.9109   -3.0772   20.8580 H   0  0  0  0  0  0  0  0  0  0  0  0
    5.4669   -2.7187   21.4053 H   0  0  0  0  0  0  0  0  0  0  0  0
    6.1713   -3.8410   19.2174 H   0  0  0  0  0  0  0  0  0  0  0  0
    5.1236   -3.8267   19.0856 H   0  0  0  0  0  0  0  0  0  0  0  0
    6.0350   -1.0189   17.2640 H   0  0  0  0  0  0  0  0  0  0  0  0
    7.5357   -1.1257   18.6123 H   0  0  0  0  0  0  0  0  0  0  0  0
    7.3797    3.2834   17.2067 H   0  0  0  0  0  0  0  0  0  0  0  0
    9.5943    4.8116   20.3808 H   0  0  0  0  0  0  0  0  0  0  0  0
    9.4562    2.2996   20.6793 H   0  0  0  0  0  0  0  0  0  0  0  0
  1  2  2  0
  2  3  1  0
  3  4  1  0
  4  5  1  0
  5  6  1  0
  6  7  1  0
  6  8  1  0
  6  9  1  0
  2 10  1  0
 10 11  1  0
 11 12  1  0
 12 13  1  0
 13 14  1  0
 14 15  1  0
 15 16  1  0
 16 17  1  0
 17 18  2  0
 17 19  1  0
 19 20  2  0
 20 21  1  0
 21 22  2  0
 22 23  1  0
 16 12  1  0
 23 19  1  0
  3 24  1  0
  3 25  1  0
  4 26  1  0
  4 27  1  0
 10 28  1  0
 11 29  1  0
 11 30  1  0
 12 31  1  0
 13 32  1  0
 13 33  1  0
 14 34  1  0
 14 35  1  0
 15 36  1  0
 15 37  1  0
 20 38  1  0
 22 39  1  0
 23 40  1  0
M  END
>  <Energy>  (1468) 
444.98838497927858

>  <compound_id>  (1468) 
10786

>  <target_id>  (1468) 
1

>  <reference_id>  (1468) 
53

>  <inspiration_ids>  (1468) 
[53, 80]

>  <energy_score>  (1468) 
427.39405750724217

>  <distance_score>  (1468) 
6.199520461579439

>  <path>  (1468) 
/opt/xchem-fragalysis-2/maxwin/BulkDock/SCRATCH/511013/C10786-P53/C10786-P53.minimised.mol

>  <scratch_subdir>  (1468) 
/opt/xchem-fragalysis-2/maxwin/BulkDock/SCRATCH/511013/C10786-P53

>  <fragmenstein_runtime>  (1468) 
11.036327123641968

>  <fragmenstein_outcome>  (1468) 
too moved

>  <fragmenstein_mode>  (1468) 
expansion

>  <fragmenstein_error>  (1468) 


$$$$
C10786-P80
     RDKit          3D

 40 41  0  0  0  0  0  0  0  0999 V2000
    4.2399    0.0635   24.8394 O   0  0  0  0  0  0  0  0  0  0  0  0
    4.7051   -1.0351   24.9805 C   0  0  0  0  0  0  0  0  0  0  0  0
    4.6142   -1.5707   26.4051 C   0  0  0  0  0  0  0  0  0  0  0  0
    4.0985   -0.5094   27.4246 C   0  0  0  0  0  0  0  0  0  0  0  0
    2.2869   -0.2668   27.5609 S   0  0  0  0  0  0  0  0  0  0  0  0
    2.1882    1.5206   27.3750 C   0  0  0  0  0  0  0  0  0  0  0  0
    2.5131    2.1453   28.5341 F   0  0  0  0  0  0  0  0  0  0  0  0
    0.9227    1.9124   27.0670 F   0  0  0  0  0  0  0  0  0  0  0  0
    3.0007    2.0143   26.4162 F   0  0  0  0  0  0  0  0  0  0  0  0
    5.3537   -1.9563   23.9946 N   0  0  0  0  0  0  0  0  0  0  0  0
    5.5780   -1.8156   22.1772 C   0  0  0  0  0  0  0  0  0  0  0  0
    7.2182   -1.9840   20.8568 C   0  0  0  0  0  0  0  0  0  0  0  0
    5.6435   -3.1313   20.0463 C   0  0  0  0  0  0  0  0  0  0  0  0
    6.4771   -4.4963   19.8742 C   0  0  0  0  0  0  0  0  0  0  0  0
    7.8515   -3.9976   21.1753 C   0  0  0  0  0  0  0  0  0  0  0  0
    8.8919   -3.4153   20.5442 N   0  0  0  0  0  0  0  0  0  0  0  0
   10.9202   -3.3552   21.0754 C   0  0  0  0  0  0  0  0  0  0  0  0
   11.3318   -3.8046   22.1607 O   0  0  0  0  0  0  0  0  0  0  0  0
   12.3120   -2.9160   20.1178 C   0  0  0  0  0  0  0  0  0  0  0  0
   12.8802   -3.3867   18.8967 C   0  0  0  0  0  0  0  0  0  0  0  0
   14.1725   -2.9599   18.7118 N   0  0  0  0  0  0  0  0  0  0  0  0
   14.5165   -2.4497   19.8669 C   0  0  0  0  0  0  0  0  0  0  0  0
   13.5096   -2.5600   20.7757 N   0  0  0  0  0  0  0  0  0  0  0  0
    5.6363   -1.8003   26.7190 H   0  0  0  0  0  0  0  0  0  0  0  0
    3.9892   -2.4666   26.4272 H   0  0  0  0  0  0  0  0  0  0  0  0
    4.4081   -0.8470   28.4207 H   0  0  0  0  0  0  0  0  0  0  0  0
    4.6017    0.4502   27.2639 H   0  0  0  0  0  0  0  0  0  0  0  0
    5.7074   -2.7788   24.4869 H   0  0  0  0  0  0  0  0  0  0  0  0
    5.3176   -2.7958   22.0856 H   0  0  0  0  0  0  0  0  0  0  0  0
    4.9161   -0.9912   21.9628 H   0  0  0  0  0  0  0  0  0  0  0  0
    7.3504   -1.0099   20.2931 H   0  0  0  0  0  0  0  0  0  0  0  0
    5.3116   -2.7200   19.0926 H   0  0  0  0  0  0  0  0  0  0  0  0
    4.7884   -3.4008   20.6545 H   0  0  0  0  0  0  0  0  0  0  0  0
    6.7612   -4.8578   18.9268 H   0  0  0  0  0  0  0  0  0  0  0  0
    6.2696   -3.6257   20.5322 H   0  0  0  0  0  0  0  0  0  0  0  0
    8.0209   -4.9917   21.4118 H   0  0  0  0  0  0  0  0  0  0  0  0
    7.5731   -3.8731   22.2427 H   0  0  0  0  0  0  0  0  0  0  0  0
   12.4173   -3.9926   18.1277 H   0  0  0  0  0  0  0  0  0  0  0  0
   15.4793   -2.0249   20.1159 H   0  0  0  0  0  0  0  0  0  0  0  0
   13.5098   -2.2679   21.7452 H   0  0  0  0  0  0  0  0  0  0  0  0
  1  2  2  0
  2  3  1  0
  3  4  1  0
  4  5  1  0
  5  6  1  0
  6  7  1  0
  6  8  1  0
  6  9  1  0
  2 10  1  0
 10 11  1  0
 11 12  1  0
 12 13  1  0
 13 14  1  0
 14 15  1  0
 15 16  1  0
 16 17  1  0
 17 18  2  0
 17 19  1  0
 19 20  2  0
 20 21  1  0
 21 22  2  0
 22 23  1  0
 16 12  1  0
 23 19  1  0
  3 24  1  0
  3 25  1  0
  4 26  1  0
  4 27  1  0
 10 28  1  0
 11 29  1  0
 11 30  1  0
 12 31  1  0
 13 32  1  0
 13 33  1  0
 14 34  1  0
 14 35  1  0
 15 36  1  0
 15 37  1  0
 20 38  1  0
 22 39  1  0
 23 40  1  0
M  END
>  <Energy>  (1469) 
995.0604394540228

>  <compound_id>  (1469) 
10786

>  <target_id>  (1469) 
1

>  <reference_id>  (1469) 
80

>  <inspiration_ids>  (1469) 
[53, 80]

>  <energy_score>  (1469) 
977.4661119819957

>  <distance_score>  (1469) 
5.509849814576781

>  <path>  (1469) 
/opt/xchem-fragalysis-2/maxwin/BulkDock/SCRATCH/511013/C10786-P80/C10786-P80.minimised.mol

>  <scratch_subdir>  (1469) 
/opt/xchem-fragalysis-2/maxwin/BulkDock/SCRATCH/511013/C10786-P80

>  <fragmenstein_runtime>  (1469) 
11.334827661514282

>  <fragmenstein_outcome>  (1469) 
too moved

>  <fragmenstein_mode>  (1469) 
expansion

>  <fragmenstein_error>  (1469) 


$$$$
C10787-P53
     RDKit          3D

 49 50  0  0  0  0  0  0  0  0999 V2000
   -1.5028    4.8024   25.2695 C   0  0  0  0  0  0  0  0  0  0  0  0
   -1.0334    3.5624   24.5235 C   0  0  0  0  0  0  0  0  0  0  0  0
   -1.1600    3.7347   23.0184 C   0  0  0  0  0  0  0  0  0  0  0  0
    0.6247    3.0678   25.1277 S   0  0  0  0  0  0  0  0  0  0  0  0
    1.8505    3.6206   23.8135 C   0  0  0  0  0  0  0  0  0  0  0  0
    2.1234    5.0989   24.0260 C   0  0  0  0  0  0  0  0  0  0  0  0
    3.1715    2.7811   24.0245 C   0  0  0  0  0  0  0  0  0  0  0  0
    3.6173    2.7511   25.1402 O   0  0  0  0  0  0  0  0  0  0  0  0
    3.5930    2.0853   22.8153 N   0  0  0  0  0  0  0  0  0  0  0  0
    4.6585    1.0308   22.5986 C   0  0  0  0  0  0  0  0  0  0  0  0
    5.1789    0.2351   21.1163 C   0  0  0  0  0  0  0  0  0  0  0  0
    6.9213    0.2865   19.9427 C   0  0  0  0  0  0  0  0  0  0  0  0
    7.9654    1.4930   19.9737 C   0  0  0  0  0  0  0  0  0  0  0  0
    8.4242    1.7192   18.5445 C   0  0  0  0  0  0  0  0  0  0  0  0
    7.9925    0.8743   17.4085 N   0  0  0  0  0  0  0  0  0  0  0  0
    9.0695    0.6259   16.5421 C   0  0  0  0  0  0  0  0  0  0  0  0
    9.8650   -0.2658   16.5303 O   0  0  0  0  0  0  0  0  0  0  0  0
    9.1324    1.5889   15.4736 C   0  0  0  0  0  0  0  0  0  0  0  0
   10.0152    1.6467   14.4130 C   0  0  0  0  0  0  0  0  0  0  0  0
    9.7474    2.7207   13.6053 N   0  0  0  0  0  0  0  0  0  0  0  0
    8.7105    3.3081   14.1574 C   0  0  0  0  0  0  0  0  0  0  0  0
    8.2887    2.6466   15.2729 N   0  0  0  0  0  0  0  0  0  0  0  0
    7.4225    0.0492   18.5245 C   0  0  0  0  0  0  0  0  0  0  0  0
   -0.8626    5.6680   25.0696 H   0  0  0  0  0  0  0  0  0  0  0  0
   -1.5251    4.6344   26.3520 H   0  0  0  0  0  0  0  0  0  0  0  0
   -2.5172    5.0678   24.9541 H   0  0  0  0  0  0  0  0  0  0  0  0
   -1.6976    2.7395   24.8138 H   0  0  0  0  0  0  0  0  0  0  0  0
   -0.8333    2.8363   22.4880 H   0  0  0  0  0  0  0  0  0  0  0  0
   -0.5912    4.5931   22.6487 H   0  0  0  0  0  0  0  0  0  0  0  0
   -2.2081    3.9049   22.7466 H   0  0  0  0  0  0  0  0  0  0  0  0
    1.4491    3.4402   22.8164 H   0  0  0  0  0  0  0  0  0  0  0  0
    2.8849    5.4427   23.3165 H   0  0  0  0  0  0  0  0  0  0  0  0
    2.5111    5.3092   25.0294 H   0  0  0  0  0  0  0  0  0  0  0  0
    1.2297    5.7085   23.8642 H   0  0  0  0  0  0  0  0  0  0  0  0
    3.0380    2.4139   22.0330 H   0  0  0  0  0  0  0  0  0  0  0  0
    5.5171    1.4988   22.5102 H   0  0  0  0  0  0  0  0  0  0  0  0
    4.6074    0.4301   23.5341 H   0  0  0  0  0  0  0  0  0  0  0  0
    5.1518   -0.7693   21.5342 H   0  0  0  0  0  0  0  0  0  0  0  0
    4.3743    0.8085   20.8368 H   0  0  0  0  0  0  0  0  0  0  0  0
    7.3467   -0.6356   20.2901 H   0  0  0  0  0  0  0  0  0  0  0  0
    7.5746    2.4217   20.4006 H   0  0  0  0  0  0  0  0  0  0  0  0
    8.9117    1.2855   20.4738 H   0  0  0  0  0  0  0  0  0  0  0  0
    7.9612    2.6846   18.2735 H   0  0  0  0  0  0  0  0  0  0  0  0
    9.4752    2.0010   18.4627 H   0  0  0  0  0  0  0  0  0  0  0  0
   10.8266    0.9633   14.1947 H   0  0  0  0  0  0  0  0  0  0  0  0
    8.2141    4.1965   13.7900 H   0  0  0  0  0  0  0  0  0  0  0  0
    7.4707    2.8462   15.8366 H   0  0  0  0  0  0  0  0  0  0  0  0
    8.2662   -0.6105   18.6933 H   0  0  0  0  0  0  0  0  0  0  0  0
    6.6733   -0.5180   17.9963 H   0  0  0  0  0  0  0  0  0  0  0  0
  1  2  1  0
  2  3  1  0
  2  4  1  0
  4  5  1  0
  5  6  1  0
  5  7  1  0
  7  8  2  0
  7  9  1  0
  9 10  1  0
 10 11  1  0
 11 12  1  0
 12 13  1  0
 13 14  1  0
 14 15  1  0
 15 16  1  0
 16 17  2  0
 16 18  1  0
 18 19  2  0
 19 20  1  0
 20 21  2  0
 21 22  1  0
 15 23  1  0
 23 12  1  0
 22 18  1  0
  1 24  1  0
  1 25  1  0
  1 26  1  0
  2 27  1  0
  3 28  1  0
  3 29  1  0
  3 30  1  0
  5 31  1  0
  6 32  1  0
  6 33  1  0
  6 34  1  0
  9 35  1  0
 10 36  1  0
 10 37  1  0
 11 38  1  0
 11 39  1  0
 12 40  1  0
 13 41  1  0
 13 42  1  0
 14 43  1  0
 14 44  1  0
 19 45  1  0
 21 46  1  0
 22 47  1  0
 23 48  1  0
 23 49  1  0
M  END
>  <Energy>  (1470) 
303.36703451866771

>  <compound_id>  (1470) 
10787

>  <target_id>  (1470) 
1

>  <reference_id>  (1470) 
53

>  <inspiration_ids>  (1470) 
[53, 80]

>  <energy_score>  (1470) 
260.7697720060886

>  <distance_score>  (1470) 
5.077744415304477

>  <path>  (1470) 
/opt/xchem-fragalysis-2/maxwin/BulkDock/SCRATCH/511013/C10787-P53/C10787-P53.minimised.mol

>  <scratch_subdir>  (1470) 
/opt/xchem-fragalysis-2/maxwin/BulkDock/SCRATCH/511013/C10787-P53

>  <fragmenstein_runtime>  (1470) 
9.356218814849854

>  <fragmenstein_outcome>  (1470) 
too moved

>  <fragmenstein_mode>  (1470) 
expansion

>  <fragmenstein_error>  (1470) 


$$$$
C10787-P80
     RDKit          3D

 49 50  0  0  0  0  0  0  0  0999 V2000
   -1.7606    4.1971   25.3383 C   0  0  0  0  0  0  0  0  0  0  0  0
   -0.2575    4.3931   25.5804 C   0  0  0  0  0  0  0  0  0  0  0  0
    0.3101    3.1386   26.2272 C   0  0  0  0  0  0  0  0  0  0  0  0
    0.5163    4.8229   23.9491 S   0  0  0  0  0  0  0  0  0  0  0  0
    2.3537    5.1094   24.3249 C   0  0  0  0  0  0  0  0  0  0  0  0
    2.5288    5.8844   25.6220 C   0  0  0  0  0  0  0  0  0  0  0  0
    3.0086    3.7080   24.3245 C   0  0  0  0  0  0  0  0  0  0  0  0
    3.3519    3.2257   25.3682 O   0  0  0  0  0  0  0  0  0  0  0  0
    3.0039    3.1545   22.9805 N   0  0  0  0  0  0  0  0  0  0  0  0
    3.3177    1.8086   22.4965 C   0  0  0  0  0  0  0  0  0  0  0  0
    4.8183    0.6224   22.1002 C   0  0  0  0  0  0  0  0  0  0  0  0
    6.6788    1.1075   21.6626 C   0  0  0  0  0  0  0  0  0  0  0  0
    7.4682    2.1391   20.9530 C   0  0  0  0  0  0  0  0  0  0  0  0
    7.4177    1.7461   19.2783 C   0  0  0  0  0  0  0  0  0  0  0  0
    7.3696    0.3862   18.7395 N   0  0  0  0  0  0  0  0  0  0  0  0
    8.4070    0.2505   17.5556 C   0  0  0  0  0  0  0  0  0  0  0  0
    9.5276   -0.0868   17.6042 O   0  0  0  0  0  0  0  0  0  0  0  0
    8.1002    0.6657   16.2331 C   0  0  0  0  0  0  0  0  0  0  0  0
    8.9298    0.1274   15.2170 C   0  0  0  0  0  0  0  0  0  0  0  0
    9.8945    1.0521   14.8402 N   0  0  0  0  0  0  0  0  0  0  0  0
    9.5442    2.1733   15.4314 C   0  0  0  0  0  0  0  0  0  0  0  0
    8.3037    2.0387   16.0164 N   0  0  0  0  0  0  0  0  0  0  0  0
    7.4830    0.0078   20.2835 C   0  0  0  0  0  0  0  0  0  0  0  0
   -1.9576    3.3501   24.6709 H   0  0  0  0  0  0  0  0  0  0  0  0
   -2.2150    5.0940   24.9027 H   0  0  0  0  0  0  0  0  0  0  0  0
   -2.2794    4.0010   26.2837 H   0  0  0  0  0  0  0  0  0  0  0  0
   -0.1377    5.2486   26.2529 H   0  0  0  0  0  0  0  0  0  0  0  0
    1.2905    3.3162   26.6705 H   0  0  0  0  0  0  0  0  0  0  0  0
    0.3941    2.3224   25.5088 H   0  0  0  0  0  0  0  0  0  0  0  0
   -0.3335    2.7971   27.0460 H   0  0  0  0  0  0  0  0  0  0  0  0
    2.7669    5.6922   23.4943 H   0  0  0  0  0  0  0  0  0  0  0  0
    2.2301    5.3243   26.5110 H   0  0  0  0  0  0  0  0  0  0  0  0
    1.9748    6.8288   25.6005 H   0  0  0  0  0  0  0  0  0  0  0  0
    3.5883    6.1304   25.7597 H   0  0  0  0  0  0  0  0  0  0  0  0
    2.5667    3.8180   22.3502 H   0  0  0  0  0  0  0  0  0  0  0  0
    2.6249    1.6795   21.6605 H   0  0  0  0  0  0  0  0  0  0  0  0
    2.9725    1.4806   23.4798 H   0  0  0  0  0  0  0  0  0  0  0  0
    4.8961    0.2049   23.1382 H   0  0  0  0  0  0  0  0  0  0  0  0
    4.6470   -0.3505   21.7579 H   0  0  0  0  0  0  0  0  0  0  0  0
    6.5261    2.0927   21.9654 H   0  0  0  0  0  0  0  0  0  0  0  0
    7.0965    3.2233   21.0624 H   0  0  0  0  0  0  0  0  0  0  0  0
    8.4172    2.1252   21.5203 H   0  0  0  0  0  0  0  0  0  0  0  0
    8.1956    2.1357   18.5911 H   0  0  0  0  0  0  0  0  0  0  0  0
    6.9740    2.5027   18.5780 H   0  0  0  0  0  0  0  0  0  0  0  0
    9.0812   -0.9193   14.9783 H   0  0  0  0  0  0  0  0  0  0  0  0
   10.0843    3.1104   15.4127 H   0  0  0  0  0  0  0  0  0  0  0  0
    7.8415    2.7607   16.5460 H   0  0  0  0  0  0  0  0  0  0  0  0
    8.4581   -0.3008   20.5288 H   0  0  0  0  0  0  0  0  0  0  0  0
    7.0430   -0.9515   20.4283 H   0  0  0  0  0  0  0  0  0  0  0  0
  1  2  1  0
  2  3  1  0
  2  4  1  0
  4  5  1  0
  5  6  1  0
  5  7  1  0
  7  8  2  0
  7  9  1  0
  9 10  1  0
 10 11  1  0
 11 12  1  0
 12 13  1  0
 13 14  1  0
 14 15  1  0
 15 16  1  0
 16 17  2  0
 16 18  1  0
 18 19  2  0
 19 20  1  0
 20 21  2  0
 21 22  1  0
 15 23  1  0
 23 12  1  0
 22 18  1  0
  1 24  1  0
  1 25  1  0
  1 26  1  0
  2 27  1  0
  3 28  1  0
  3 29  1  0
  3 30  1  0
  5 31  1  0
  6 32  1  0
  6 33  1  0
  6 34  1  0
  9 35  1  0
 10 36  1  0
 10 37  1  0
 11 38  1  0
 11 39  1  0
 12 40  1  0
 13 41  1  0
 13 42  1  0
 14 43  1  0
 14 44  1  0
 19 45  1  0
 21 46  1  0
 22 47  1  0
 23 48  1  0
 23 49  1  0
M  END
>  <Energy>  (1471) 
465.31166013558573

>  <compound_id>  (1471) 
10787

>  <target_id>  (1471) 
1

>  <reference_id>  (1471) 
80

>  <inspiration_ids>  (1471) 
[53, 80]

>  <energy_score>  (1471) 
422.71439762300736

>  <distance_score>  (1471) 
4.81812349707324

>  <path>  (1471) 
/opt/xchem-fragalysis-2/maxwin/BulkDock/SCRATCH/511013/C10787-P80/C10787-P80.minimised.mol

>  <scratch_subdir>  (1471) 
/opt/xchem-fragalysis-2/maxwin/BulkDock/SCRATCH/511013/C10787-P80

>  <fragmenstein_runtime>  (1471) 
11.484325170516968

>  <fragmenstein_outcome>  (1471) 
too moved

>  <fragmenstein_mode>  (1471) 
expansion

>  <fragmenstein_error>  (1471) 


$$$$
C10789-P53
     RDKit          3D

 49 50  0  0  0  0  0  0  0  0999 V2000
    9.6797    5.5180   14.6428 C   0  0  0  0  0  0  0  0  0  0  0  0
    9.0699    4.1246   14.8293 C   0  0  0  0  0  0  0  0  0  0  0  0
   10.1691    3.0567   14.9096 C   0  0  0  0  0  0  0  0  0  0  0  0
    9.7476    1.6603   15.2455 C   0  0  0  0  0  0  0  0  0  0  0  0
    9.3979    1.0923   16.4533 C   0  0  0  0  0  0  0  0  0  0  0  0
    9.3205   -0.2758   16.3663 N   0  0  0  0  0  0  0  0  0  0  0  0
    9.4659   -0.5282   15.0846 C   0  0  0  0  0  0  0  0  0  0  0  0
    9.7049    0.6094   14.3608 N   0  0  0  0  0  0  0  0  0  0  0  0
    8.0682    4.1287   15.9938 C   0  0  0  0  0  0  0  0  0  0  0  0
    6.9471    3.8968   15.8577 O   0  0  0  0  0  0  0  0  0  0  0  0
    8.9631    4.4985   17.2959 N   0  0  0  0  0  0  0  0  0  0  0  0
    8.4128    4.7281   18.4971 C   0  0  0  0  0  0  0  0  0  0  0  0
    8.5987    6.3524   18.8360 C   0  0  0  0  0  0  0  0  0  0  0  0
    9.4748    5.8046   19.8559 C   0  0  0  0  0  0  0  0  0  0  0  0
    9.0846    6.3968   21.1718 N   0  0  0  0  0  0  0  0  0  0  0  0
   10.0852    5.3904   21.6736 C   0  0  0  0  0  0  0  0  0  0  0  0
    7.8695    6.2973   21.9162 C   0  0  0  0  0  0  0  0  0  0  0  0
    6.8827    5.6389   21.7171 O   0  0  0  0  0  0  0  0  0  0  0  0
    7.9248    7.3052   23.0648 C   0  0  0  0  0  0  0  0  0  0  0  0
    6.8007    7.0633   24.0686 C   0  0  0  0  0  0  0  0  0  0  0  0
    7.0588    5.8038   24.9053 C   0  0  0  0  0  0  0  0  0  0  0  0
    5.8370    5.3887   25.5675 N   0  0  0  0  0  0  0  0  0  0  0  0
    8.1662    5.3459   24.9516 O   0  0  0  0  0  0  0  0  0  0  0  0
    8.6746    4.5686   19.2072 C   0  0  0  0  0  0  0  0  0  0  0  0
    8.8991    6.2865   14.6279 H   0  0  0  0  0  0  0  0  0  0  0  0
   10.3790    5.7713   15.4467 H   0  0  0  0  0  0  0  0  0  0  0  0
   10.2274    5.5739   13.6960 H   0  0  0  0  0  0  0  0  0  0  0  0
    8.4755    3.9402   13.9303 H   0  0  0  0  0  0  0  0  0  0  0  0
   10.7022    3.0372   13.9490 H   0  0  0  0  0  0  0  0  0  0  0  0
   10.9198    3.3667   15.6451 H   0  0  0  0  0  0  0  0  0  0  0  0
    9.2712    1.6046   17.3982 H   0  0  0  0  0  0  0  0  0  0  0  0
    9.4037   -1.4968   14.6067 H   0  0  0  0  0  0  0  0  0  0  0  0
    9.8200    0.6277   13.3547 H   0  0  0  0  0  0  0  0  0  0  0  0
    7.3428    3.9615   18.3258 H   0  0  0  0  0  0  0  0  0  0  0  0
    7.4699    5.2916   17.9499 H   0  0  0  0  0  0  0  0  0  0  0  0
    9.0888    6.9153   18.0327 H   0  0  0  0  0  0  0  0  0  0  0  0
    7.6828    6.8418   19.1988 H   0  0  0  0  0  0  0  0  0  0  0  0
   10.5127    5.9681   19.5209 H   0  0  0  0  0  0  0  0  0  0  0  0
   11.1218    5.5681   21.3506 H   0  0  0  0  0  0  0  0  0  0  0  0
    9.7573    4.3453   21.5814 H   0  0  0  0  0  0  0  0  0  0  0  0
   10.1349    5.5370   22.7623 H   0  0  0  0  0  0  0  0  0  0  0  0
    8.9039    7.2844   23.5540 H   0  0  0  0  0  0  0  0  0  0  0  0
    7.7971    8.3008   22.6226 H   0  0  0  0  0  0  0  0  0  0  0  0
    6.7474    7.9089   24.7643 H   0  0  0  0  0  0  0  0  0  0  0  0
    5.8387    6.9887   23.5494 H   0  0  0  0  0  0  0  0  0  0  0  0
    5.0966    6.0914   25.3833 H   0  0  0  0  0  0  0  0  0  0  0  0
    5.0453    5.9491   25.1996 H   0  0  0  0  0  0  0  0  0  0  0  0
    9.5052    3.7071   19.5048 H   0  0  0  0  0  0  0  0  0  0  0  0
    7.8366    4.0065   19.9832 H   0  0  0  0  0  0  0  0  0  0  0  0
  1  2  1  0
  2  3  1  0
  3  4  1  0
  4  5  2  0
  5  6  1  0
  6  7  2  0
  7  8  1  0
  2  9  1  0
  9 10  2  0
  9 11  1  0
 11 12  1  0
 12 13  1  0
 13 14  1  0
 14 15  1  0
 15 16  1  0
 15 17  1  0
 17 18  2  0
 17 19  1  0
 19 20  1  0
 20 21  1  0
 21 22  1  0
 21 23  2  0
 14 24  1  0
  8  4  1  0
 24 11  1  0
  1 25  1  0
  1 26  1  0
  1 27  1  0
  2 28  1  0
  3 29  1  0
  3 30  1  0
  5 31  1  0
  7 32  1  0
  8 33  1  0
 12 34  1  0
 12 35  1  0
 13 36  1  0
 13 37  1  0
 14 38  1  0
 16 39  1  0
 16 40  1  0
 16 41  1  0
 19 42  1  0
 19 43  1  0
 20 44  1  0
 20 45  1  0
 22 46  1  0
 22 47  1  0
 24 48  1  0
 24 49  1  0
M  END
>  <Energy>  (1472) 
935.95929348673121

>  <compound_id>  (1472) 
10789

>  <target_id>  (1472) 
1

>  <reference_id>  (1472) 
53

>  <inspiration_ids>  (1472) 
[53, 80]

>  <energy_score>  (1472) 
903.4202076105871

>  <distance_score>  (1472) 
9.393532221747483

>  <path>  (1472) 
/opt/xchem-fragalysis-2/maxwin/BulkDock/SCRATCH/511013/C10789-P53/C10789-P53.minimised.mol

>  <scratch_subdir>  (1472) 
/opt/xchem-fragalysis-2/maxwin/BulkDock/SCRATCH/511013/C10789-P53

>  <fragmenstein_runtime>  (1472) 
13.198872089385986

>  <fragmenstein_outcome>  (1472) 
too moved

>  <fragmenstein_mode>  (1472) 
expansion

>  <fragmenstein_error>  (1472) 


$$$$
C10789-P80
     RDKit          3D

 49 50  0  0  0  0  0  0  0  0999 V2000
   16.4774    0.9137   21.0949 C   0  0  0  0  0  0  0  0  0  0  0  0
   15.6393    1.1135   19.8302 C   0  0  0  0  0  0  0  0  0  0  0  0
   14.7491   -0.1032   19.5507 C   0  0  0  0  0  0  0  0  0  0  0  0
   14.2690   -0.2359   18.1316 C   0  0  0  0  0  0  0  0  0  0  0  0
   14.0392   -1.3558   17.3553 C   0  0  0  0  0  0  0  0  0  0  0  0
   13.5272   -1.0126   16.1323 N   0  0  0  0  0  0  0  0  0  0  0  0
   13.4627    0.2972   16.1379 C   0  0  0  0  0  0  0  0  0  0  0  0
   13.9019    0.8156   17.3220 N   0  0  0  0  0  0  0  0  0  0  0  0
   14.8153    2.4153   19.8689 C   0  0  0  0  0  0  0  0  0  0  0  0
   14.7491    3.0973   18.9302 O   0  0  0  0  0  0  0  0  0  0  0  0
   14.1683    2.5137   21.2845 N   0  0  0  0  0  0  0  0  0  0  0  0
   13.2872    3.2854   21.8334 C   0  0  0  0  0  0  0  0  0  0  0  0
   12.0608    2.6651   22.8138 C   0  0  0  0  0  0  0  0  0  0  0  0
   12.1788    4.0515   23.2450 C   0  0  0  0  0  0  0  0  0  0  0  0
   10.8479    4.7290   23.1204 N   0  0  0  0  0  0  0  0  0  0  0  0
   11.6416    5.9017   23.6337 C   0  0  0  0  0  0  0  0  0  0  0  0
    9.6495    4.5760   23.8810 C   0  0  0  0  0  0  0  0  0  0  0  0
    9.4291    3.9300   24.8709 O   0  0  0  0  0  0  0  0  0  0  0  0
    8.5205    5.3247   23.1739 C   0  0  0  0  0  0  0  0  0  0  0  0
    7.4137    5.7149   24.1514 C   0  0  0  0  0  0  0  0  0  0  0  0
    7.8375    6.8684   25.0727 C   0  0  0  0  0  0  0  0  0  0  0  0
    6.8412    7.0591   26.1089 N   0  0  0  0  0  0  0  0  0  0  0  0
    8.8460    7.4727   24.8393 O   0  0  0  0  0  0  0  0  0  0  0  0
   13.1412    4.0707   21.9105 C   0  0  0  0  0  0  0  0  0  0  0  0
   17.2118    0.1150   20.9442 H   0  0  0  0  0  0  0  0  0  0  0  0
   17.0225    1.8280   21.3530 H   0  0  0  0  0  0  0  0  0  0  0  0
   15.8600    0.6335   21.9552 H   0  0  0  0  0  0  0  0  0  0  0  0
   16.3561    1.2336   19.0051 H   0  0  0  0  0  0  0  0  0  0  0  0
   13.8828   -0.0964   20.2204 H   0  0  0  0  0  0  0  0  0  0  0  0
   15.3113   -1.0165   19.7877 H   0  0  0  0  0  0  0  0  0  0  0  0
   14.1940   -2.3936   17.6242 H   0  0  0  0  0  0  0  0  0  0  0  0
   13.1123    0.9196   15.3259 H   0  0  0  0  0  0  0  0  0  0  0  0
   13.9512    1.8031   17.5539 H   0  0  0  0  0  0  0  0  0  0  0  0
   12.6358    2.6638   20.9860 H   0  0  0  0  0  0  0  0  0  0  0  0
   14.0126    2.8338   22.7779 H   0  0  0  0  0  0  0  0  0  0  0  0
   12.4077    1.8843   23.4980 H   0  0  0  0  0  0  0  0  0  0  0  0
   11.1488    2.3895   22.2756 H   0  0  0  0  0  0  0  0  0  0  0  0
   12.6647    4.0334   24.2366 H   0  0  0  0  0  0  0  0  0  0  0  0
   11.8913    5.8287   24.7039 H   0  0  0  0  0  0  0  0  0  0  0  0
   10.9574    6.7595   23.5906 H   0  0  0  0  0  0  0  0  0  0  0  0
   12.4771    6.2294   23.0020 H   0  0  0  0  0  0  0  0  0  0  0  0
    8.1089    4.6398   22.4237 H   0  0  0  0  0  0  0  0  0  0  0  0
    8.9015    6.2021   22.6408 H   0  0  0  0  0  0  0  0  0  0  0  0
    7.1101    4.8537   24.7562 H   0  0  0  0  0  0  0  0  0  0  0  0
    6.5406    6.0562   23.5826 H   0  0  0  0  0  0  0  0  0  0  0  0
    6.0433    6.4210   25.9325 H   0  0  0  0  0  0  0  0  0  0  0  0
    6.1642    6.2745   26.0757 H   0  0  0  0  0  0  0  0  0  0  0  0
   12.6197    4.7002   20.9840 H   0  0  0  0  0  0  0  0  0  0  0  0
   13.9863    4.9243   22.1235 H   0  0  0  0  0  0  0  0  0  0  0  0
  1  2  1  0
  2  3  1  0
  3  4  1  0
  4  5  2  0
  5  6  1  0
  6  7  2  0
  7  8  1  0
  2  9  1  0
  9 10  2  0
  9 11  1  0
 11 12  1  0
 12 13  1  0
 13 14  1  0
 14 15  1  0
 15 16  1  0
 15 17  1  0
 17 18  2  0
 17 19  1  0
 19 20  1  0
 20 21  1  0
 21 22  1  0
 21 23  2  0
 14 24  1  0
  8  4  1  0
 24 11  1  0
  1 25  1  0
  1 26  1  0
  1 27  1  0
  2 28  1  0
  3 29  1  0
  3 30  1  0
  5 31  1  0
  7 32  1  0
  8 33  1  0
 12 34  1  0
 12 35  1  0
 13 36  1  0
 13 37  1  0
 14 38  1  0
 16 39  1  0
 16 40  1  0
 16 41  1  0
 19 42  1  0
 19 43  1  0
 20 44  1  0
 20 45  1  0
 22 46  1  0
 22 47  1  0
 24 48  1  0
 24 49  1  0
M  END
>  <Energy>  (1473) 
960.66909599933751

>  <compound_id>  (1473) 
10789

>  <target_id>  (1473) 
1

>  <reference_id>  (1473) 
80

>  <inspiration_ids>  (1473) 
[53, 80]

>  <energy_score>  (1473) 
928.1300101231886

>  <distance_score>  (1473) 
9.838447194180516

>  <path>  (1473) 
/opt/xchem-fragalysis-2/maxwin/BulkDock/SCRATCH/511013/C10789-P80/C10789-P80.minimised.mol

>  <scratch_subdir>  (1473) 
/opt/xchem-fragalysis-2/maxwin/BulkDock/SCRATCH/511013/C10789-P80

>  <fragmenstein_runtime>  (1473) 
15.244276285171509

>  <fragmenstein_outcome>  (1473) 
too moved

>  <fragmenstein_mode>  (1473) 
expansion

>  <fragmenstein_error>  (1473) 


$$$$
C10790-P53
     RDKit          3D

 47 48  0  0  0  0  0  0  0  0999 V2000
    6.9003    5.3483   26.9237 C   0  0  0  0  0  0  0  0  0  0  0  0
    5.6958    4.9159   27.5486 O   0  0  0  0  0  0  0  0  0  0  0  0
    4.5301    5.3954   26.8618 C   0  0  0  0  0  0  0  0  0  0  0  0
    3.3788    5.4226   27.8750 C   0  0  0  0  0  0  0  0  0  0  0  0
    1.9497    6.4380   27.3686 S   0  0  0  0  0  0  0  0  0  0  0  0
    1.1198    5.2946   26.2415 C   0  0  0  0  0  0  0  0  0  0  0  0
    4.2211    4.5138   25.6240 C   0  0  0  0  0  0  0  0  0  0  0  0
    4.3618    4.9718   24.5201 O   0  0  0  0  0  0  0  0  0  0  0  0
    3.7616    3.2272   26.0440 N   0  0  0  0  0  0  0  0  0  0  0  0
    4.9367    2.2777   26.1872 C   0  0  0  0  0  0  0  0  0  0  0  0
    4.8830    0.8411   25.7671 C   0  0  0  0  0  0  0  0  0  0  0  0
    4.0191    0.9791   24.5726 C   0  0  0  0  0  0  0  0  0  0  0  0
    4.4001    1.4015   22.9636 C   0  0  0  0  0  0  0  0  0  0  0  0
    5.0981    0.2513   21.5235 C   0  0  0  0  0  0  0  0  0  0  0  0
    6.5254    0.1397   20.0859 N   0  0  0  0  0  0  0  0  0  0  0  0
    7.6836    1.1520   19.6993 C   0  0  0  0  0  0  0  0  0  0  0  0
    8.0307    2.1805   20.2334 O   0  0  0  0  0  0  0  0  0  0  0  0
    8.4102    0.9116   18.4455 C   0  0  0  0  0  0  0  0  0  0  0  0
    9.2720    1.8211   17.8276 C   0  0  0  0  0  0  0  0  0  0  0  0
    9.6730    1.4294   16.5716 N   0  0  0  0  0  0  0  0  0  0  0  0
    8.8418    0.4774   16.2665 C   0  0  0  0  0  0  0  0  0  0  0  0
    8.0260    0.2208   17.3299 N   0  0  0  0  0  0  0  0  0  0  0  0
    3.2041    2.0833   25.2558 C   0  0  0  0  0  0  0  0  0  0  0  0
    6.9816    6.4385   26.9674 H   0  0  0  0  0  0  0  0  0  0  0  0
    6.9504    5.0074   25.8857 H   0  0  0  0  0  0  0  0  0  0  0  0
    7.7421    4.9162   27.4715 H   0  0  0  0  0  0  0  0  0  0  0  0
    4.7180    6.4210   26.5160 H   0  0  0  0  0  0  0  0  0  0  0  0
    3.7510    5.8705   28.8047 H   0  0  0  0  0  0  0  0  0  0  0  0
    3.0397    4.4214   28.1608 H   0  0  0  0  0  0  0  0  0  0  0  0
    1.6396    5.2419   25.2835 H   0  0  0  0  0  0  0  0  0  0  0  0
    0.1088    5.6654   26.0494 H   0  0  0  0  0  0  0  0  0  0  0  0
    1.0360    4.2991   26.6843 H   0  0  0  0  0  0  0  0  0  0  0  0
    5.8176    2.7476   25.7354 H   0  0  0  0  0  0  0  0  0  0  0  0
    5.1628    2.2977   27.2636 H   0  0  0  0  0  0  0  0  0  0  0  0
    5.8583    0.3670   25.6669 H   0  0  0  0  0  0  0  0  0  0  0  0
    4.3689    0.2562   26.5455 H   0  0  0  0  0  0  0  0  0  0  0  0
    3.4366    0.0591   24.5817 H   0  0  0  0  0  0  0  0  0  0  0  0
    4.2224    2.4752   22.9083 H   0  0  0  0  0  0  0  0  0  0  0  0
    3.3768    1.5615   22.5363 H   0  0  0  0  0  0  0  0  0  0  0  0
    5.0584   -0.7652   21.9038 H   0  0  0  0  0  0  0  0  0  0  0  0
    4.3042    0.6639   21.0118 H   0  0  0  0  0  0  0  0  0  0  0  0
    6.5614   -0.6655   19.4709 H   0  0  0  0  0  0  0  0  0  0  0  0
    9.6315    2.7430   18.2724 H   0  0  0  0  0  0  0  0  0  0  0  0
    8.7213    0.0124   15.2961 H   0  0  0  0  0  0  0  0  0  0  0  0
    7.0590   -0.0426   17.2040 H   0  0  0  0  0  0  0  0  0  0  0  0
    2.5479    2.5546   24.5112 H   0  0  0  0  0  0  0  0  0  0  0  0
    2.5044    1.6183   25.9721 H   0  0  0  0  0  0  0  0  0  0  0  0
  1  2  1  0
  2  3  1  0
  3  4  1  0
  4  5  1  0
  5  6  1  0
  3  7  1  0
  7  8  2  0
  7  9  1  0
  9 10  1  0
 10 11  1  0
 11 12  1  0
 12 13  1  0
 13 14  1  0
 14 15  1  0
 15 16  1  0
 16 17  2  0
 16 18  1  0
 18 19  2  0
 19 20  1  0
 20 21  2  0
 21 22  1  0
 12 23  1  0
 23  9  1  0
 22 18  1  0
  1 24  1  0
  1 25  1  0
  1 26  1  0
  3 27  1  0
  4 28  1  0
  4 29  1  0
  6 30  1  0
  6 31  1  0
  6 32  1  0
 10 33  1  0
 10 34  1  0
 11 35  1  0
 11 36  1  0
 12 37  1  0
 13 38  1  0
 13 39  1  0
 14 40  1  0
 14 41  1  0
 15 42  1  0
 19 43  1  0
 21 44  1  0
 22 45  1  0
 23 46  1  0
 23 47  1  0
M  END
>  <Energy>  (1474) 
342.96564423285145

>  <compound_id>  (1474) 
10790

>  <target_id>  (1474) 
1

>  <reference_id>  (1474) 
53

>  <inspiration_ids>  (1474) 
[53, 80]

>  <energy_score>  (1474) 
281.0644452964693

>  <distance_score>  (1474) 
5.258574634570765

>  <path>  (1474) 
/opt/xchem-fragalysis-2/maxwin/BulkDock/SCRATCH/511013/C10790-P53/C10790-P53.minimised.mol

>  <scratch_subdir>  (1474) 
/opt/xchem-fragalysis-2/maxwin/BulkDock/SCRATCH/511013/C10790-P53

>  <fragmenstein_runtime>  (1474) 
8.336534261703491

>  <fragmenstein_outcome>  (1474) 
too moved

>  <fragmenstein_mode>  (1474) 
expansion

>  <fragmenstein_error>  (1474) 


$$$$
C10790-P80
     RDKit          3D

 47 48  0  0  0  0  0  0  0  0999 V2000
   -0.4884    7.6371   23.9974 C   0  0  0  0  0  0  0  0  0  0  0  0
    0.4622    7.2223   24.9682 O   0  0  0  0  0  0  0  0  0  0  0  0
    1.4079    6.2937   24.4426 C   0  0  0  0  0  0  0  0  0  0  0  0
    2.2191    5.7436   25.6379 C   0  0  0  0  0  0  0  0  0  0  0  0
    1.8287    3.9866   26.0111 S   0  0  0  0  0  0  0  0  0  0  0  0
    3.0938    3.7100   27.2732 C   0  0  0  0  0  0  0  0  0  0  0  0
    2.4455    6.9113   23.4482 C   0  0  0  0  0  0  0  0  0  0  0  0
    3.1287    7.8459   23.7839 O   0  0  0  0  0  0  0  0  0  0  0  0
    2.4594    6.1308   22.2406 N   0  0  0  0  0  0  0  0  0  0  0  0
    3.3724    4.9537   22.3929 C   0  0  0  0  0  0  0  0  0  0  0  0
    4.8084    5.3952   22.4018 C   0  0  0  0  0  0  0  0  0  0  0  0
    4.7839    6.2250   21.1521 C   0  0  0  0  0  0  0  0  0  0  0  0
    5.5584    5.5175   20.0194 C   0  0  0  0  0  0  0  0  0  0  0  0
    6.1105    6.3957   18.8927 C   0  0  0  0  0  0  0  0  0  0  0  0
    7.1173    5.6675   18.1215 N   0  0  0  0  0  0  0  0  0  0  0  0
    6.9920    4.5504   17.2251 C   0  0  0  0  0  0  0  0  0  0  0  0
    6.0230    3.9825   16.8210 O   0  0  0  0  0  0  0  0  0  0  0  0
    8.3040    4.0336   16.8051 C   0  0  0  0  0  0  0  0  0  0  0  0
    8.6284    2.7244   16.4717 C   0  0  0  0  0  0  0  0  0  0  0  0
    9.9468    2.5787   16.1296 N   0  0  0  0  0  0  0  0  0  0  0  0
   10.4476    3.7839   16.2278 C   0  0  0  0  0  0  0  0  0  0  0  0
    9.5010    4.6928   16.6180 N   0  0  0  0  0  0  0  0  0  0  0  0
    3.2601    6.3004   20.9561 C   0  0  0  0  0  0  0  0  0  0  0  0
   -1.0534    6.7790   23.6206 H   0  0  0  0  0  0  0  0  0  0  0  0
    0.0014    8.1593   23.1705 H   0  0  0  0  0  0  0  0  0  0  0  0
   -1.1874    8.3281   24.4764 H   0  0  0  0  0  0  0  0  0  0  0  0
    0.8607    5.4866   23.9385 H   0  0  0  0  0  0  0  0  0  0  0  0
    2.0174    6.3236   26.5451 H   0  0  0  0  0  0  0  0  0  0  0  0
    3.2962    5.7836   25.4446 H   0  0  0  0  0  0  0  0  0  0  0  0
    2.9551    4.3991   28.1103 H   0  0  0  0  0  0  0  0  0  0  0  0
    4.0919    3.8419   26.8474 H   0  0  0  0  0  0  0  0  0  0  0  0
    3.0097    2.6864   27.6477 H   0  0  0  0  0  0  0  0  0  0  0  0
    3.1616    4.4779   23.3551 H   0  0  0  0  0  0  0  0  0  0  0  0
    3.1148    4.1755   21.6587 H   0  0  0  0  0  0  0  0  0  0  0  0
    5.5234    4.5722   22.3995 H   0  0  0  0  0  0  0  0  0  0  0  0
    5.0353    6.0145   23.2768 H   0  0  0  0  0  0  0  0  0  0  0  0
    5.2153    7.2124   21.3521 H   0  0  0  0  0  0  0  0  0  0  0  0
    4.9268    4.7425   19.5725 H   0  0  0  0  0  0  0  0  0  0  0  0
    6.4179    5.0015   20.4656 H   0  0  0  0  0  0  0  0  0  0  0  0
    5.3062    6.6901   18.2117 H   0  0  0  0  0  0  0  0  0  0  0  0
    6.5958    7.2917   19.2902 H   0  0  0  0  0  0  0  0  0  0  0  0
    8.0867    5.9374   18.1768 H   0  0  0  0  0  0  0  0  0  0  0  0
    7.9697    1.8705   16.4825 H   0  0  0  0  0  0  0  0  0  0  0  0
   11.4748    4.0626   16.0324 H   0  0  0  0  0  0  0  0  0  0  0  0
    9.6644    5.6848   16.7043 H   0  0  0  0  0  0  0  0  0  0  0  0
    3.0173    7.3115   20.6028 H   0  0  0  0  0  0  0  0  0  0  0  0
    2.8673    5.6236   20.1807 H   0  0  0  0  0  0  0  0  0  0  0  0
  1  2  1  0
  2  3  1  0
  3  4  1  0
  4  5  1  0
  5  6  1  0
  3  7  1  0
  7  8  2  0
  7  9  1  0
  9 10  1  0
 10 11  1  0
 11 12  1  0
 12 13  1  0
 13 14  1  0
 14 15  1  0
 15 16  1  0
 16 17  2  0
 16 18  1  0
 18 19  2  0
 19 20  1  0
 20 21  2  0
 21 22  1  0
 12 23  1  0
 23  9  1  0
 22 18  1  0
  1 24  1  0
  1 25  1  0
  1 26  1  0
  3 27  1  0
  4 28  1  0
  4 29  1  0
  6 30  1  0
  6 31  1  0
  6 32  1  0
 10 33  1  0
 10 34  1  0
 11 35  1  0
 11 36  1  0
 12 37  1  0
 13 38  1  0
 13 39  1  0
 14 40  1  0
 14 41  1  0
 15 42  1  0
 19 43  1  0
 21 44  1  0
 22 45  1  0
 23 46  1  0
 23 47  1  0
M  END
>  <Energy>  (1475) 
92.490467728673977

>  <compound_id>  (1475) 
10790

>  <target_id>  (1475) 
1

>  <reference_id>  (1475) 
80

>  <inspiration_ids>  (1475) 
[53, 80]

>  <energy_score>  (1475) 
30.5892687922925

>  <distance_score>  (1475) 
6.455526595118064

>  <path>  (1475) 
/opt/xchem-fragalysis-2/maxwin/BulkDock/SCRATCH/511013/C10790-P80/C10790-P80.minimised.mol

>  <scratch_subdir>  (1475) 
/opt/xchem-fragalysis-2/maxwin/BulkDock/SCRATCH/511013/C10790-P80

>  <fragmenstein_runtime>  (1475) 
10.313190460205078

>  <fragmenstein_outcome>  (1475) 
too moved

>  <fragmenstein_mode>  (1475) 
expansion

>  <fragmenstein_error>  (1475) 


$$$$
C10791-P53
     RDKit          3D

 46 47  0  0  0  0  0  0  0  0999 V2000
    0.3144   -1.3959   28.1597 C   0  0  0  0  0  0  0  0  0  0  0  0
    1.6325   -1.5338   27.6439 O   0  0  0  0  0  0  0  0  0  0  0  0
    2.2783   -2.7560   28.0334 C   0  0  0  0  0  0  0  0  0  0  0  0
    3.7602   -2.8090   27.5514 C   0  0  0  0  0  0  0  0  0  0  0  0
    4.3687   -1.4229   27.8375 C   0  0  0  0  0  0  0  0  0  0  0  0
    3.8848   -3.2871   26.0517 C   0  0  0  0  0  0  0  0  0  0  0  0
    3.1279   -4.1133   25.6091 O   0  0  0  0  0  0  0  0  0  0  0  0
    4.9096   -2.5203   25.4050 N   0  0  0  0  0  0  0  0  0  0  0  0
    6.1613   -3.2233   25.4793 C   0  0  0  0  0  0  0  0  0  0  0  0
    5.3533   -2.3950   23.7290 C   0  0  0  0  0  0  0  0  0  0  0  0
    6.9827   -2.9105   22.6747 C   0  0  0  0  0  0  0  0  0  0  0  0
    8.0011   -1.5702   24.1626 C   0  0  0  0  0  0  0  0  0  0  0  0
    8.9769   -0.2012   22.7436 C   0  0  0  0  0  0  0  0  0  0  0  0
    7.8546   -1.0955   20.9302 C   0  0  0  0  0  0  0  0  0  0  0  0
    7.7774   -3.3418   20.7019 N   0  0  0  0  0  0  0  0  0  0  0  0
    9.4237   -4.6007   20.0550 C   0  0  0  0  0  0  0  0  0  0  0  0
   10.0278   -4.9982   21.0004 O   0  0  0  0  0  0  0  0  0  0  0  0
   10.4889   -5.2407   18.4710 C   0  0  0  0  0  0  0  0  0  0  0  0
   12.0647   -5.2407   19.1842 C   0  0  0  0  0  0  0  0  0  0  0  0
   13.1220   -4.6615   18.5272 N   0  0  0  0  0  0  0  0  0  0  0  0
   12.6548   -4.3097   17.3753 C   0  0  0  0  0  0  0  0  0  0  0  0
   11.3242   -4.5575   17.2183 N   0  0  0  0  0  0  0  0  0  0  0  0
    0.3503   -1.2897   29.2478 H   0  0  0  0  0  0  0  0  0  0  0  0
   -0.1323   -0.4940   27.7333 H   0  0  0  0  0  0  0  0  0  0  0  0
   -0.3013   -2.2590   27.8937 H   0  0  0  0  0  0  0  0  0  0  0  0
    2.2763   -2.7989   29.1302 H   0  0  0  0  0  0  0  0  0  0  0  0
    1.7075   -3.6166   27.6735 H   0  0  0  0  0  0  0  0  0  0  0  0
    4.2841   -3.5690   28.1447 H   0  0  0  0  0  0  0  0  0  0  0  0
    4.1535   -1.1034   28.8631 H   0  0  0  0  0  0  0  0  0  0  0  0
    3.9917   -0.6581   27.1496 H   0  0  0  0  0  0  0  0  0  0  0  0
    5.4591   -1.4484   27.7366 H   0  0  0  0  0  0  0  0  0  0  0  0
    6.2096   -4.1390   24.8858 H   0  0  0  0  0  0  0  0  0  0  0  0
    7.0032   -2.6166   25.7604 H   0  0  0  0  0  0  0  0  0  0  0  0
    6.1154   -3.7441   26.4567 H   0  0  0  0  0  0  0  0  0  0  0  0
    5.2763   -1.2840   23.8140 H   0  0  0  0  0  0  0  0  0  0  0  0
    4.4415   -2.2843   23.1205 H   0  0  0  0  0  0  0  0  0  0  0  0
    6.6995   -3.9623   22.9444 H   0  0  0  0  0  0  0  0  0  0  0  0
    7.3292   -1.0110   24.8621 H   0  0  0  0  0  0  0  0  0  0  0  0
    8.8084   -1.9909   24.8415 H   0  0  0  0  0  0  0  0  0  0  0  0
   10.0880   -0.1663   22.7564 H   0  0  0  0  0  0  0  0  0  0  0  0
    9.1063    0.8627   23.1657 H   0  0  0  0  0  0  0  0  0  0  0  0
    8.3203   -0.4443   20.0037 H   0  0  0  0  0  0  0  0  0  0  0  0
    6.9124   -0.7320   20.4123 H   0  0  0  0  0  0  0  0  0  0  0  0
   12.1584   -5.5035   20.2353 H   0  0  0  0  0  0  0  0  0  0  0  0
   13.2461   -3.9071   16.5650 H   0  0  0  0  0  0  0  0  0  0  0  0
   10.9025   -4.6122   16.3052 H   0  0  0  0  0  0  0  0  0  0  0  0
  1  2  1  0
  2  3  1  0
  3  4  1  0
  4  5  1  0
  4  6  1  0
  6  7  2  0
  6  8  1  0
  8  9  1  0
  8 10  1  0
 10 11  1  0
 11 12  1  0
 12 13  1  0
 13 14  1  0
 14 15  1  0
 15 16  1  0
 16 17  2  0
 16 18  1  0
 18 19  2  0
 19 20  1  0
 20 21  2  0
 21 22  1  0
 15 11  1  0
 22 18  1  0
  1 23  1  0
  1 24  1  0
  1 25  1  0
  3 26  1  0
  3 27  1  0
  4 28  1  0
  5 29  1  0
  5 30  1  0
  5 31  1  0
  9 32  1  0
  9 33  1  0
  9 34  1  0
 10 35  1  0
 10 36  1  0
 11 37  1  0
 12 38  1  0
 12 39  1  0
 13 40  1  0
 13 41  1  0
 14 42  1  0
 14 43  1  0
 19 44  1  0
 21 45  1  0
 22 46  1  0
M  END
>  <Energy>  (1476) 
1635.109058870439

>  <compound_id>  (1476) 
10791

>  <target_id>  (1476) 
1

>  <reference_id>  (1476) 
53

>  <inspiration_ids>  (1476) 
[53, 80]

>  <energy_score>  (1476) 
1451.9660372188748

>  <distance_score>  (1476) 
6.431065560474704

>  <path>  (1476) 
/opt/xchem-fragalysis-2/maxwin/BulkDock/SCRATCH/511013/C10791-P53/C10791-P53.minimised.mol

>  <scratch_subdir>  (1476) 
/opt/xchem-fragalysis-2/maxwin/BulkDock/SCRATCH/511013/C10791-P53

>  <fragmenstein_runtime>  (1476) 
5.572423934936523

>  <fragmenstein_outcome>  (1476) 
too moved

>  <fragmenstein_mode>  (1476) 
expansion

>  <fragmenstein_error>  (1476) 


$$$$
C10791-P80
     RDKit          3D

 46 47  0  0  0  0  0  0  0  0999 V2000
   -1.1030    2.9474   26.1884 C   0  0  0  0  0  0  0  0  0  0  0  0
   -0.7018    3.2194   24.8497 O   0  0  0  0  0  0  0  0  0  0  0  0
    0.6575    3.6868   24.7696 C   0  0  0  0  0  0  0  0  0  0  0  0
    0.8794    4.6235   23.5498 C   0  0  0  0  0  0  0  0  0  0  0  0
    0.1074    4.1362   22.3272 C   0  0  0  0  0  0  0  0  0  0  0  0
    2.4043    4.7967   23.2521 C   0  0  0  0  0  0  0  0  0  0  0  0
    3.2003    4.2280   23.9549 O   0  0  0  0  0  0  0  0  0  0  0  0
    2.6088    5.6497   22.1050 N   0  0  0  0  0  0  0  0  0  0  0  0
    2.7172    7.0833   22.5411 C   0  0  0  0  0  0  0  0  0  0  0  0
    3.8936    6.0143   21.3432 C   0  0  0  0  0  0  0  0  0  0  0  0
    3.7541    6.5666   19.8402 C   0  0  0  0  0  0  0  0  0  0  0  0
    2.3495    6.6990   19.2639 C   0  0  0  0  0  0  0  0  0  0  0  0
    2.2921    5.4587   18.4480 C   0  0  0  0  0  0  0  0  0  0  0  0
    3.6768    4.9212   18.7162 C   0  0  0  0  0  0  0  0  0  0  0  0
    4.7164    6.0101   18.7634 N   0  0  0  0  0  0  0  0  0  0  0  0
    6.0242    5.4439   18.8824 C   0  0  0  0  0  0  0  0  0  0  0  0
    6.6715    5.1753   19.8576 O   0  0  0  0  0  0  0  0  0  0  0  0
    6.5680    5.0942   17.5705 C   0  0  0  0  0  0  0  0  0  0  0  0
    7.3180    3.9940   17.1776 C   0  0  0  0  0  0  0  0  0  0  0  0
    7.6908    4.0685   15.8600 N   0  0  0  0  0  0  0  0  0  0  0  0
    7.1735    5.1933   15.4326 C   0  0  0  0  0  0  0  0  0  0  0  0
    6.4638    5.8271   16.4139 N   0  0  0  0  0  0  0  0  0  0  0  0
   -0.4354    2.2098   26.6437 H   0  0  0  0  0  0  0  0  0  0  0  0
   -1.1087    3.8692   26.7777 H   0  0  0  0  0  0  0  0  0  0  0  0
   -2.1171    2.5393   26.1672 H   0  0  0  0  0  0  0  0  0  0  0  0
    0.9330    4.2312   25.6821 H   0  0  0  0  0  0  0  0  0  0  0  0
    1.2989    2.8013   24.7087 H   0  0  0  0  0  0  0  0  0  0  0  0
    0.4769    5.6061   23.8244 H   0  0  0  0  0  0  0  0  0  0  0  0
   -0.9588    4.0071   22.5361 H   0  0  0  0  0  0  0  0  0  0  0  0
    0.5094    3.1888   21.9598 H   0  0  0  0  0  0  0  0  0  0  0  0
    0.1818    4.8543   21.5033 H   0  0  0  0  0  0  0  0  0  0  0  0
    3.4892    7.2402   23.3108 H   0  0  0  0  0  0  0  0  0  0  0  0
    1.7825    7.2932   23.0803 H   0  0  0  0  0  0  0  0  0  0  0  0
    2.7218    7.8452   21.7510 H   0  0  0  0  0  0  0  0  0  0  0  0
    4.6944    6.5333   21.9028 H   0  0  0  0  0  0  0  0  0  0  0  0
    4.3717    5.0297   21.2795 H   0  0  0  0  0  0  0  0  0  0  0  0
    4.1271    7.5975   19.9406 H   0  0  0  0  0  0  0  0  0  0  0  0
    2.2792    7.5796   18.6143 H   0  0  0  0  0  0  0  0  0  0  0  0
    1.5462    6.7671   19.9999 H   0  0  0  0  0  0  0  0  0  0  0  0
    2.1431    5.6889   17.3878 H   0  0  0  0  0  0  0  0  0  0  0  0
    1.5137    4.7600   18.7676 H   0  0  0  0  0  0  0  0  0  0  0  0
    3.7160    4.2481   19.5771 H   0  0  0  0  0  0  0  0  0  0  0  0
    3.9459    4.2729   17.8706 H   0  0  0  0  0  0  0  0  0  0  0  0
    7.5997    3.1380   17.7731 H   0  0  0  0  0  0  0  0  0  0  0  0
    7.2677    5.5954   14.4324 H   0  0  0  0  0  0  0  0  0  0  0  0
    5.9759    6.7070   16.3237 H   0  0  0  0  0  0  0  0  0  0  0  0
  1  2  1  0
  2  3  1  0
  3  4  1  0
  4  5  1  0
  4  6  1  0
  6  7  2  0
  6  8  1  0
  8  9  1  0
  8 10  1  0
 10 11  1  0
 11 12  1  0
 12 13  1  0
 13 14  1  0
 14 15  1  0
 15 16  1  0
 16 17  2  0
 16 18  1  0
 18 19  2  0
 19 20  1  0
 20 21  2  0
 21 22  1  0
 15 11  1  0
 22 18  1  0
  1 23  1  0
  1 24  1  0
  1 25  1  0
  3 26  1  0
  3 27  1  0
  4 28  1  0
  5 29  1  0
  5 30  1  0
  5 31  1  0
  9 32  1  0
  9 33  1  0
  9 34  1  0
 10 35  1  0
 10 36  1  0
 11 37  1  0
 12 38  1  0
 12 39  1  0
 13 40  1  0
 13 41  1  0
 14 42  1  0
 14 43  1  0
 19 44  1  0
 21 45  1  0
 22 46  1  0
M  END
>  <Energy>  (1477) 
131.18782568337281

>  <compound_id>  (1477) 
10791

>  <target_id>  (1477) 
1

>  <reference_id>  (1477) 
80

>  <inspiration_ids>  (1477) 
[53, 80]

>  <energy_score>  (1477) 
-51.95519596820054

>  <distance_score>  (1477) 
6.932581647247894

>  <path>  (1477) 
/opt/xchem-fragalysis-2/maxwin/BulkDock/SCRATCH/511013/C10791-P80/C10791-P80.minimised.mol

>  <scratch_subdir>  (1477) 
/opt/xchem-fragalysis-2/maxwin/BulkDock/SCRATCH/511013/C10791-P80

>  <fragmenstein_runtime>  (1477) 
9.088256597518921

>  <fragmenstein_outcome>  (1477) 
too moved

>  <fragmenstein_mode>  (1477) 
expansion

>  <fragmenstein_error>  (1477) 


$$$$
C10792-P53
     RDKit          3D

 44 45  0  0  0  0  0  0  0  0999 V2000
    1.3662    4.1324   23.9572 O   0  0  0  0  0  0  0  0  0  0  0  0
    2.1477    3.2635   24.2092 C   0  0  0  0  0  0  0  0  0  0  0  0
    3.1432    2.8002   23.1038 C   0  0  0  0  0  0  0  0  0  0  0  0
    3.9516    1.6077   23.5287 N   0  0  0  0  0  0  0  0  0  0  0  0
    4.7487    0.8501   22.2160 C   0  0  0  0  0  0  0  0  0  0  0  0
    5.8080   -0.5519   21.8909 C   0  0  0  0  0  0  0  0  0  0  0  0
    5.6255   -0.8541   23.9624 C   0  0  0  0  0  0  0  0  0  0  0  0
    7.6788   -0.9093   24.4496 C   0  0  0  0  0  0  0  0  0  0  0  0
    8.7830   -0.1136   22.7621 C   0  0  0  0  0  0  0  0  0  0  0  0
    7.5960    0.2690   20.7419 N   0  0  0  0  0  0  0  0  0  0  0  0
    8.2592   -0.1904   19.7708 C   0  0  0  0  0  0  0  0  0  0  0  0
    8.2371   -1.2021   19.2569 O   0  0  0  0  0  0  0  0  0  0  0  0
    8.9869    1.0230   19.4275 C   0  0  0  0  0  0  0  0  0  0  0  0
    8.4203    2.2724   18.7948 C   0  0  0  0  0  0  0  0  0  0  0  0
    8.2910    2.6212   17.4604 C   0  0  0  0  0  0  0  0  0  0  0  0
    8.0452    3.9592   17.3183 N   0  0  0  0  0  0  0  0  0  0  0  0
    8.0350    4.4309   18.5410 C   0  0  0  0  0  0  0  0  0  0  0  0
    8.2430    3.4497   19.4673 N   0  0  0  0  0  0  0  0  0  0  0  0
    2.3708    2.5312   25.4150 N   0  0  0  0  0  0  0  0  0  0  0  0
    1.6575    2.5413   26.6862 C   0  0  0  0  0  0  0  0  0  0  0  0
    1.0992    3.8776   27.1916 C   0  0  0  0  0  0  0  0  0  0  0  0
    2.0407    4.8458   27.1677 F   0  0  0  0  0  0  0  0  0  0  0  0
    0.0258    4.2931   26.4951 F   0  0  0  0  0  0  0  0  0  0  0  0
    0.7135    3.7351   28.4856 F   0  0  0  0  0  0  0  0  0  0  0  0
    3.7370    3.6891   22.8857 H   0  0  0  0  0  0  0  0  0  0  0  0
    2.5743    2.5881   22.2000 H   0  0  0  0  0  0  0  0  0  0  0  0
    4.6961    1.8973   24.1459 H   0  0  0  0  0  0  0  0  0  0  0  0
    5.5560    1.4512   22.2287 H   0  0  0  0  0  0  0  0  0  0  0  0
    4.0952    0.9361   21.3710 H   0  0  0  0  0  0  0  0  0  0  0  0
    5.2768   -1.2561   21.3373 H   0  0  0  0  0  0  0  0  0  0  0  0
    5.2398   -1.8926   24.0800 H   0  0  0  0  0  0  0  0  0  0  0  0
    5.0179   -0.2400   24.6470 H   0  0  0  0  0  0  0  0  0  0  0  0
    7.9580   -1.8954   24.8031 H   0  0  0  0  0  0  0  0  0  0  0  0
    7.8104   -0.3950   25.4455 H   0  0  0  0  0  0  0  0  0  0  0  0
    9.9005   -0.0340   22.6116 H   0  0  0  0  0  0  0  0  0  0  0  0
    9.1021    0.9545   23.1837 H   0  0  0  0  0  0  0  0  0  0  0  0
    9.3401    0.6804   18.4312 H   0  0  0  0  0  0  0  0  0  0  0  0
    9.5192    1.4186   20.3156 H   0  0  0  0  0  0  0  0  0  0  0  0
    8.4020    1.9816   16.5939 H   0  0  0  0  0  0  0  0  0  0  0  0
    7.8798    5.4646   18.8169 H   0  0  0  0  0  0  0  0  0  0  0  0
    8.3089    3.5861   20.4639 H   0  0  0  0  0  0  0  0  0  0  0  0
    3.0654    1.8052   25.2378 H   0  0  0  0  0  0  0  0  0  0  0  0
    2.3607    2.1455   27.4264 H   0  0  0  0  0  0  0  0  0  0  0  0
    0.8363    1.8231   26.5963 H   0  0  0  0  0  0  0  0  0  0  0  0
  1  2  2  0
  2  3  1  0
  3  4  1  0
  4  5  1  0
  5  6  1  0
  6  7  1  0
  7  8  1  0
  8  9  1  0
  9 10  1  0
 10 11  1  0
 11 12  2  0
 11 13  1  0
 13 14  1  0
 14 15  2  0
 15 16  1  0
 16 17  2  0
 17 18  1  0
  2 19  1  0
 19 20  1  0
 20 21  1  0
 21 22  1  0
 21 23  1  0
 21 24  1  0
 10  6  1  0
 18 14  1  0
  3 25  1  0
  3 26  1  0
  4 27  1  0
  5 28  1  0
  5 29  1  0
  6 30  1  0
  7 31  1  0
  7 32  1  0
  8 33  1  0
  8 34  1  0
  9 35  1  0
  9 36  1  0
 13 37  1  0
 13 38  1  0
 15 39  1  0
 17 40  1  0
 18 41  1  0
 19 42  1  0
 20 43  1  0
 20 44  1  0
M  END
>  <Energy>  (1478) 
1139.0367456863703

>  <compound_id>  (1478) 
10792

>  <target_id>  (1478) 
1

>  <reference_id>  (1478) 
53

>  <inspiration_ids>  (1478) 
[53, 80]

>  <energy_score>  (1478) 
981.5126627470876

>  <distance_score>  (1478) 
5.857765798432863

>  <path>  (1478) 
/opt/xchem-fragalysis-2/maxwin/BulkDock/SCRATCH/511013/C10792-P53/C10792-P53.minimised.mol

>  <scratch_subdir>  (1478) 
/opt/xchem-fragalysis-2/maxwin/BulkDock/SCRATCH/511013/C10792-P53

>  <fragmenstein_runtime>  (1478) 
7.72967267036438

>  <fragmenstein_outcome>  (1478) 
too moved

>  <fragmenstein_mode>  (1478) 
expansion

>  <fragmenstein_error>  (1478) 


$$$$
C10792-P80
     RDKit          3D

 44 45  0  0  0  0  0  0  0  0999 V2000
    1.6584    2.6742   25.0042 O   0  0  0  0  0  0  0  0  0  0  0  0
    1.2519    3.4524   24.1938 C   0  0  0  0  0  0  0  0  0  0  0  0
    2.0295    3.7135   22.8578 C   0  0  0  0  0  0  0  0  0  0  0  0
    3.3703    3.0856   22.7987 N   0  0  0  0  0  0  0  0  0  0  0  0
    3.3386    1.5241   22.2640 C   0  0  0  0  0  0  0  0  0  0  0  0
    4.6223   -0.0732   22.3066 C   0  0  0  0  0  0  0  0  0  0  0  0
    4.5165   -0.1000   24.3377 C   0  0  0  0  0  0  0  0  0  0  0  0
    4.3093   -1.4798   24.6256 C   0  0  0  0  0  0  0  0  0  0  0  0
    5.2879   -1.5419   23.5017 C   0  0  0  0  0  0  0  0  0  0  0  0
    5.6614   -1.6376   21.8179 N   0  0  0  0  0  0  0  0  0  0  0  0
    7.3425   -1.5940   20.9511 C   0  0  0  0  0  0  0  0  0  0  0  0
    7.9636   -0.6707   20.5070 O   0  0  0  0  0  0  0  0  0  0  0  0
    8.5979   -3.4041   20.9106 C   0  0  0  0  0  0  0  0  0  0  0  0
   10.8288   -3.3575   21.2051 C   0  0  0  0  0  0  0  0  0  0  0  0
   11.7901   -3.6247   22.4399 C   0  0  0  0  0  0  0  0  0  0  0  0
   12.8765   -4.4496   22.1982 N   0  0  0  0  0  0  0  0  0  0  0  0
   12.8940   -4.5843   20.9100 C   0  0  0  0  0  0  0  0  0  0  0  0
   12.2345   -3.5022   20.3987 N   0  0  0  0  0  0  0  0  0  0  0  0
    0.0267    4.2119   24.1524 N   0  0  0  0  0  0  0  0  0  0  0  0
   -1.0527    4.3417   25.1284 C   0  0  0  0  0  0  0  0  0  0  0  0
   -0.6555    4.8333   26.5267 C   0  0  0  0  0  0  0  0  0  0  0  0
    0.1321    3.9520   27.1759 F   0  0  0  0  0  0  0  0  0  0  0  0
   -0.0011    6.0142   26.4560 F   0  0  0  0  0  0  0  0  0  0  0  0
   -1.7600    5.0253   27.2820 F   0  0  0  0  0  0  0  0  0  0  0  0
    2.1835    4.7975   22.7927 H   0  0  0  0  0  0  0  0  0  0  0  0
    1.4131    3.4096   22.0050 H   0  0  0  0  0  0  0  0  0  0  0  0
    3.8490    3.5299   22.0029 H   0  0  0  0  0  0  0  0  0  0  0  0
    2.7938    1.4787   23.2096 H   0  0  0  0  0  0  0  0  0  0  0  0
    2.6730    1.5254   21.4030 H   0  0  0  0  0  0  0  0  0  0  0  0
    5.2985    0.5946   21.8255 H   0  0  0  0  0  0  0  0  0  0  0  0
    3.6490    0.4673   24.7598 H   0  0  0  0  0  0  0  0  0  0  0  0
    5.2392    0.1898   25.0799 H   0  0  0  0  0  0  0  0  0  0  0  0
    4.6947   -1.7574   25.6118 H   0  0  0  0  0  0  0  0  0  0  0  0
    3.3119   -1.8958   24.5052 H   0  0  0  0  0  0  0  0  0  0  0  0
    5.8196   -2.3422   23.9787 H   0  0  0  0  0  0  0  0  0  0  0  0
    4.5192   -2.2243   23.1642 H   0  0  0  0  0  0  0  0  0  0  0  0
    8.6321   -4.0177   20.0226 H   0  0  0  0  0  0  0  0  0  0  0  0
    7.9846   -4.0045   21.5961 H   0  0  0  0  0  0  0  0  0  0  0  0
   11.5855   -3.3853   23.4793 H   0  0  0  0  0  0  0  0  0  0  0  0
   13.5101   -5.2402   20.3156 H   0  0  0  0  0  0  0  0  0  0  0  0
   12.7792   -2.6681   20.4956 H   0  0  0  0  0  0  0  0  0  0  0  0
    0.0519    4.8377   23.3540 H   0  0  0  0  0  0  0  0  0  0  0  0
   -1.5116    3.3517   25.2207 H   0  0  0  0  0  0  0  0  0  0  0  0
   -1.7921    5.0213   24.6934 H   0  0  0  0  0  0  0  0  0  0  0  0
  1  2  2  0
  2  3  1  0
  3  4  1  0
  4  5  1  0
  5  6  1  0
  6  7  1  0
  7  8  1  0
  8  9  1  0
  9 10  1  0
 10 11  1  0
 11 12  2  0
 11 13  1  0
 13 14  1  0
 14 15  2  0
 15 16  1  0
 16 17  2  0
 17 18  1  0
  2 19  1  0
 19 20  1  0
 20 21  1  0
 21 22  1  0
 21 23  1  0
 21 24  1  0
 10  6  1  0
 18 14  1  0
  3 25  1  0
  3 26  1  0
  4 27  1  0
  5 28  1  0
  5 29  1  0
  6 30  1  0
  7 31  1  0
  7 32  1  0
  8 33  1  0
  8 34  1  0
  9 35  1  0
  9 36  1  0
 13 37  1  0
 13 38  1  0
 15 39  1  0
 17 40  1  0
 18 41  1  0
 19 42  1  0
 20 43  1  0
 20 44  1  0
M  END
>  <Energy>  (1479) 
1106.9454250496449

>  <compound_id>  (1479) 
10792

>  <target_id>  (1479) 
1

>  <reference_id>  (1479) 
80

>  <inspiration_ids>  (1479) 
[53, 80]

>  <energy_score>  (1479) 
949.421342110373

>  <distance_score>  (1479) 
5.5112062323414275

>  <path>  (1479) 
/opt/xchem-fragalysis-2/maxwin/BulkDock/SCRATCH/511013/C10792-P80/C10792-P80.minimised.mol

>  <scratch_subdir>  (1479) 
/opt/xchem-fragalysis-2/maxwin/BulkDock/SCRATCH/511013/C10792-P80

>  <fragmenstein_runtime>  (1479) 
11.612851619720459

>  <fragmenstein_outcome>  (1479) 
too moved

>  <fragmenstein_mode>  (1479) 
expansion

>  <fragmenstein_error>  (1479) 


$$$$
C10793-P53
     RDKit          3D

 35 37  0  0  0  0  0  0  0  0999 V2000
    3.0661    2.1258   22.8643 O   0  0  0  0  0  0  0  0  0  0  0  0
    4.0040    1.5914   23.4059 C   0  0  0  0  0  0  0  0  0  0  0  0
    5.0056    0.4746   22.3830 C   0  0  0  0  0  0  0  0  0  0  0  0
    5.1157   -0.6946   23.1393 F   0  0  0  0  0  0  0  0  0  0  0  0
    5.2291    0.2183   21.0251 C   0  0  0  0  0  0  0  0  0  0  0  0
    6.8477    0.1974   19.9567 C   0  0  0  0  0  0  0  0  0  0  0  0
    7.2990   -0.1453   18.6769 C   0  0  0  0  0  0  0  0  0  0  0  0
    8.4766    0.3708   18.2025 N   0  0  0  0  0  0  0  0  0  0  0  0
    8.5637    1.4667   18.8925 C   0  0  0  0  0  0  0  0  0  0  0  0
    7.7958    1.3803   20.0051 N   0  0  0  0  0  0  0  0  0  0  0  0
    4.4281    1.6136   24.8103 N   0  0  0  0  0  0  0  0  0  0  0  0
    3.8018    0.4740   25.5738 C   0  0  0  0  0  0  0  0  0  0  0  0
    4.4152    0.4035   26.9631 C   0  0  0  0  0  0  0  0  0  0  0  0
    4.4501    1.8591   27.2990 C   0  0  0  0  0  0  0  0  0  0  0  0
    3.8825    2.4083   26.0072 C   0  0  0  0  0  0  0  0  0  0  0  0
    4.0279    3.9255   25.9436 C   0  0  0  0  0  0  0  0  0  0  0  0
    5.1815    4.4641   25.5133 N   0  0  0  0  0  0  0  0  0  0  0  0
    5.2328    5.8108   25.4940 C   0  0  0  0  0  0  0  0  0  0  0  0
    4.2011    6.6289   25.8917 C   0  0  0  0  0  0  0  0  0  0  0  0
    3.0760    5.9853   26.3360 C   0  0  0  0  0  0  0  0  0  0  0  0
    2.9683    4.6470   26.3851 N   0  0  0  0  0  0  0  0  0  0  0  0
    4.4812    0.9102   20.8289 H   0  0  0  0  0  0  0  0  0  0  0  0
    6.6415   -0.6054   17.9659 H   0  0  0  0  0  0  0  0  0  0  0  0
    9.1893    2.3239   18.6742 H   0  0  0  0  0  0  0  0  0  0  0  0
    7.6403    2.1536   20.6299 H   0  0  0  0  0  0  0  0  0  0  0  0
    4.0330   -0.4606   25.0566 H   0  0  0  0  0  0  0  0  0  0  0  0
    2.7252    0.4889   25.6718 H   0  0  0  0  0  0  0  0  0  0  0  0
    3.8116   -0.1903   27.6553 H   0  0  0  0  0  0  0  0  0  0  0  0
    5.4271   -0.0150   26.9307 H   0  0  0  0  0  0  0  0  0  0  0  0
    3.8372    2.1153   28.1690 H   0  0  0  0  0  0  0  0  0  0  0  0
    5.4758    2.1959   27.4867 H   0  0  0  0  0  0  0  0  0  0  0  0
    2.7769    2.3410   25.9895 H   0  0  0  0  0  0  0  0  0  0  0  0
    6.1669    6.2301   25.1305 H   0  0  0  0  0  0  0  0  0  0  0  0
    4.2729    7.7064   25.8558 H   0  0  0  0  0  0  0  0  0  0  0  0
    2.2035    6.5367   26.6737 H   0  0  0  0  0  0  0  0  0  0  0  0
  1  2  2  0
  2  3  1  0
  3  4  1  0
  3  5  2  3
  5  6  1  0
  6  7  2  0
  7  8  1  0
  8  9  2  0
  9 10  1  0
  2 11  1  0
 11 12  1  0
 12 13  1  0
 13 14  1  0
 14 15  1  0
 15 16  1  0
 16 17  2  0
 17 18  1  0
 18 19  2  0
 19 20  1  0
 20 21  2  0
 10  6  1  0
 15 11  1  0
 21 16  1  0
  5 22  1  0
  7 23  1  0
  9 24  1  0
 10 25  1  0
 12 26  1  0
 12 27  1  0
 13 28  1  0
 13 29  1  0
 14 30  1  0
 14 31  1  0
 15 32  1  0
 18 33  1  0
 19 34  1  0
 20 35  1  0
M  END
>  <Energy>  (1480) 
293.21839815898596

>  <compound_id>  (1480) 
10793

>  <target_id>  (1480) 
1

>  <reference_id>  (1480) 
53

>  <inspiration_ids>  (1480) 
[53, 80]

>  <energy_score>  (1480) 
198.0921955731302

>  <distance_score>  (1480) 
5.8913609228331945

>  <path>  (1480) 
/opt/xchem-fragalysis-2/maxwin/BulkDock/SCRATCH/511013/C10793-P53/C10793-P53.minimised.mol

>  <scratch_subdir>  (1480) 
/opt/xchem-fragalysis-2/maxwin/BulkDock/SCRATCH/511013/C10793-P53

>  <fragmenstein_runtime>  (1480) 
5.236632823944092

>  <fragmenstein_outcome>  (1480) 
too moved

>  <fragmenstein_mode>  (1480) 
expansion

>  <fragmenstein_error>  (1480) 


$$$$
C10793-P80
     RDKit          3D

 35 37  0  0  0  0  0  0  0  0999 V2000
    4.6515   -0.9899   22.3992 O   0  0  0  0  0  0  0  0  0  0  0  0
    4.9292    0.0933   21.8753 C   0  0  0  0  0  0  0  0  0  0  0  0
    6.5663   -0.1807   20.6171 C   0  0  0  0  0  0  0  0  0  0  0  0
    7.0210   -1.3896   20.9202 F   0  0  0  0  0  0  0  0  0  0  0  0
    7.3555   -0.0969   19.3400 C   0  0  0  0  0  0  0  0  0  0  0  0
    8.0316    0.3651   17.7926 C   0  0  0  0  0  0  0  0  0  0  0  0
    8.4308   -0.1752   16.5483 C   0  0  0  0  0  0  0  0  0  0  0  0
    9.2337    0.6849   15.8358 N   0  0  0  0  0  0  0  0  0  0  0  0
    9.1098    1.8400   16.4279 C   0  0  0  0  0  0  0  0  0  0  0  0
    8.2929    1.7372   17.5065 N   0  0  0  0  0  0  0  0  0  0  0  0
    3.9871    1.6246   22.4485 N   0  0  0  0  0  0  0  0  0  0  0  0
    2.6643    1.9398   21.6202 C   0  0  0  0  0  0  0  0  0  0  0  0
    1.9541    3.2356   22.0151 C   0  0  0  0  0  0  0  0  0  0  0  0
    1.7977    3.0826   23.4678 C   0  0  0  0  0  0  0  0  0  0  0  0
    2.8098    1.8781   23.7395 C   0  0  0  0  0  0  0  0  0  0  0  0
    2.8514    1.6063   25.3029 C   0  0  0  0  0  0  0  0  0  0  0  0
    3.8941    1.0054   25.8926 N   0  0  0  0  0  0  0  0  0  0  0  0
    3.8974    0.9320   27.2365 C   0  0  0  0  0  0  0  0  0  0  0  0
    2.9243    1.4807   28.0331 C   0  0  0  0  0  0  0  0  0  0  0  0
    1.9048    2.1027   27.3650 C   0  0  0  0  0  0  0  0  0  0  0  0
    1.8420    2.1821   26.0232 N   0  0  0  0  0  0  0  0  0  0  0  0
    8.0853   -0.8592   19.4629 H   0  0  0  0  0  0  0  0  0  0  0  0
    8.2780   -1.1577   16.1231 H   0  0  0  0  0  0  0  0  0  0  0  0
    9.5521    2.7742   16.1094 H   0  0  0  0  0  0  0  0  0  0  0  0
    7.9327    2.4928   18.0693 H   0  0  0  0  0  0  0  0  0  0  0  0
    2.8587    2.2422   20.6036 H   0  0  0  0  0  0  0  0  0  0  0  0
    2.0611    1.1275   21.4244 H   0  0  0  0  0  0  0  0  0  0  0  0
    2.5803    4.1054   21.7831 H   0  0  0  0  0  0  0  0  0  0  0  0
    0.9989    3.3630   21.4968 H   0  0  0  0  0  0  0  0  0  0  0  0
    2.0678    4.0160   23.9857 H   0  0  0  0  0  0  0  0  0  0  0  0
    0.7654    2.8790   23.7777 H   0  0  0  0  0  0  0  0  0  0  0  0
    3.4757    2.7131   24.0234 H   0  0  0  0  0  0  0  0  0  0  0  0
    4.7446    0.3996   27.6607 H   0  0  0  0  0  0  0  0  0  0  0  0
    2.9594    1.4141   29.1103 H   0  0  0  0  0  0  0  0  0  0  0  0
    1.0840    2.5715   27.8990 H   0  0  0  0  0  0  0  0  0  0  0  0
  1  2  2  0
  2  3  1  0
  3  4  1  0
  3  5  2  3
  5  6  1  0
  6  7  2  0
  7  8  1  0
  8  9  2  0
  9 10  1  0
  2 11  1  0
 11 12  1  0
 12 13  1  0
 13 14  1  0
 14 15  1  0
 15 16  1  0
 16 17  2  0
 17 18  1  0
 18 19  2  0
 19 20  1  0
 20 21  2  0
 10  6  1  0
 15 11  1  0
 21 16  1  0
  5 22  1  0
  7 23  1  0
  9 24  1  0
 10 25  1  0
 12 26  1  0
 12 27  1  0
 13 28  1  0
 13 29  1  0
 14 30  1  0
 14 31  1  0
 15 32  1  0
 18 33  1  0
 19 34  1  0
 20 35  1  0
M  END
>  <Energy>  (1481) 
523.32649897771978

>  <compound_id>  (1481) 
10793

>  <target_id>  (1481) 
1

>  <reference_id>  (1481) 
80

>  <inspiration_ids>  (1481) 
[53, 80]

>  <energy_score>  (1481) 
428.2002963918654

>  <distance_score>  (1481) 
5.4007863349419925

>  <path>  (1481) 
/opt/xchem-fragalysis-2/maxwin/BulkDock/SCRATCH/511013/C10793-P80/C10793-P80.minimised.mol

>  <scratch_subdir>  (1481) 
/opt/xchem-fragalysis-2/maxwin/BulkDock/SCRATCH/511013/C10793-P80

>  <fragmenstein_runtime>  (1481) 
7.819137334823608

>  <fragmenstein_outcome>  (1481) 
too moved

>  <fragmenstein_mode>  (1481) 
expansion

>  <fragmenstein_error>  (1481) 


$$$$
C10794-P53
     RDKit          3D

 48 49  0  0  0  0  0  0  0  0999 V2000
    3.6806    0.0530   25.6246 C   0  0  0  0  0  0  0  0  0  0  0  0
    3.5004    1.5463   25.4725 C   0  0  0  0  0  0  0  0  0  0  0  0
    2.7989    2.2288   24.2253 C   0  0  0  0  0  0  0  0  0  0  0  0
    1.3677    2.9405   24.3742 C   0  0  0  0  0  0  0  0  0  0  0  0
    0.7609    3.0375   25.7695 C   0  0  0  0  0  0  0  0  0  0  0  0
    0.4233    1.8111   26.2309 F   0  0  0  0  0  0  0  0  0  0  0  0
   -0.3986    3.7375   25.6821 F   0  0  0  0  0  0  0  0  0  0  0  0
    3.7206    2.6868   23.0286 C   0  0  0  0  0  0  0  0  0  0  0  0
    3.5001    3.8601   22.7579 O   0  0  0  0  0  0  0  0  0  0  0  0
    4.8354    1.6821   22.4517 N   0  0  0  0  0  0  0  0  0  0  0  0
    6.3465    2.0152   21.2106 C   0  0  0  0  0  0  0  0  0  0  0  0
    7.8673    2.6997   20.5127 C   0  0  0  0  0  0  0  0  0  0  0  0
    7.9940    4.2397   20.8552 C   0  0  0  0  0  0  0  0  0  0  0  0
    9.1031    4.6716   19.9798 C   0  0  0  0  0  0  0  0  0  0  0  0
    9.3638    3.3638   19.3079 C   0  0  0  0  0  0  0  0  0  0  0  0
    8.0972    2.6368   18.9322 N   0  0  0  0  0  0  0  0  0  0  0  0
    8.4025    1.5211   18.0670 C   0  0  0  0  0  0  0  0  0  0  0  0
    8.6483    0.3694   18.3314 O   0  0  0  0  0  0  0  0  0  0  0  0
    8.5006    2.0302   16.5826 C   0  0  0  0  0  0  0  0  0  0  0  0
    9.4638    1.2012   15.7804 C   0  0  0  0  0  0  0  0  0  0  0  0
    9.4362   -0.1091   15.3527 C   0  0  0  0  0  0  0  0  0  0  0  0
   10.6031   -0.4412   14.7182 N   0  0  0  0  0  0  0  0  0  0  0  0
   11.2782    0.6787   14.6259 C   0  0  0  0  0  0  0  0  0  0  0  0
   10.6247    1.7039   15.2468 N   0  0  0  0  0  0  0  0  0  0  0  0
    4.0927   -0.4287   24.7420 H   0  0  0  0  0  0  0  0  0  0  0  0
    2.7540   -0.4248   25.9356 H   0  0  0  0  0  0  0  0  0  0  0  0
    4.3927   -0.1395   26.4368 H   0  0  0  0  0  0  0  0  0  0  0  0
    3.0247    1.8946   26.3982 H   0  0  0  0  0  0  0  0  0  0  0  0
    4.5266    1.9465   25.5201 H   0  0  0  0  0  0  0  0  0  0  0  0
    3.1736    3.1606   24.7322 H   0  0  0  0  0  0  0  0  0  0  0  0
    1.4419    3.9713   23.9957 H   0  0  0  0  0  0  0  0  0  0  0  0
    0.6051    2.5226   23.7250 H   0  0  0  0  0  0  0  0  0  0  0  0
    1.4134    3.5365   26.4904 H   0  0  0  0  0  0  0  0  0  0  0  0
    4.6817    0.7493   22.8336 H   0  0  0  0  0  0  0  0  0  0  0  0
    5.4877    1.0116   20.8942 H   0  0  0  0  0  0  0  0  0  0  0  0
    6.1610    3.0890   20.9422 H   0  0  0  0  0  0  0  0  0  0  0  0
    8.6755    2.0817   20.9205 H   0  0  0  0  0  0  0  0  0  0  0  0
    7.0942    4.8022   20.5761 H   0  0  0  0  0  0  0  0  0  0  0  0
    8.2255    4.4672   21.8984 H   0  0  0  0  0  0  0  0  0  0  0  0
    9.9782    5.0398   20.5224 H   0  0  0  0  0  0  0  0  0  0  0  0
    8.7780    5.4421   19.2727 H   0  0  0  0  0  0  0  0  0  0  0  0
    9.8496    3.6189   18.3626 H   0  0  0  0  0  0  0  0  0  0  0  0
   10.1039    2.7408   19.8277 H   0  0  0  0  0  0  0  0  0  0  0  0
    8.8411    3.0715   16.5758 H   0  0  0  0  0  0  0  0  0  0  0  0
    7.5467    2.0409   16.0631 H   0  0  0  0  0  0  0  0  0  0  0  0
    8.6485   -0.8355   15.4936 H   0  0  0  0  0  0  0  0  0  0  0  0
   12.2374    0.8020   14.1424 H   0  0  0  0  0  0  0  0  0  0  0  0
   10.9615    2.6519   15.3432 H   0  0  0  0  0  0  0  0  0  0  0  0
  1  2  1  0
  2  3  1  0
  3  4  1  0
  4  5  1  0
  5  6  1  0
  5  7  1  0
  3  8  1  0
  8  9  2  0
  8 10  1  0
 10 11  1  0
 11 12  1  0
 12 13  1  0
 13 14  1  0
 14 15  1  0
 15 16  1  0
 16 17  1  0
 17 18  2  0
 17 19  1  0
 19 20  1  0
 20 21  2  0
 21 22  1  0
 22 23  2  0
 23 24  1  0
 16 12  1  0
 24 20  1  0
  1 25  1  0
  1 26  1  0
  1 27  1  0
  2 28  1  0
  2 29  1  0
  3 30  1  0
  4 31  1  0
  4 32  1  0
  5 33  1  0
 10 34  1  0
 11 35  1  0
 11 36  1  0
 12 37  1  0
 13 38  1  0
 13 39  1  0
 14 40  1  0
 14 41  1  0
 15 42  1  0
 15 43  1  0
 19 44  1  0
 19 45  1  0
 21 46  1  0
 23 47  1  0
 24 48  1  0
M  END
>  <Energy>  (1482) 
384.64539713258011

>  <compound_id>  (1482) 
10794

>  <target_id>  (1482) 
1

>  <reference_id>  (1482) 
53

>  <inspiration_ids>  (1482) 
[53, 80]

>  <energy_score>  (1482) 
326.8174438995343

>  <distance_score>  (1482) 
5.1051652253790625

>  <path>  (1482) 
/opt/xchem-fragalysis-2/maxwin/BulkDock/SCRATCH/511013/C10794-P53/C10794-P53.minimised.mol

>  <scratch_subdir>  (1482) 
/opt/xchem-fragalysis-2/maxwin/BulkDock/SCRATCH/511013/C10794-P53

>  <fragmenstein_runtime>  (1482) 
11.087899684906006

>  <fragmenstein_outcome>  (1482) 
too moved

>  <fragmenstein_mode>  (1482) 
expansion

>  <fragmenstein_error>  (1482) 


$$$$
C10794-P80
     RDKit          3D

 48 49  0  0  0  0  0  0  0  0999 V2000
    1.3230    3.1133   28.9380 C   0  0  0  0  0  0  0  0  0  0  0  0
    0.6492    3.9651   27.8705 C   0  0  0  0  0  0  0  0  0  0  0  0
    0.8626    3.4077   26.4504 C   0  0  0  0  0  0  0  0  0  0  0  0
   -0.1045    4.0734   25.4484 C   0  0  0  0  0  0  0  0  0  0  0  0
   -1.4722    3.3950   25.3533 C   0  0  0  0  0  0  0  0  0  0  0  0
   -1.8865    2.9423   26.5580 F   0  0  0  0  0  0  0  0  0  0  0  0
   -1.3940    2.3086   24.5364 F   0  0  0  0  0  0  0  0  0  0  0  0
    2.3610    3.4846   26.0134 C   0  0  0  0  0  0  0  0  0  0  0  0
    2.9649    2.4517   25.9733 O   0  0  0  0  0  0  0  0  0  0  0  0
    2.7805    4.8262   25.7221 N   0  0  0  0  0  0  0  0  0  0  0  0
    4.0409    5.3428   25.1947 C   0  0  0  0  0  0  0  0  0  0  0  0
    5.1404    5.7842   26.2398 C   0  0  0  0  0  0  0  0  0  0  0  0
    4.7896    5.6849   27.7156 C   0  0  0  0  0  0  0  0  0  0  0  0
    5.4696    4.4025   28.0403 C   0  0  0  0  0  0  0  0  0  0  0  0
    6.0897    4.0937   26.6956 C   0  0  0  0  0  0  0  0  0  0  0  0
    6.5960    5.3364   26.0043 N   0  0  0  0  0  0  0  0  0  0  0  0
    7.2909    4.9861   24.7834 C   0  0  0  0  0  0  0  0  0  0  0  0
    6.8811    4.8711   23.6570 O   0  0  0  0  0  0  0  0  0  0  0  0
    8.8047    4.8036   25.1027 C   0  0  0  0  0  0  0  0  0  0  0  0
    9.5491    3.8829   24.1603 C   0  0  0  0  0  0  0  0  0  0  0  0
    9.9162    4.0087   22.8358 C   0  0  0  0  0  0  0  0  0  0  0  0
   10.6518    2.9292   22.4166 N   0  0  0  0  0  0  0  0  0  0  0  0
   10.7485    2.1423   23.4571 C   0  0  0  0  0  0  0  0  0  0  0  0
   10.1087    2.6798   24.5384 N   0  0  0  0  0  0  0  0  0  0  0  0
    2.4080    3.0880   28.8047 H   0  0  0  0  0  0  0  0  0  0  0  0
    0.9478    2.0853   28.9127 H   0  0  0  0  0  0  0  0  0  0  0  0
    1.1169    3.5237   29.9317 H   0  0  0  0  0  0  0  0  0  0  0  0
   -0.4206    4.0139   28.1025 H   0  0  0  0  0  0  0  0  0  0  0  0
    1.0334    4.9891   27.9432 H   0  0  0  0  0  0  0  0  0  0  0  0
    0.6223    2.3347   26.4635 H   0  0  0  0  0  0  0  0  0  0  0  0
   -0.2573    5.1192   25.7421 H   0  0  0  0  0  0  0  0  0  0  0  0
    0.3386    4.0852   24.4455 H   0  0  0  0  0  0  0  0  0  0  0  0
   -2.2291    4.0692   24.9432 H   0  0  0  0  0  0  0  0  0  0  0  0
    2.0254    5.4636   25.9443 H   0  0  0  0  0  0  0  0  0  0  0  0
    3.7739    6.2106   24.5802 H   0  0  0  0  0  0  0  0  0  0  0  0
    4.4299    4.5871   24.5076 H   0  0  0  0  0  0  0  0  0  0  0  0
    5.2271    6.8634   26.0382 H   0  0  0  0  0  0  0  0  0  0  0  0
    5.2479    6.5056   28.2803 H   0  0  0  0  0  0  0  0  0  0  0  0
    3.7203    5.6884   27.9373 H   0  0  0  0  0  0  0  0  0  0  0  0
    6.2311    4.5454   28.8144 H   0  0  0  0  0  0  0  0  0  0  0  0
    4.7873    3.6129   28.3653 H   0  0  0  0  0  0  0  0  0  0  0  0
    6.9661    3.4574   26.8777 H   0  0  0  0  0  0  0  0  0  0  0  0
    5.4521    3.4787   26.0530 H   0  0  0  0  0  0  0  0  0  0  0  0
    8.9267    4.4424   26.1301 H   0  0  0  0  0  0  0  0  0  0  0  0
    9.2617    5.7997   25.0536 H   0  0  0  0  0  0  0  0  0  0  0  0
    9.6975    4.8317   22.1685 H   0  0  0  0  0  0  0  0  0  0  0  0
   11.2624    1.1897   23.4923 H   0  0  0  0  0  0  0  0  0  0  0  0
   10.0627    2.2572   25.4551 H   0  0  0  0  0  0  0  0  0  0  0  0
  1  2  1  0
  2  3  1  0
  3  4  1  0
  4  5  1  0
  5  6  1  0
  5  7  1  0
  3  8  1  0
  8  9  2  0
  8 10  1  0
 10 11  1  0
 11 12  1  0
 12 13  1  0
 13 14  1  0
 14 15  1  0
 15 16  1  0
 16 17  1  0
 17 18  2  0
 17 19  1  0
 19 20  1  0
 20 21  2  0
 21 22  1  0
 22 23  2  0
 23 24  1  0
 16 12  1  0
 24 20  1  0
  1 25  1  0
  1 26  1  0
  1 27  1  0
  2 28  1  0
  2 29  1  0
  3 30  1  0
  4 31  1  0
  4 32  1  0
  5 33  1  0
 10 34  1  0
 11 35  1  0
 11 36  1  0
 12 37  1  0
 13 38  1  0
 13 39  1  0
 14 40  1  0
 14 41  1  0
 15 42  1  0
 15 43  1  0
 19 44  1  0
 19 45  1  0
 21 46  1  0
 23 47  1  0
 24 48  1  0
M  END
>  <Energy>  (1483) 
88.596945645574223

>  <compound_id>  (1483) 
10794

>  <target_id>  (1483) 
1

>  <reference_id>  (1483) 
80

>  <inspiration_ids>  (1483) 
[53, 80]

>  <energy_score>  (1483) 
30.768992412523005

>  <distance_score>  (1483) 
7.0714845604864465

>  <path>  (1483) 
/opt/xchem-fragalysis-2/maxwin/BulkDock/SCRATCH/511013/C10794-P80/C10794-P80.minimised.mol

>  <scratch_subdir>  (1483) 
/opt/xchem-fragalysis-2/maxwin/BulkDock/SCRATCH/511013/C10794-P80

>  <fragmenstein_runtime>  (1483) 
14.876519203186035

>  <fragmenstein_outcome>  (1483) 
too moved

>  <fragmenstein_mode>  (1483) 
expansion

>  <fragmenstein_error>  (1483) 


$$$$
C10795-P53
     RDKit          3D

 45 46  0  0  0  0  0  0  0  0999 V2000
    0.4203    2.8793   25.1617 C   0  0  0  0  0  0  0  0  0  0  0  0
    1.6098    3.2440   24.2844 C   0  0  0  0  0  0  0  0  0  0  0  0
    2.8171    2.2392   24.1321 C   0  0  0  0  0  0  0  0  0  0  0  0
    3.5120    1.8912   25.4651 C   0  0  0  0  0  0  0  0  0  0  0  0
    3.5458    2.9707   26.5314 C   0  0  0  0  0  0  0  0  0  0  0  0
    2.3101    3.2456   27.0082 F   0  0  0  0  0  0  0  0  0  0  0  0
    4.0674    4.1134   26.0313 F   0  0  0  0  0  0  0  0  0  0  0  0
    3.7567    2.7223   23.0368 C   0  0  0  0  0  0  0  0  0  0  0  0
    3.6006    3.9206   22.8469 O   0  0  0  0  0  0  0  0  0  0  0  0
    4.8486    1.6893   22.3981 N   0  0  0  0  0  0  0  0  0  0  0  0
    6.3918    2.0378   21.1980 C   0  0  0  0  0  0  0  0  0  0  0  0
    8.0497    2.5847   20.5234 C   0  0  0  0  0  0  0  0  0  0  0  0
    8.3627    4.0771   20.7332 C   0  0  0  0  0  0  0  0  0  0  0  0
    7.6757    4.5932   19.5314 C   0  0  0  0  0  0  0  0  0  0  0  0
    7.7393    3.3394   18.6823 C   0  0  0  0  0  0  0  0  0  0  0  0
    8.6134    2.2066   19.0890 N   0  0  0  0  0  0  0  0  0  0  0  0
    8.3687    1.0768   18.2699 C   0  0  0  0  0  0  0  0  0  0  0  0
    7.6104    0.1692   18.4123 O   0  0  0  0  0  0  0  0  0  0  0  0
    9.1094    1.1045   16.9999 C   0  0  0  0  0  0  0  0  0  0  0  0
    9.0272    0.2448   15.9118 C   0  0  0  0  0  0  0  0  0  0  0  0
    9.8618    0.6182   14.8921 N   0  0  0  0  0  0  0  0  0  0  0  0
   10.3559    1.7667   15.2722 C   0  0  0  0  0  0  0  0  0  0  0  0
    9.9019    2.1122   16.5113 N   0  0  0  0  0  0  0  0  0  0  0  0
    0.0538    3.7723   25.6807 H   0  0  0  0  0  0  0  0  0  0  0  0
    0.6487    2.1252   25.9172 H   0  0  0  0  0  0  0  0  0  0  0  0
   -0.4140    2.5277   24.5492 H   0  0  0  0  0  0  0  0  0  0  0  0
    1.2144    3.4812   23.2869 H   0  0  0  0  0  0  0  0  0  0  0  0
    2.0027    4.1996   24.6576 H   0  0  0  0  0  0  0  0  0  0  0  0
    2.5372    1.3282   23.7143 H   0  0  0  0  0  0  0  0  0  0  0  0
    4.5440    1.5892   25.2624 H   0  0  0  0  0  0  0  0  0  0  0  0
    3.0151    1.0209   25.9088 H   0  0  0  0  0  0  0  0  0  0  0  0
    4.1647    2.6574   27.3770 H   0  0  0  0  0  0  0  0  0  0  0  0
    4.6428    0.7378   22.7106 H   0  0  0  0  0  0  0  0  0  0  0  0
    6.2159    3.1093   20.9215 H   0  0  0  0  0  0  0  0  0  0  0  0
    5.5158    1.0290   20.8954 H   0  0  0  0  0  0  0  0  0  0  0  0
    8.8272    2.0489   21.0728 H   0  0  0  0  0  0  0  0  0  0  0  0
    8.0138    4.5385   21.6569 H   0  0  0  0  0  0  0  0  0  0  0  0
    9.4445    4.2483   20.6641 H   0  0  0  0  0  0  0  0  0  0  0  0
    6.6427    4.8953   19.7280 H   0  0  0  0  0  0  0  0  0  0  0  0
    8.1976    5.4506   19.0938 H   0  0  0  0  0  0  0  0  0  0  0  0
    8.3755    3.7420   17.8717 H   0  0  0  0  0  0  0  0  0  0  0  0
    6.9405    3.0944   17.9914 H   0  0  0  0  0  0  0  0  0  0  0  0
    8.3965   -0.6241   15.7990 H   0  0  0  0  0  0  0  0  0  0  0  0
   11.0472    2.3814   14.7126 H   0  0  0  0  0  0  0  0  0  0  0  0
   10.2335    2.8990   17.0570 H   0  0  0  0  0  0  0  0  0  0  0  0
  1  2  1  0
  2  3  1  0
  3  4  1  0
  4  5  1  0
  5  6  1  0
  5  7  1  0
  3  8  1  0
  8  9  2  0
  8 10  1  0
 10 11  1  0
 11 12  1  0
 12 13  1  0
 13 14  1  0
 14 15  1  0
 15 16  1  0
 16 17  1  0
 17 18  2  0
 17 19  1  0
 19 20  2  0
 20 21  1  0
 21 22  2  0
 22 23  1  0
 16 12  1  0
 23 19  1  0
  1 24  1  0
  1 25  1  0
  1 26  1  0
  2 27  1  0
  2 28  1  0
  3 29  1  0
  4 30  1  0
  4 31  1  0
  5 32  1  0
 10 33  1  0
 11 34  1  0
 11 35  1  0
 12 36  1  0
 13 37  1  0
 13 38  1  0
 14 39  1  0
 14 40  1  0
 15 41  1  0
 15 42  1  0
 20 43  1  0
 22 44  1  0
 23 45  1  0
M  END
>  <Energy>  (1484) 
326.04963099666935

>  <compound_id>  (1484) 
10795

>  <target_id>  (1484) 
1

>  <reference_id>  (1484) 
53

>  <inspiration_ids>  (1484) 
[53, 80]

>  <energy_score>  (1484) 
306.2397541957915

>  <distance_score>  (1484) 
5.464551207816797

>  <path>  (1484) 
/opt/xchem-fragalysis-2/maxwin/BulkDock/SCRATCH/511013/C10795-P53/C10795-P53.minimised.mol

>  <scratch_subdir>  (1484) 
/opt/xchem-fragalysis-2/maxwin/BulkDock/SCRATCH/511013/C10795-P53

>  <fragmenstein_runtime>  (1484) 
8.319087505340576

>  <fragmenstein_outcome>  (1484) 
too moved

>  <fragmenstein_mode>  (1484) 
expansion

>  <fragmenstein_error>  (1484) 


$$$$
C10795-P80
     RDKit          3D

 45 46  0  0  0  0  0  0  0  0999 V2000
    2.2899    4.3640   28.3336 C   0  0  0  0  0  0  0  0  0  0  0  0
    2.4671    2.9567   27.7734 C   0  0  0  0  0  0  0  0  0  0  0  0
    2.0521    2.8343   26.2909 C   0  0  0  0  0  0  0  0  0  0  0  0
    0.5863    2.3873   26.1468 C   0  0  0  0  0  0  0  0  0  0  0  0
   -0.5001    3.1651   26.8648 C   0  0  0  0  0  0  0  0  0  0  0  0
   -1.7006    2.6778   26.4416 F   0  0  0  0  0  0  0  0  0  0  0  0
   -0.4456    2.9278   28.1969 F   0  0  0  0  0  0  0  0  0  0  0  0
    3.0409    1.8717   25.4968 C   0  0  0  0  0  0  0  0  0  0  0  0
    3.7944    1.1637   26.1017 O   0  0  0  0  0  0  0  0  0  0  0  0
    2.9028    2.1072   24.0690 N   0  0  0  0  0  0  0  0  0  0  0  0
    3.7911    1.5772   22.7971 C   0  0  0  0  0  0  0  0  0  0  0  0
    5.7897    0.8392   22.6577 C   0  0  0  0  0  0  0  0  0  0  0  0
    5.9403   -0.9235   23.9742 C   0  0  0  0  0  0  0  0  0  0  0  0
    8.1629   -0.9962   24.4010 C   0  0  0  0  0  0  0  0  0  0  0  0
    8.6988    0.6753   22.9130 C   0  0  0  0  0  0  0  0  0  0  0  0
    7.2300    1.2011   21.2915 N   0  0  0  0  0  0  0  0  0  0  0  0
    7.5788    0.1474   19.6683 C   0  0  0  0  0  0  0  0  0  0  0  0
    7.0163   -0.8011   19.5937 O   0  0  0  0  0  0  0  0  0  0  0  0
    8.4846    0.4402   17.9357 C   0  0  0  0  0  0  0  0  0  0  0  0
    8.9022    1.6349   17.2659 C   0  0  0  0  0  0  0  0  0  0  0  0
    9.5508    1.3758   16.0827 N   0  0  0  0  0  0  0  0  0  0  0  0
    9.1425    0.1769   15.7709 C   0  0  0  0  0  0  0  0  0  0  0  0
    8.2423   -0.2368   16.7068 N   0  0  0  0  0  0  0  0  0  0  0  0
    1.2510    4.6977   28.3001 H   0  0  0  0  0  0  0  0  0  0  0  0
    2.6159    4.3937   29.3785 H   0  0  0  0  0  0  0  0  0  0  0  0
    2.8968    5.0832   27.7738 H   0  0  0  0  0  0  0  0  0  0  0  0
    1.9225    2.2350   28.3927 H   0  0  0  0  0  0  0  0  0  0  0  0
    3.5296    2.7141   27.8946 H   0  0  0  0  0  0  0  0  0  0  0  0
    2.1627    3.8243   25.8271 H   0  0  0  0  0  0  0  0  0  0  0  0
    0.3261    2.3844   25.0842 H   0  0  0  0  0  0  0  0  0  0  0  0
    0.5100    1.3608   26.5193 H   0  0  0  0  0  0  0  0  0  0  0  0
   -0.4669    4.2405   26.6733 H   0  0  0  0  0  0  0  0  0  0  0  0
    2.2155    2.8333   23.9186 H   0  0  0  0  0  0  0  0  0  0  0  0
    3.6809    2.6865   22.5933 H   0  0  0  0  0  0  0  0  0  0  0  0
    3.1780    1.3404   21.9038 H   0  0  0  0  0  0  0  0  0  0  0  0
    5.1599    0.3374   21.7892 H   0  0  0  0  0  0  0  0  0  0  0  0
    5.4886   -1.7884   23.4361 H   0  0  0  0  0  0  0  0  0  0  0  0
    5.2664   -0.7629   24.8616 H   0  0  0  0  0  0  0  0  0  0  0  0
    8.7472   -1.8673   24.8168 H   0  0  0  0  0  0  0  0  0  0  0  0
    8.2449   -0.6726   25.5570 H   0  0  0  0  0  0  0  0  0  0  0  0
    9.0788    1.6465   23.3298 H   0  0  0  0  0  0  0  0  0  0  0  0
    9.6206    0.2704   22.4713 H   0  0  0  0  0  0  0  0  0  0  0  0
    8.8249    2.6589   17.5946 H   0  0  0  0  0  0  0  0  0  0  0  0
    9.3250   -0.3508   14.8420 H   0  0  0  0  0  0  0  0  0  0  0  0
    7.3832   -0.7136   16.4732 H   0  0  0  0  0  0  0  0  0  0  0  0
  1  2  1  0
  2  3  1  0
  3  4  1  0
  4  5  1  0
  5  6  1  0
  5  7  1  0
  3  8  1  0
  8  9  2  0
  8 10  1  0
 10 11  1  0
 11 12  1  0
 12 13  1  0
 13 14  1  0
 14 15  1  0
 15 16  1  0
 16 17  1  0
 17 18  2  0
 17 19  1  0
 19 20  2  0
 20 21  1  0
 21 22  2  0
 22 23  1  0
 16 12  1  0
 23 19  1  0
  1 24  1  0
  1 25  1  0
  1 26  1  0
  2 27  1  0
  2 28  1  0
  3 29  1  0
  4 30  1  0
  4 31  1  0
  5 32  1  0
 10 33  1  0
 11 34  1  0
 11 35  1  0
 12 36  1  0
 13 37  1  0
 13 38  1  0
 14 39  1  0
 14 40  1  0
 15 41  1  0
 15 42  1  0
 20 43  1  0
 22 44  1  0
 23 45  1  0
M  END
>  <Energy>  (1485) 
1159.9084423916202

>  <compound_id>  (1485) 
10795

>  <target_id>  (1485) 
1

>  <reference_id>  (1485) 
80

>  <inspiration_ids>  (1485) 
[53, 80]

>  <energy_score>  (1485) 
1140.098565590759

>  <distance_score>  (1485) 
4.5162848922877705

>  <path>  (1485) 
/opt/xchem-fragalysis-2/maxwin/BulkDock/SCRATCH/511013/C10795-P80/C10795-P80.minimised.mol

>  <scratch_subdir>  (1485) 
/opt/xchem-fragalysis-2/maxwin/BulkDock/SCRATCH/511013/C10795-P80

>  <fragmenstein_runtime>  (1485) 
8.223137617111206

>  <fragmenstein_outcome>  (1485) 
too moved

>  <fragmenstein_mode>  (1485) 
expansion

>  <fragmenstein_error>  (1485) 


$$$$
C10796-P53
     RDKit          3D

 43 44  0  0  0  0  0  0  0  0999 V2000
   -1.7346    0.8217   27.9210 C   0  0  0  0  0  0  0  0  0  0  0  0
   -0.8277   -0.0058   28.6512 O   0  0  0  0  0  0  0  0  0  0  0  0
   -1.3062   -0.5163   29.8183 C   0  0  0  0  0  0  0  0  0  0  0  0
   -2.3766   -0.2075   30.3326 O   0  0  0  0  0  0  0  0  0  0  0  0
   -0.3216   -1.4609   30.4753 C   0  0  0  0  0  0  0  0  0  0  0  0
    0.3477   -2.7016   29.3255 S   0  0  0  0  0  0  0  0  0  0  0  0
    1.6828   -1.7002   28.5809 C   0  0  0  0  0  0  0  0  0  0  0  0
    3.0404   -2.2180   29.0539 C   0  0  0  0  0  0  0  0  0  0  0  0
    3.3645   -2.1142   30.2091 O   0  0  0  0  0  0  0  0  0  0  0  0
    3.7489   -2.7555   27.9351 N   0  0  0  0  0  0  0  0  0  0  0  0
    3.4480   -4.2234   27.7820 C   0  0  0  0  0  0  0  0  0  0  0  0
    4.0453   -4.7567   26.5006 C   0  0  0  0  0  0  0  0  0  0  0  0
    5.3832   -4.0938   26.5708 C   0  0  0  0  0  0  0  0  0  0  0  0
    6.5568   -5.0543   26.7805 C   0  0  0  0  0  0  0  0  0  0  0  0
    7.0528   -5.6364   25.5603 N   0  0  0  0  0  0  0  0  0  0  0  0
    6.7542   -6.8779   24.9263 C   0  0  0  0  0  0  0  0  0  0  0  0
    5.9565   -7.7225   25.2025 O   0  0  0  0  0  0  0  0  0  0  0  0
    7.6313   -7.1002   23.7883 C   0  0  0  0  0  0  0  0  0  0  0  0
    8.9977   -6.9677   23.6330 C   0  0  0  0  0  0  0  0  0  0  0  0
    9.3687   -7.1548   22.3161 N   0  0  0  0  0  0  0  0  0  0  0  0
    8.2779   -7.5637   21.7116 C   0  0  0  0  0  0  0  0  0  0  0  0
    7.2156   -7.5807   22.5695 N   0  0  0  0  0  0  0  0  0  0  0  0
    5.1522   -3.2571   27.8178 C   0  0  0  0  0  0  0  0  0  0  0  0
   -1.1806    1.2857   27.1002 H   0  0  0  0  0  0  0  0  0  0  0  0
   -2.5307    0.2069   27.4939 H   0  0  0  0  0  0  0  0  0  0  0  0
   -2.1467    1.6153   28.5489 H   0  0  0  0  0  0  0  0  0  0  0  0
    0.4750   -0.8889   30.9598 H   0  0  0  0  0  0  0  0  0  0  0  0
   -0.8610   -2.0099   31.2542 H   0  0  0  0  0  0  0  0  0  0  0  0
    1.6192   -0.6425   28.8527 H   0  0  0  0  0  0  0  0  0  0  0  0
    1.5958   -1.7617   27.4949 H   0  0  0  0  0  0  0  0  0  0  0  0
    2.3579   -4.3256   27.7109 H   0  0  0  0  0  0  0  0  0  0  0  0
    3.7093   -4.8034   28.6849 H   0  0  0  0  0  0  0  0  0  0  0  0
    4.0648   -5.8494   26.4727 H   0  0  0  0  0  0  0  0  0  0  0  0
    3.4905   -4.3991   25.6299 H   0  0  0  0  0  0  0  0  0  0  0  0
    5.5473   -3.4570   25.6932 H   0  0  0  0  0  0  0  0  0  0  0  0
    7.4046   -4.5186   27.2218 H   0  0  0  0  0  0  0  0  0  0  0  0
    6.2819   -5.8697   27.4591 H   0  0  0  0  0  0  0  0  0  0  0  0
    7.7402   -5.1304   24.9954 H   0  0  0  0  0  0  0  0  0  0  0  0
    9.7234   -6.6697   24.3811 H   0  0  0  0  0  0  0  0  0  0  0  0
    8.1933   -7.8648   20.6774 H   0  0  0  0  0  0  0  0  0  0  0  0
    6.2626   -7.8436   22.3547 H   0  0  0  0  0  0  0  0  0  0  0  0
    5.4855   -3.7222   28.7623 H   0  0  0  0  0  0  0  0  0  0  0  0
    5.7700   -2.3506   27.7518 H   0  0  0  0  0  0  0  0  0  0  0  0
  1  2  1  0
  2  3  1  0
  3  4  2  0
  3  5  1  0
  5  6  1  0
  6  7  1  0
  7  8  1  0
  8  9  2  0
  8 10  1  0
 10 11  1  0
 11 12  1  0
 12 13  1  0
 13 14  1  0
 14 15  1  0
 15 16  1  0
 16 17  2  0
 16 18  1  0
 18 19  2  0
 19 20  1  0
 20 21  2  0
 21 22  1  0
 13 23  1  0
 23 10  1  0
 22 18  1  0
  1 24  1  0
  1 25  1  0
  1 26  1  0
  5 27  1  0
  5 28  1  0
  7 29  1  0
  7 30  1  0
 11 31  1  0
 11 32  1  0
 12 33  1  0
 12 34  1  0
 13 35  1  0
 14 36  1  0
 14 37  1  0
 15 38  1  0
 19 39  1  0
 21 40  1  0
 22 41  1  0
 23 42  1  0
 23 43  1  0
M  END
>  <Energy>  (1486) 
65.355583638732114

>  <compound_id>  (1486) 
10796

>  <target_id>  (1486) 
1

>  <reference_id>  (1486) 
53

>  <inspiration_ids>  (1486) 
[53, 80]

>  <energy_score>  (1486) 
31.396259663803022

>  <distance_score>  (1486) 
8.81451046643133

>  <path>  (1486) 
/opt/xchem-fragalysis-2/maxwin/BulkDock/SCRATCH/511013/C10796-P53/C10796-P53.minimised.mol

>  <scratch_subdir>  (1486) 
/opt/xchem-fragalysis-2/maxwin/BulkDock/SCRATCH/511013/C10796-P53

>  <fragmenstein_runtime>  (1486) 
16.413822412490845

>  <fragmenstein_outcome>  (1486) 
too moved

>  <fragmenstein_mode>  (1486) 
expansion

>  <fragmenstein_error>  (1486) 


$$$$
C10796-P80
     RDKit          3D

 43 44  0  0  0  0  0  0  0  0999 V2000
   -0.9073    5.1450   27.5516 C   0  0  0  0  0  0  0  0  0  0  0  0
   -1.5864    4.3836   26.5526 O   0  0  0  0  0  0  0  0  0  0  0  0
   -1.7156    5.0395   25.3637 C   0  0  0  0  0  0  0  0  0  0  0  0
   -1.2741    6.1570   25.1266 O   0  0  0  0  0  0  0  0  0  0  0  0
   -2.4102    4.1607   24.3480 C   0  0  0  0  0  0  0  0  0  0  0  0
   -1.1849    3.2547   23.3333 S   0  0  0  0  0  0  0  0  0  0  0  0
   -0.6192    4.6490   22.2997 C   0  0  0  0  0  0  0  0  0  0  0  0
    0.5827    4.4494   21.3548 C   0  0  0  0  0  0  0  0  0  0  0  0
    0.7712    5.3452   20.5658 O   0  0  0  0  0  0  0  0  0  0  0  0
    1.3452    3.2780   21.6217 N   0  0  0  0  0  0  0  0  0  0  0  0
    2.3159    3.5334   22.6674 C   0  0  0  0  0  0  0  0  0  0  0  0
    2.9994    2.2705   23.1731 C   0  0  0  0  0  0  0  0  0  0  0  0
    3.4416    1.3734   21.7994 C   0  0  0  0  0  0  0  0  0  0  0  0
    5.1557    0.1829   21.4606 C   0  0  0  0  0  0  0  0  0  0  0  0
    6.7510    0.0111   20.1706 N   0  0  0  0  0  0  0  0  0  0  0  0
    6.8140   -0.5014   18.6454 C   0  0  0  0  0  0  0  0  0  0  0  0
    5.9394   -1.0209   17.9460 O   0  0  0  0  0  0  0  0  0  0  0  0
    8.1986   -0.1752   17.6794 C   0  0  0  0  0  0  0  0  0  0  0  0
    8.4891   -0.6455   16.3358 C   0  0  0  0  0  0  0  0  0  0  0  0
    9.5410    0.0128   15.7643 N   0  0  0  0  0  0  0  0  0  0  0  0
    9.4959    1.1817   16.3353 C   0  0  0  0  0  0  0  0  0  0  0  0
    8.5580    1.1714   17.3169 N   0  0  0  0  0  0  0  0  0  0  0  0
    2.5786    2.7155   20.9308 C   0  0  0  0  0  0  0  0  0  0  0  0
   -1.4515    6.0699   27.7643 H   0  0  0  0  0  0  0  0  0  0  0  0
   -0.8610    4.5419   28.4617 H   0  0  0  0  0  0  0  0  0  0  0  0
    0.1172    5.3636   27.2341 H   0  0  0  0  0  0  0  0  0  0  0  0
   -3.0460    3.4390   24.8704 H   0  0  0  0  0  0  0  0  0  0  0  0
   -3.0685    4.7706   23.7218 H   0  0  0  0  0  0  0  0  0  0  0  0
   -1.4667    4.9715   21.6858 H   0  0  0  0  0  0  0  0  0  0  0  0
   -0.3311    5.4766   22.9531 H   0  0  0  0  0  0  0  0  0  0  0  0
    1.7641    3.9534   23.5222 H   0  0  0  0  0  0  0  0  0  0  0  0
    3.0159    4.3550   22.4225 H   0  0  0  0  0  0  0  0  0  0  0  0
    3.6510    2.8073   23.8389 H   0  0  0  0  0  0  0  0  0  0  0  0
    2.4304    1.7227   23.9196 H   0  0  0  0  0  0  0  0  0  0  0  0
    2.5983    0.8770   21.4351 H   0  0  0  0  0  0  0  0  0  0  0  0
    4.9138   -0.7870   21.9497 H   0  0  0  0  0  0  0  0  0  0  0  0
    5.7768    0.8827   21.9820 H   0  0  0  0  0  0  0  0  0  0  0  0
    7.6113    0.4551   20.4067 H   0  0  0  0  0  0  0  0  0  0  0  0
    8.0222   -1.4680   15.8029 H   0  0  0  0  0  0  0  0  0  0  0  0
   10.0560    2.0624   16.0504 H   0  0  0  0  0  0  0  0  0  0  0  0
    8.0834    1.9730   17.7080 H   0  0  0  0  0  0  0  0  0  0  0  0
    2.1356    2.3344   20.0117 H   0  0  0  0  0  0  0  0  0  0  0  0
    3.1696    3.5753   20.5576 H   0  0  0  0  0  0  0  0  0  0  0  0
  1  2  1  0
  2  3  1  0
  3  4  2  0
  3  5  1  0
  5  6  1  0
  6  7  1  0
  7  8  1  0
  8  9  2  0
  8 10  1  0
 10 11  1  0
 11 12  1  0
 12 13  1  0
 13 14  1  0
 14 15  1  0
 15 16  1  0
 16 17  2  0
 16 18  1  0
 18 19  2  0
 19 20  1  0
 20 21  2  0
 21 22  1  0
 13 23  1  0
 23 10  1  0
 22 18  1  0
  1 24  1  0
  1 25  1  0
  1 26  1  0
  5 27  1  0
  5 28  1  0
  7 29  1  0
  7 30  1  0
 11 31  1  0
 11 32  1  0
 12 33  1  0
 12 34  1  0
 13 35  1  0
 14 36  1  0
 14 37  1  0
 15 38  1  0
 19 39  1  0
 21 40  1  0
 22 41  1  0
 23 42  1  0
 23 43  1  0
M  END
>  <Energy>  (1487) 
436.48040124587789

>  <compound_id>  (1487) 
10796

>  <target_id>  (1487) 
1

>  <reference_id>  (1487) 
80

>  <inspiration_ids>  (1487) 
[53, 80]

>  <energy_score>  (1487) 
402.5210772709442

>  <distance_score>  (1487) 
6.017351751355692

>  <path>  (1487) 
/opt/xchem-fragalysis-2/maxwin/BulkDock/SCRATCH/511013/C10796-P80/C10796-P80.minimised.mol

>  <scratch_subdir>  (1487) 
/opt/xchem-fragalysis-2/maxwin/BulkDock/SCRATCH/511013/C10796-P80

>  <fragmenstein_runtime>  (1487) 
8.405580520629883

>  <fragmenstein_outcome>  (1487) 
too moved

>  <fragmenstein_mode>  (1487) 
expansion

>  <fragmenstein_error>  (1487) 


$$$$
C10797-P53
     RDKit          3D

 46 47  0  0  0  0  0  0  0  0999 V2000
    6.6901    3.9326   27.0316 C   0  0  0  0  0  0  0  0  0  0  0  0
    5.6535    3.2079   26.3698 O   0  0  0  0  0  0  0  0  0  0  0  0
    4.9393    2.3828   27.1974 C   0  0  0  0  0  0  0  0  0  0  0  0
    5.1282    2.2875   28.4034 O   0  0  0  0  0  0  0  0  0  0  0  0
    3.8858    1.6628   26.3804 C   0  0  0  0  0  0  0  0  0  0  0  0
    2.8044    0.5622   27.3549 S   0  0  0  0  0  0  0  0  0  0  0  0
    4.0077   -0.6104   28.0859 C   0  0  0  0  0  0  0  0  0  0  0  0
    4.9733   -1.2134   27.0613 C   0  0  0  0  0  0  0  0  0  0  0  0
    5.8467   -0.5290   26.5930 O   0  0  0  0  0  0  0  0  0  0  0  0
    4.6135   -2.5778   26.7951 N   0  0  0  0  0  0  0  0  0  0  0  0
    5.3544   -3.5013   27.7367 C   0  0  0  0  0  0  0  0  0  0  0  0
    5.5339   -4.9550   27.3789 C   0  0  0  0  0  0  0  0  0  0  0  0
    6.1384   -4.6579   26.0626 C   0  0  0  0  0  0  0  0  0  0  0  0
    6.2719   -5.8785   25.0947 C   0  0  0  0  0  0  0  0  0  0  0  0
    6.0163   -5.5723   23.5498 C   0  0  0  0  0  0  0  0  0  0  0  0
    7.1117   -5.8204   22.6614 N   0  0  0  0  0  0  0  0  0  0  0  0
    7.8694   -4.7576   21.2207 C   0  0  0  0  0  0  0  0  0  0  0  0
    7.4941   -3.7338   20.7393 O   0  0  0  0  0  0  0  0  0  0  0  0
    9.7420   -5.2592   20.4473 C   0  0  0  0  0  0  0  0  0  0  0  0
   11.0256   -6.0388   20.5322 C   0  0  0  0  0  0  0  0  0  0  0  0
   11.6311   -6.5290   21.6211 N   0  0  0  0  0  0  0  0  0  0  0  0
   12.0551   -5.3385   21.9171 C   0  0  0  0  0  0  0  0  0  0  0  0
   11.1807   -4.4796   21.2515 N   0  0  0  0  0  0  0  0  0  0  0  0
    5.1397   -3.5547   25.7640 C   0  0  0  0  0  0  0  0  0  0  0  0
    7.4223    3.2442   27.4649 H   0  0  0  0  0  0  0  0  0  0  0  0
    6.2699    4.5892   27.7998 H   0  0  0  0  0  0  0  0  0  0  0  0
    7.1976    4.5529   26.2878 H   0  0  0  0  0  0  0  0  0  0  0  0
    3.2333    2.4254   25.9418 H   0  0  0  0  0  0  0  0  0  0  0  0
    4.3459    1.1076   25.5605 H   0  0  0  0  0  0  0  0  0  0  0  0
    3.4260   -1.4008   28.5715 H   0  0  0  0  0  0  0  0  0  0  0  0
    4.5893   -0.1263   28.8753 H   0  0  0  0  0  0  0  0  0  0  0  0
    4.7938   -3.4495   28.6808 H   0  0  0  0  0  0  0  0  0  0  0  0
    6.3277   -3.0387   27.9802 H   0  0  0  0  0  0  0  0  0  0  0  0
    6.2066   -5.4816   28.0609 H   0  0  0  0  0  0  0  0  0  0  0  0
    4.5782   -5.4887   27.3199 H   0  0  0  0  0  0  0  0  0  0  0  0
    7.1401   -4.2257   26.1907 H   0  0  0  0  0  0  0  0  0  0  0  0
    5.5342   -6.6304   25.4089 H   0  0  0  0  0  0  0  0  0  0  0  0
    7.2524   -6.3470   25.2401 H   0  0  0  0  0  0  0  0  0  0  0  0
    6.0682   -4.5050   23.6631 H   0  0  0  0  0  0  0  0  0  0  0  0
    5.2957   -6.3763   23.4006 H   0  0  0  0  0  0  0  0  0  0  0  0
    7.5919   -6.6750   22.7988 H   0  0  0  0  0  0  0  0  0  0  0  0
   11.7723   -5.7552   19.7379 H   0  0  0  0  0  0  0  0  0  0  0  0
   12.8038   -5.0092   22.6252 H   0  0  0  0  0  0  0  0  0  0  0  0
   11.0823   -3.5194   21.5276 H   0  0  0  0  0  0  0  0  0  0  0  0
    4.2223   -3.9996   25.3526 H   0  0  0  0  0  0  0  0  0  0  0  0
    5.5492   -2.9067   24.9798 H   0  0  0  0  0  0  0  0  0  0  0  0
  1  2  1  0
  2  3  1  0
  3  4  2  0
  3  5  1  0
  5  6  1  0
  6  7  1  0
  7  8  1  0
  8  9  2  0
  8 10  1  0
 10 11  1  0
 11 12  1  0
 12 13  1  0
 13 14  1  0
 14 15  1  0
 15 16  1  0
 16 17  1  0
 17 18  2  0
 17 19  1  0
 19 20  2  0
 20 21  1  0
 21 22  2  0
 22 23  1  0
 13 24  1  0
 24 10  1  0
 23 19  1  0
  1 25  1  0
  1 26  1  0
  1 27  1  0
  5 28  1  0
  5 29  1  0
  7 30  1  0
  7 31  1  0
 11 32  1  0
 11 33  1  0
 12 34  1  0
 12 35  1  0
 13 36  1  0
 14 37  1  0
 14 38  1  0
 15 39  1  0
 15 40  1  0
 16 41  1  0
 20 42  1  0
 22 43  1  0
 23 44  1  0
 24 45  1  0
 24 46  1  0
M  END
>  <Energy>  (1488) 
490.22525417016902

>  <compound_id>  (1488) 
10797

>  <target_id>  (1488) 
1

>  <reference_id>  (1488) 
53

>  <inspiration_ids>  (1488) 
[53, 80]

>  <energy_score>  (1488) 
423.7349041560759

>  <distance_score>  (1488) 
7.691756036859579

>  <path>  (1488) 
/opt/xchem-fragalysis-2/maxwin/BulkDock/SCRATCH/511013/C10797-P53/C10797-P53.minimised.mol

>  <scratch_subdir>  (1488) 
/opt/xchem-fragalysis-2/maxwin/BulkDock/SCRATCH/511013/C10797-P53

>  <fragmenstein_runtime>  (1488) 
11.276702165603638

>  <fragmenstein_outcome>  (1488) 
too moved

>  <fragmenstein_mode>  (1488) 
expansion

>  <fragmenstein_error>  (1488) 


$$$$
C10797-P80
     RDKit          3D

 46 47  0  0  0  0  0  0  0  0999 V2000
    2.8576    4.6085   24.9161 C   0  0  0  0  0  0  0  0  0  0  0  0
    4.1347    4.2378   25.4523 O   0  0  0  0  0  0  0  0  0  0  0  0
    4.3587    4.1303   26.7943 C   0  0  0  0  0  0  0  0  0  0  0  0
    5.5104    4.0287   27.2027 O   0  0  0  0  0  0  0  0  0  0  0  0
    3.1194    4.1643   27.6761 C   0  0  0  0  0  0  0  0  0  0  0  0
    3.4265    3.6250   29.3891 S   0  0  0  0  0  0  0  0  0  0  0  0
    2.6189    1.9872   29.3912 C   0  0  0  0  0  0  0  0  0  0  0  0
    3.4986    0.8207   28.9131 C   0  0  0  0  0  0  0  0  0  0  0  0
    3.5851   -0.1658   29.5996 O   0  0  0  0  0  0  0  0  0  0  0  0
    4.0671    1.1159   27.6366 N   0  0  0  0  0  0  0  0  0  0  0  0
    3.1303    0.7041   26.5441 C   0  0  0  0  0  0  0  0  0  0  0  0
    3.1271   -0.7651   26.2515 C   0  0  0  0  0  0  0  0  0  0  0  0
    4.5652   -0.9204   26.0731 C   0  0  0  0  0  0  0  0  0  0  0  0
    5.0797   -1.4344   24.6772 C   0  0  0  0  0  0  0  0  0  0  0  0
    4.8514   -1.3127   22.9784 C   0  0  0  0  0  0  0  0  0  0  0  0
    5.3503   -0.2358   21.4634 N   0  0  0  0  0  0  0  0  0  0  0  0
    6.8825   -0.2864   20.3815 C   0  0  0  0  0  0  0  0  0  0  0  0
    7.7043   -1.1218   20.5124 O   0  0  0  0  0  0  0  0  0  0  0  0
    7.2922    0.6802   19.1099 C   0  0  0  0  0  0  0  0  0  0  0  0
    7.5827    2.0778   18.4381 C   0  0  0  0  0  0  0  0  0  0  0  0
    8.4362    2.1236   17.3059 N   0  0  0  0  0  0  0  0  0  0  0  0
    8.6912    0.8970   16.9910 C   0  0  0  0  0  0  0  0  0  0  0  0
    7.9604    0.0214   17.7863 N   0  0  0  0  0  0  0  0  0  0  0  0
    5.0521    0.3335   26.7831 C   0  0  0  0  0  0  0  0  0  0  0  0
    3.0021    4.8696   23.8640 H   0  0  0  0  0  0  0  0  0  0  0  0
    2.4510    5.4822   25.4322 H   0  0  0  0  0  0  0  0  0  0  0  0
    2.1710    3.7592   24.9680 H   0  0  0  0  0  0  0  0  0  0  0  0
    2.3285    3.5457   27.2484 H   0  0  0  0  0  0  0  0  0  0  0  0
    2.7745    5.2012   27.7266 H   0  0  0  0  0  0  0  0  0  0  0  0
    1.6786    2.0097   28.8332 H   0  0  0  0  0  0  0  0  0  0  0  0
    2.3569    1.7823   30.4357 H   0  0  0  0  0  0  0  0  0  0  0  0
    3.2868    1.3295   25.6548 H   0  0  0  0  0  0  0  0  0  0  0  0
    2.1190    0.9781   26.8729 H   0  0  0  0  0  0  0  0  0  0  0  0
    2.7332   -1.3511   27.0888 H   0  0  0  0  0  0  0  0  0  0  0  0
    2.6479   -1.0768   25.3448 H   0  0  0  0  0  0  0  0  0  0  0  0
    4.8457   -1.7411   26.7548 H   0  0  0  0  0  0  0  0  0  0  0  0
    6.0599   -1.7830   24.9320 H   0  0  0  0  0  0  0  0  0  0  0  0
    4.5565   -2.4067   24.7538 H   0  0  0  0  0  0  0  0  0  0  0  0
    5.4075   -2.1593   22.6271 H   0  0  0  0  0  0  0  0  0  0  0  0
    3.8902   -1.8199   23.0673 H   0  0  0  0  0  0  0  0  0  0  0  0
    4.8238    0.5872   21.2540 H   0  0  0  0  0  0  0  0  0  0  0  0
    7.2008    3.0640   18.6422 H   0  0  0  0  0  0  0  0  0  0  0  0
    9.2613    0.5517   16.1381 H   0  0  0  0  0  0  0  0  0  0  0  0
    7.1855   -0.3316   17.2625 H   0  0  0  0  0  0  0  0  0  0  0  0
    5.5951    1.0558   26.1913 H   0  0  0  0  0  0  0  0  0  0  0  0
    5.8129    0.0086   27.5098 H   0  0  0  0  0  0  0  0  0  0  0  0
  1  2  1  0
  2  3  1  0
  3  4  2  0
  3  5  1  0
  5  6  1  0
  6  7  1  0
  7  8  1  0
  8  9  2  0
  8 10  1  0
 10 11  1  0
 11 12  1  0
 12 13  1  0
 13 14  1  0
 14 15  1  0
 15 16  1  0
 16 17  1  0
 17 18  2  0
 17 19  1  0
 19 20  2  0
 20 21  1  0
 21 22  2  0
 22 23  1  0
 13 24  1  0
 24 10  1  0
 23 19  1  0
  1 25  1  0
  1 26  1  0
  1 27  1  0
  5 28  1  0
  5 29  1  0
  7 30  1  0
  7 31  1  0
 11 32  1  0
 11 33  1  0
 12 34  1  0
 12 35  1  0
 13 36  1  0
 14 37  1  0
 14 38  1  0
 15 39  1  0
 15 40  1  0
 16 41  1  0
 20 42  1  0
 22 43  1  0
 23 44  1  0
 24 45  1  0
 24 46  1  0
M  END
>  <Energy>  (1489) 
406.34594924875455

>  <compound_id>  (1489) 
10797

>  <target_id>  (1489) 
1

>  <reference_id>  (1489) 
80

>  <inspiration_ids>  (1489) 
[53, 80]

>  <energy_score>  (1489) 
339.8555992346535

>  <distance_score>  (1489) 
5.860520406153237

>  <path>  (1489) 
/opt/xchem-fragalysis-2/maxwin/BulkDock/SCRATCH/511013/C10797-P80/C10797-P80.minimised.mol

>  <scratch_subdir>  (1489) 
/opt/xchem-fragalysis-2/maxwin/BulkDock/SCRATCH/511013/C10797-P80

>  <fragmenstein_runtime>  (1489) 
10.186598062515259

>  <fragmenstein_outcome>  (1489) 
too moved

>  <fragmenstein_mode>  (1489) 
expansion

>  <fragmenstein_error>  (1489) 


$$$$
C10798-P53
     RDKit          3D

 43 44  0  0  0  0  0  0  0  0999 V2000
    9.9450    9.4275   17.6530 C   0  0  0  0  0  0  0  0  0  0  0  0
    9.8731    8.0435   17.9938 O   0  0  0  0  0  0  0  0  0  0  0  0
    9.8896    7.8019   19.3367 C   0  0  0  0  0  0  0  0  0  0  0  0
    9.9920    8.6639   20.2019 O   0  0  0  0  0  0  0  0  0  0  0  0
    9.7632    6.3233   19.6185 C   0  0  0  0  0  0  0  0  0  0  0  0
    8.0115    5.8190   19.5553 S   0  0  0  0  0  0  0  0  0  0  0  0
    8.1735    4.1367   20.2493 C   0  0  0  0  0  0  0  0  0  0  0  0
    9.2224    3.3157   19.5029 C   0  0  0  0  0  0  0  0  0  0  0  0
   10.2842    3.1035   20.0308 O   0  0  0  0  0  0  0  0  0  0  0  0
    8.7578    3.0014   18.1857 N   0  0  0  0  0  0  0  0  0  0  0  0
    9.4585    2.4259   17.0352 C   0  0  0  0  0  0  0  0  0  0  0  0
    8.6367    1.7769   15.9788 C   0  0  0  0  0  0  0  0  0  0  0  0
    8.2862    0.6776   16.8964 C   0  0  0  0  0  0  0  0  0  0  0  0
    8.0287    1.5269   18.1728 C   0  0  0  0  0  0  0  0  0  0  0  0
    7.7916    0.7240   19.5397 C   0  0  0  0  0  0  0  0  0  0  0  0
    6.9830   -0.5795   20.1115 N   0  0  0  0  0  0  0  0  0  0  0  0
    5.5486   -0.6944   21.2356 C   0  0  0  0  0  0  0  0  0  0  0  0
    4.9094    0.2486   21.6641 O   0  0  0  0  0  0  0  0  0  0  0  0
    5.1584   -2.3324   21.8618 C   0  0  0  0  0  0  0  0  0  0  0  0
    5.4238   -3.6509   21.5128 C   0  0  0  0  0  0  0  0  0  0  0  0
    4.9132   -4.5216   22.4505 N   0  0  0  0  0  0  0  0  0  0  0  0
    4.4917   -3.7735   23.4428 C   0  0  0  0  0  0  0  0  0  0  0  0
    4.6436   -2.4538   23.1641 N   0  0  0  0  0  0  0  0  0  0  0  0
   10.8921    9.8568   17.9940 H   0  0  0  0  0  0  0  0  0  0  0  0
    9.8996    9.5110   16.5637 H   0  0  0  0  0  0  0  0  0  0  0  0
    9.0961    9.9730   18.0770 H   0  0  0  0  0  0  0  0  0  0  0  0
   10.3622    5.7711   18.8876 H   0  0  0  0  0  0  0  0  0  0  0  0
   10.1767    6.1319   20.6139 H   0  0  0  0  0  0  0  0  0  0  0  0
    7.2022    3.6529   20.2274 H   0  0  0  0  0  0  0  0  0  0  0  0
    8.4829    4.2455   21.2912 H   0  0  0  0  0  0  0  0  0  0  0  0
    9.9825    3.2745   16.5785 H   0  0  0  0  0  0  0  0  0  0  0  0
   10.2056    1.7267   17.3801 H   0  0  0  0  0  0  0  0  0  0  0  0
    9.2146    1.4467   15.1125 H   0  0  0  0  0  0  0  0  0  0  0  0
    7.7952    2.4011   15.6677 H   0  0  0  0  0  0  0  0  0  0  0  0
    9.1483    0.0312   16.9852 H   0  0  0  0  0  0  0  0  0  0  0  0
    7.5058    0.0324   16.5016 H   0  0  0  0  0  0  0  0  0  0  0  0
    7.1174    2.0868   18.1260 H   0  0  0  0  0  0  0  0  0  0  0  0
    8.7898    0.3532   19.7325 H   0  0  0  0  0  0  0  0  0  0  0  0
    7.6793    1.5116   20.2806 H   0  0  0  0  0  0  0  0  0  0  0  0
    7.2652   -1.4875   19.8483 H   0  0  0  0  0  0  0  0  0  0  0  0
    5.8973   -4.0204   20.6157 H   0  0  0  0  0  0  0  0  0  0  0  0
    4.0900   -4.1356   24.3785 H   0  0  0  0  0  0  0  0  0  0  0  0
    4.3942   -1.6480   23.7271 H   0  0  0  0  0  0  0  0  0  0  0  0
  1  2  1  0
  2  3  1  0
  3  4  2  0
  3  5  1  0
  5  6  1  0
  6  7  1  0
  7  8  1  0
  8  9  2  0
  8 10  1  0
 10 11  1  0
 11 12  1  0
 12 13  1  0
 13 14  1  0
 14 15  1  0
 15 16  1  0
 16 17  1  0
 17 18  2  0
 17 19  1  0
 19 20  2  0
 20 21  1  0
 21 22  2  0
 22 23  1  0
 14 10  1  0
 23 19  1  0
  1 24  1  0
  1 25  1  0
  1 26  1  0
  5 27  1  0
  5 28  1  0
  7 29  1  0
  7 30  1  0
 11 31  1  0
 11 32  1  0
 12 33  1  0
 12 34  1  0
 13 35  1  0
 13 36  1  0
 14 37  1  0
 15 38  1  0
 15 39  1  0
 16 40  1  0
 20 41  1  0
 22 42  1  0
 23 43  1  0
M  END
>  <Energy>  (1490) 
228.87680897241231

>  <compound_id>  (1490) 
10798

>  <target_id>  (1490) 
1

>  <reference_id>  (1490) 
53

>  <inspiration_ids>  (1490) 
[53, 80]

>  <energy_score>  (1490) 
151.37880099189897

>  <distance_score>  (1490) 
8.733396568848224

>  <path>  (1490) 
/opt/xchem-fragalysis-2/maxwin/BulkDock/SCRATCH/511013/C10798-P53/C10798-P53.minimised.mol

>  <scratch_subdir>  (1490) 
/opt/xchem-fragalysis-2/maxwin/BulkDock/SCRATCH/511013/C10798-P53

>  <fragmenstein_runtime>  (1490) 
10.536359071731567

>  <fragmenstein_outcome>  (1490) 
too moved

>  <fragmenstein_mode>  (1490) 
expansion

>  <fragmenstein_error>  (1490) 


$$$$
C10798-P80
     RDKit          3D

 43 44  0  0  0  0  0  0  0  0999 V2000
   16.0808   -1.9525   13.6782 C   0  0  0  0  0  0  0  0  0  0  0  0
   14.7776   -2.0368   14.2528 O   0  0  0  0  0  0  0  0  0  0  0  0
   13.7988   -1.4507   13.5020 C   0  0  0  0  0  0  0  0  0  0  0  0
   13.9892   -0.8747   12.4371 O   0  0  0  0  0  0  0  0  0  0  0  0
   12.4535   -1.5932   14.1835 C   0  0  0  0  0  0  0  0  0  0  0  0
   12.3550   -0.4010   15.5466 S   0  0  0  0  0  0  0  0  0  0  0  0
   11.2901   -1.3645   16.7817 C   0  0  0  0  0  0  0  0  0  0  0  0
    9.7930   -1.0583   16.3282 C   0  0  0  0  0  0  0  0  0  0  0  0
    9.5196   -1.7257   15.3780 O   0  0  0  0  0  0  0  0  0  0  0  0
    8.9184    0.1703   17.0872 N   0  0  0  0  0  0  0  0  0  0  0  0
    7.7975    0.6910   16.6848 C   0  0  0  0  0  0  0  0  0  0  0  0
    7.7180    2.1517   16.6067 C   0  0  0  0  0  0  0  0  0  0  0  0
    7.8945    1.9914   18.0494 C   0  0  0  0  0  0  0  0  0  0  0  0
    7.5437    0.1071   18.6459 C   0  0  0  0  0  0  0  0  0  0  0  0
    6.6411   -0.0048   20.6344 C   0  0  0  0  0  0  0  0  0  0  0  0
    4.8733    0.1814   21.8997 N   0  0  0  0  0  0  0  0  0  0  0  0
    3.8607    1.7289   22.7292 C   0  0  0  0  0  0  0  0  0  0  0  0
    4.0163    2.9892   22.5796 O   0  0  0  0  0  0  0  0  0  0  0  0
    2.7802    1.5125   23.8676 C   0  0  0  0  0  0  0  0  0  0  0  0
    3.0478    1.0695   25.1990 C   0  0  0  0  0  0  0  0  0  0  0  0
    2.3365    1.7598   26.1619 N   0  0  0  0  0  0  0  0  0  0  0  0
    1.7345    2.7250   25.5167 C   0  0  0  0  0  0  0  0  0  0  0  0
    1.9989    2.6660   24.1818 N   0  0  0  0  0  0  0  0  0  0  0  0
   16.4252   -0.9138   13.6782 H   0  0  0  0  0  0  0  0  0  0  0  0
   16.7624   -2.5447   14.2949 H   0  0  0  0  0  0  0  0  0  0  0  0
   16.0895   -2.3617   12.6632 H   0  0  0  0  0  0  0  0  0  0  0  0
   11.6806   -1.3604   13.4554 H   0  0  0  0  0  0  0  0  0  0  0  0
   12.3232   -2.6265   14.5151 H   0  0  0  0  0  0  0  0  0  0  0  0
   11.7888   -0.8729   17.5762 H   0  0  0  0  0  0  0  0  0  0  0  0
   11.5565   -2.4215   16.7003 H   0  0  0  0  0  0  0  0  0  0  0  0
    7.1022   -0.1443   16.4316 H   0  0  0  0  0  0  0  0  0  0  0  0
    8.2741    0.6669   15.6878 H   0  0  0  0  0  0  0  0  0  0  0  0
    8.5480    2.6707   16.1098 H   0  0  0  0  0  0  0  0  0  0  0  0
    6.7795    2.6264   16.3150 H   0  0  0  0  0  0  0  0  0  0  0  0
    7.2751    2.7694   18.4822 H   0  0  0  0  0  0  0  0  0  0  0  0
    8.9544    2.2241   18.0211 H   0  0  0  0  0  0  0  0  0  0  0  0
    7.3506    1.0462   19.2142 H   0  0  0  0  0  0  0  0  0  0  0  0
    7.0025   -1.0081   20.8289 H   0  0  0  0  0  0  0  0  0  0  0  0
    7.3241    0.8376   21.0024 H   0  0  0  0  0  0  0  0  0  0  0  0
    4.5533   -0.6870   22.2934 H   0  0  0  0  0  0  0  0  0  0  0  0
    3.7397    0.2814   25.4823 H   0  0  0  0  0  0  0  0  0  0  0  0
    1.1471    3.5182   25.9611 H   0  0  0  0  0  0  0  0  0  0  0  0
    1.8945    3.4326   23.5308 H   0  0  0  0  0  0  0  0  0  0  0  0
  1  2  1  0
  2  3  1  0
  3  4  2  0
  3  5  1  0
  5  6  1  0
  6  7  1  0
  7  8  1  0
  8  9  2  0
  8 10  1  0
 10 11  1  0
 11 12  1  0
 12 13  1  0
 13 14  1  0
 14 15  1  0
 15 16  1  0
 16 17  1  0
 17 18  2  0
 17 19  1  0
 19 20  2  0
 20 21  1  0
 21 22  2  0
 22 23  1  0
 14 10  1  0
 23 19  1  0
  1 24  1  0
  1 25  1  0
  1 26  1  0
  5 27  1  0
  5 28  1  0
  7 29  1  0
  7 30  1  0
 11 31  1  0
 11 32  1  0
 12 33  1  0
 12 34  1  0
 13 35  1  0
 13 36  1  0
 14 37  1  0
 15 38  1  0
 15 39  1  0
 16 40  1  0
 20 41  1  0
 22 42  1  0
 23 43  1  0
M  END
>  <Energy>  (1491) 
1040.9900330526552

>  <compound_id>  (1491) 
10798

>  <target_id>  (1491) 
1

>  <reference_id>  (1491) 
80

>  <inspiration_ids>  (1491) 
[53, 80]

>  <energy_score>  (1491) 
963.4920250721468

>  <distance_score>  (1491) 
6.1249880035699915

>  <path>  (1491) 
/opt/xchem-fragalysis-2/maxwin/BulkDock/SCRATCH/511013/C10798-P80/C10798-P80.minimised.mol

>  <scratch_subdir>  (1491) 
/opt/xchem-fragalysis-2/maxwin/BulkDock/SCRATCH/511013/C10798-P80

>  <fragmenstein_runtime>  (1491) 
10.602312088012695

>  <fragmenstein_outcome>  (1491) 
too moved

>  <fragmenstein_mode>  (1491) 
expansion

>  <fragmenstein_error>  (1491) 


$$$$
C36035-P45
     RDKit          3D

 43 47  0  0  0  0  0  0  0  0999 V2000
  -11.4041  -28.4819   29.1011 O   0  0  0  0  0  0  0  0  0  0  0  0
  -10.4491  -27.7874   28.9165 C   0  0  0  0  0  0  0  0  0  0  0  0
   -9.4768  -27.2438   29.8484 N   0  0  0  0  0  0  0  0  0  0  0  0
   -9.2986  -27.4576   31.3181 C   0  0  0  0  0  0  0  0  0  0  0  0
   -8.7330  -26.1066   32.0489 C   0  0  0  0  0  0  0  0  0  0  0  0
   -9.4579  -24.6196   32.9848 C   0  0  0  0  0  0  0  0  0  0  0  0
  -10.6362  -23.5842   32.7277 C   0  0  0  0  0  0  0  0  0  0  0  0
  -11.1327  -23.8867   31.3909 N   0  0  0  0  0  0  0  0  0  0  0  0
  -11.6608  -23.2067   30.3506 C   0  0  0  0  0  0  0  0  0  0  0  0
  -11.1444  -22.0515   30.0047 N   0  0  0  0  0  0  0  0  0  0  0  0
  -11.0008  -21.9352   28.6787 C   0  0  0  0  0  0  0  0  0  0  0  0
  -11.5868  -22.6707   27.7020 C   0  0  0  0  0  0  0  0  0  0  0  0
  -12.2031  -23.7534   28.1782 C   0  0  0  0  0  0  0  0  0  0  0  0
  -12.2478  -24.0381   29.4728 N   0  0  0  0  0  0  0  0  0  0  0  0
  -10.2965  -24.8973   30.8351 C   0  0  0  0  0  0  0  0  0  0  0  0
   -9.9762  -25.5514   32.1058 C   0  0  0  0  0  0  0  0  0  0  0  0
   -9.9717  -27.3907   27.5346 C   0  0  0  0  0  0  0  0  0  0  0  0
  -10.4907  -26.1863   26.9441 C   0  0  0  0  0  0  0  0  0  0  0  0
   -9.6576  -25.2054   26.5644 C   0  0  0  0  0  0  0  0  0  0  0  0
   -8.2568  -25.3803   26.7164 C   0  0  0  0  0  0  0  0  0  0  0  0
   -7.2544  -24.5303   26.7454 N   0  0  0  0  0  0  0  0  0  0  0  0
   -6.1300  -25.3085   26.8696 C   0  0  0  0  0  0  0  0  0  0  0  0
   -6.4538  -26.6480   26.8969 C   0  0  0  0  0  0  0  0  0  0  0  0
   -7.8227  -26.6893   26.8960 N   0  0  0  0  0  0  0  0  0  0  0  0
   -8.6883  -27.7289   27.2545 C   0  0  0  0  0  0  0  0  0  0  0  0
   -8.8509  -26.6293   29.3509 H   0  0  0  0  0  0  0  0  0  0  0  0
  -10.2133  -27.8941   31.7378 H   0  0  0  0  0  0  0  0  0  0  0  0
   -8.5258  -28.2227   31.4159 H   0  0  0  0  0  0  0  0  0  0  0  0
   -7.9517  -26.3731   32.7384 H   0  0  0  0  0  0  0  0  0  0  0  0
   -8.5751  -24.0423   33.1608 H   0  0  0  0  0  0  0  0  0  0  0  0
  -11.4159  -23.7947   33.4698 H   0  0  0  0  0  0  0  0  0  0  0  0
  -10.3934  -22.5407   32.8564 H   0  0  0  0  0  0  0  0  0  0  0  0
  -10.2044  -21.2911   28.3804 H   0  0  0  0  0  0  0  0  0  0  0  0
  -11.5052  -22.4637   26.6528 H   0  0  0  0  0  0  0  0  0  0  0  0
  -12.6461  -24.4736   27.5179 H   0  0  0  0  0  0  0  0  0  0  0  0
   -9.3996  -24.5809   30.3046 H   0  0  0  0  0  0  0  0  0  0  0  0
  -10.7942  -25.5447   30.1124 H   0  0  0  0  0  0  0  0  0  0  0  0
  -10.6955  -26.1422   32.6476 H   0  0  0  0  0  0  0  0  0  0  0  0
  -11.5612  -26.1411   26.7970 H   0  0  0  0  0  0  0  0  0  0  0  0
  -10.0372  -24.3142   26.0974 H   0  0  0  0  0  0  0  0  0  0  0  0
   -5.1396  -24.8732   26.9051 H   0  0  0  0  0  0  0  0  0  0  0  0
   -5.8417  -27.5368   26.9601 H   0  0  0  0  0  0  0  0  0  0  0  0
   -8.2061  -28.6214   27.6175 H   0  0  0  0  0  0  0  0  0  0  0  0
  1  2  2  0
  2  3  1  0
  3  4  1  0
  4  5  1  0
  5  6  1  0
  6  7  1  0
  7  8  1  0
  8  9  1  0
  9 10  2  0
 10 11  1  0
 11 12  2  0
 12 13  1  0
 13 14  2  0
  8 15  1  0
 15 16  1  0
  2 17  1  0
 17 18  1  0
 18 19  2  0
 19 20  1  0
 20 21  2  0
 21 22  1  0
 22 23  2  0
 23 24  1  0
 24 25  1  0
 16  5  1  0
 25 17  2  0
 16  6  1  0
 24 20  1  0
 14  9  1  0
  3 26  1  0
  4 27  1  0
  4 28  1  0
  5 29  1  0
  6 30  1  0
  7 31  1  0
  7 32  1  0
 11 33  1  0
 12 34  1  0
 13 35  1  0
 15 36  1  0
 15 37  1  0
 16 38  1  0
 18 39  1  0
 19 40  1  0
 22 41  1  0
 23 42  1  0
 25 43  1  0
M  END
>  <Energy>  (1492) 
148.75080497977947

>  <compound_id>  (1492) 
36035

>  <target_id>  (1492) 
1

>  <reference_id>  (1492) 
45

>  <inspiration_ids>  (1492) 
[45, 54]

>  <energy_score>  (1492) 
121.26645881509523

>  <distance_score>  (1492) 
2.4006810418312035

>  <path>  (1492) 
/opt/xchem-fragalysis-2/maxwin/BulkDock/SCRATCH/511013/C36035-P45/C36035-P45.minimised.mol

>  <scratch_subdir>  (1492) 
/opt/xchem-fragalysis-2/maxwin/BulkDock/SCRATCH/511013/C36035-P45

>  <fragmenstein_runtime>  (1492) 
9.300790309906006

>  <fragmenstein_outcome>  (1492) 
too moved

>  <fragmenstein_mode>  (1492) 
expansion

>  <fragmenstein_error>  (1492) 


$$$$
C36035-P54
     RDKit          3D

 43 47  0  0  0  0  0  0  0  0999 V2000
  -11.6040  -26.3467   31.9102 O   0  0  0  0  0  0  0  0  0  0  0  0
  -10.7503  -25.7471   31.3778 C   0  0  0  0  0  0  0  0  0  0  0  0
   -9.5160  -25.0042   31.9723 N   0  0  0  0  0  0  0  0  0  0  0  0
   -9.0422  -24.9315   33.2991 C   0  0  0  0  0  0  0  0  0  0  0  0
   -9.3164  -23.7418   34.1392 C   0  0  0  0  0  0  0  0  0  0  0  0
  -10.0876  -22.3907   34.1136 C   0  0  0  0  0  0  0  0  0  0  0  0
  -10.8940  -21.7648   33.0191 C   0  0  0  0  0  0  0  0  0  0  0  0
  -10.2255  -22.2784   31.8622 N   0  0  0  0  0  0  0  0  0  0  0  0
  -10.8946  -22.0509   30.6989 C   0  0  0  0  0  0  0  0  0  0  0  0
  -10.5239  -21.0931   29.8603 N   0  0  0  0  0  0  0  0  0  0  0  0
  -11.0769  -21.0648   28.6405 C   0  0  0  0  0  0  0  0  0  0  0  0
  -11.9466  -22.0114   28.1912 C   0  0  0  0  0  0  0  0  0  0  0  0
  -12.3260  -22.9345   29.1182 C   0  0  0  0  0  0  0  0  0  0  0  0
  -11.8248  -22.9544   30.3612 N   0  0  0  0  0  0  0  0  0  0  0  0
   -8.8147  -22.1224   32.1472 C   0  0  0  0  0  0  0  0  0  0  0  0
   -8.7050  -22.5001   33.5948 C   0  0  0  0  0  0  0  0  0  0  0  0
  -10.6671  -25.6922   29.8723 C   0  0  0  0  0  0  0  0  0  0  0  0
  -11.1737  -26.8168   29.0474 C   0  0  0  0  0  0  0  0  0  0  0  0
  -10.9996  -26.8439   27.7103 C   0  0  0  0  0  0  0  0  0  0  0  0
  -10.4740  -25.6884   27.0834 C   0  0  0  0  0  0  0  0  0  0  0  0
  -10.6275  -25.2181   25.8745 N   0  0  0  0  0  0  0  0  0  0  0  0
  -10.3040  -23.8871   25.9590 C   0  0  0  0  0  0  0  0  0  0  0  0
   -9.7239  -23.6082   27.1642 C   0  0  0  0  0  0  0  0  0  0  0  0
   -9.9101  -24.7329   27.8905 N   0  0  0  0  0  0  0  0  0  0  0  0
   -9.9062  -24.7736   29.2460 C   0  0  0  0  0  0  0  0  0  0  0  0
   -8.9407  -24.6638   31.2293 H   0  0  0  0  0  0  0  0  0  0  0  0
   -7.9485  -24.9827   33.2067 H   0  0  0  0  0  0  0  0  0  0  0  0
   -9.2788  -25.8840   33.7572 H   0  0  0  0  0  0  0  0  0  0  0  0
   -9.0454  -24.0169   35.1424 H   0  0  0  0  0  0  0  0  0  0  0  0
  -10.2595  -21.8942   35.0584 H   0  0  0  0  0  0  0  0  0  0  0  0
  -11.9405  -21.9571   33.0495 H   0  0  0  0  0  0  0  0  0  0  0  0
  -10.7934  -20.6703   33.0768 H   0  0  0  0  0  0  0  0  0  0  0  0
  -10.7363  -20.2649   27.9978 H   0  0  0  0  0  0  0  0  0  0  0  0
  -12.2891  -22.0323   27.1666 H   0  0  0  0  0  0  0  0  0  0  0  0
  -13.0246  -23.7291   28.8775 H   0  0  0  0  0  0  0  0  0  0  0  0
   -8.1597  -22.6837   31.4848 H   0  0  0  0  0  0  0  0  0  0  0  0
   -8.5485  -21.0817   32.2130 H   0  0  0  0  0  0  0  0  0  0  0  0
   -7.8665  -22.0661   34.1103 H   0  0  0  0  0  0  0  0  0  0  0  0
  -11.6370  -27.6499   29.5697 H   0  0  0  0  0  0  0  0  0  0  0  0
  -11.3584  -27.6622   27.1004 H   0  0  0  0  0  0  0  0  0  0  0  0
  -10.4239  -23.2106   25.1226 H   0  0  0  0  0  0  0  0  0  0  0  0
   -9.3035  -22.7058   27.5777 H   0  0  0  0  0  0  0  0  0  0  0  0
   -9.4307  -23.9196   29.6973 H   0  0  0  0  0  0  0  0  0  0  0  0
  1  2  2  0
  2  3  1  0
  3  4  1  0
  4  5  1  0
  5  6  1  0
  6  7  1  0
  7  8  1  0
  8  9  1  0
  9 10  2  0
 10 11  1  0
 11 12  2  0
 12 13  1  0
 13 14  2  0
  8 15  1  0
 15 16  1  0
  2 17  1  0
 17 18  1  0
 18 19  2  0
 19 20  1  0
 20 21  2  0
 21 22  1  0
 22 23  2  0
 23 24  1  0
 24 25  1  0
 16  5  1  0
 25 17  2  0
 16  6  1  0
 24 20  1  0
 14  9  1  0
  3 26  1  0
  4 27  1  0
  4 28  1  0
  5 29  1  0
  6 30  1  0
  7 31  1  0
  7 32  1  0
 11 33  1  0
 12 34  1  0
 13 35  1  0
 15 36  1  0
 15 37  1  0
 16 38  1  0
 18 39  1  0
 19 40  1  0
 22 41  1  0
 23 42  1  0
 25 43  1  0
M  END
>  <Energy>  (1493) 
27.186951704975911

>  <compound_id>  (1493) 
36035

>  <target_id>  (1493) 
1

>  <reference_id>  (1493) 
54

>  <inspiration_ids>  (1493) 
[45, 54]

>  <energy_score>  (1493) 
49.674504473417784

>  <distance_score>  (1493) 
3.2361770602137514

>  <path>  (1493) 
/opt/xchem-fragalysis-2/maxwin/BulkDock/SCRATCH/511013/C36035-P54/C36035-P54.minimised.mol

>  <scratch_subdir>  (1493) 
/opt/xchem-fragalysis-2/maxwin/BulkDock/SCRATCH/511013/C36035-P54

>  <fragmenstein_runtime>  (1493) 
7.432687044143677

>  <fragmenstein_outcome>  (1493) 
too moved

>  <fragmenstein_mode>  (1493) 
expansion

>  <fragmenstein_error>  (1493) 


$$$$
C36036-P45
     RDKit          3D

 45 48  0  0  0  0  0  0  0  0999 V2000
  -14.6247  -26.5129   29.8603 C   0  0  0  0  0  0  0  0  0  0  0  0
  -13.8582  -27.2171   28.7814 N   0  0  0  0  0  0  0  0  0  0  0  0
  -12.5512  -27.5765   29.2538 C   0  0  0  0  0  0  0  0  0  0  0  0
  -12.1630  -28.5837   29.7939 O   0  0  0  0  0  0  0  0  0  0  0  0
  -11.4720  -26.5387   28.9126 C   0  0  0  0  0  0  0  0  0  0  0  0
  -11.6328  -25.0895   28.8551 C   0  0  0  0  0  0  0  0  0  0  0  0
  -10.6366  -24.2600   28.4857 C   0  0  0  0  0  0  0  0  0  0  0  0
   -9.3811  -24.7909   28.0880 C   0  0  0  0  0  0  0  0  0  0  0  0
   -8.2888  -24.2109   27.6394 N   0  0  0  0  0  0  0  0  0  0  0  0
   -7.4668  -25.2357   27.2545 C   0  0  0  0  0  0  0  0  0  0  0  0
   -8.0577  -26.4546   27.4966 C   0  0  0  0  0  0  0  0  0  0  0  0
   -9.2607  -26.1706   28.0949 N   0  0  0  0  0  0  0  0  0  0  0  0
  -10.2683  -27.0281   28.5309 C   0  0  0  0  0  0  0  0  0  0  0  0
  -15.1617  -28.0371   28.7040 C   0  0  0  0  0  0  0  0  0  0  0  0
  -16.1480  -27.4424   27.6621 C   0  0  0  0  0  0  0  0  0  0  0  0
  -15.8024  -27.7816   26.2107 C   0  0  0  0  0  0  0  0  0  0  0  0
  -14.4372  -28.2498   26.0708 N   0  0  0  0  0  0  0  0  0  0  0  0
  -13.4443  -27.3245   25.8092 C   0  0  0  0  0  0  0  0  0  0  0  0
  -13.7529  -26.0634   25.4843 N   0  0  0  0  0  0  0  0  0  0  0  0
  -12.7519  -25.1699   25.2968 C   0  0  0  0  0  0  0  0  0  0  0  0
  -11.4387  -25.4991   25.3885 C   0  0  0  0  0  0  0  0  0  0  0  0
  -11.2215  -26.8175   25.6691 C   0  0  0  0  0  0  0  0  0  0  0  0
  -12.1822  -27.7147   25.9024 N   0  0  0  0  0  0  0  0  0  0  0  0
  -14.0591  -29.4181   26.8719 C   0  0  0  0  0  0  0  0  0  0  0  0
  -14.7900  -29.4480   28.2080 C   0  0  0  0  0  0  0  0  0  0  0  0
  -14.6834  -27.1162   30.7745 H   0  0  0  0  0  0  0  0  0  0  0  0
  -14.0351  -25.6451   30.1234 H   0  0  0  0  0  0  0  0  0  0  0  0
  -15.5983  -26.0747   29.6099 H   0  0  0  0  0  0  0  0  0  0  0  0
  -12.5858  -24.6579   29.1113 H   0  0  0  0  0  0  0  0  0  0  0  0
  -10.7835  -23.1862   28.4389 H   0  0  0  0  0  0  0  0  0  0  0  0
   -6.4929  -25.0474   26.8192 H   0  0  0  0  0  0  0  0  0  0  0  0
   -7.7307  -27.4681   27.3090 H   0  0  0  0  0  0  0  0  0  0  0  0
  -10.0737  -28.0846   28.4339 H   0  0  0  0  0  0  0  0  0  0  0  0
  -15.6841  -28.2754   29.6493 H   0  0  0  0  0  0  0  0  0  0  0  0
  -16.2634  -26.3609   27.7527 H   0  0  0  0  0  0  0  0  0  0  0  0
  -17.1495  -27.8447   27.8676 H   0  0  0  0  0  0  0  0  0  0  0  0
  -16.0468  -26.9447   25.5451 H   0  0  0  0  0  0  0  0  0  0  0  0
  -16.4648  -28.5940   25.8819 H   0  0  0  0  0  0  0  0  0  0  0  0
  -13.0647  -24.1514   25.0743 H   0  0  0  0  0  0  0  0  0  0  0  0
  -10.6419  -24.7854   25.2389 H   0  0  0  0  0  0  0  0  0  0  0  0
  -10.2337  -27.2419   25.7710 H   0  0  0  0  0  0  0  0  0  0  0  0
  -12.9869  -29.4960   27.0780 H   0  0  0  0  0  0  0  0  0  0  0  0
  -14.3149  -30.3245   26.3098 H   0  0  0  0  0  0  0  0  0  0  0  0
  -14.1867  -29.9850   28.9491 H   0  0  0  0  0  0  0  0  0  0  0  0
  -15.7112  -30.0370   28.0972 H   0  0  0  0  0  0  0  0  0  0  0  0
  1  2  1  0
  2  3  1  0
  3  4  2  0
  3  5  1  0
  5  6  1  0
  6  7  2  0
  7  8  1  0
  8  9  2  0
  9 10  1  0
 10 11  2  0
 11 12  1  0
 12 13  1  0
  2 14  1  0
 14 15  1  0
 15 16  1  0
 16 17  1  0
 17 18  1  0
 18 19  2  0
 19 20  1  0
 20 21  2  0
 21 22  1  0
 22 23  2  0
 17 24  1  0
 24 25  1  0
 13  5  2  0
 25 14  1  0
 12  8  1  0
 23 18  1  0
  1 26  1  0
  1 27  1  0
  1 28  1  0
  6 29  1  0
  7 30  1  0
 10 31  1  0
 11 32  1  0
 13 33  1  0
 14 34  1  0
 15 35  1  0
 15 36  1  0
 16 37  1  0
 16 38  1  0
 20 39  1  0
 21 40  1  0
 22 41  1  0
 24 42  1  0
 24 43  1  0
 25 44  1  0
 25 45  1  0
M  END
>  <Energy>  (1494) 
35.04465142584619

>  <compound_id>  (1494) 
36036

>  <target_id>  (1494) 
1

>  <reference_id>  (1494) 
45

>  <inspiration_ids>  (1494) 
[45, 54]

>  <energy_score>  (1494) 
52.11878887287534

>  <distance_score>  (1494) 
6.14966100159552

>  <path>  (1494) 
/opt/xchem-fragalysis-2/maxwin/BulkDock/SCRATCH/511013/C36036-P45/C36036-P45.minimised.mol

>  <scratch_subdir>  (1494) 
/opt/xchem-fragalysis-2/maxwin/BulkDock/SCRATCH/511013/C36036-P45

>  <fragmenstein_runtime>  (1494) 
12.575579166412354

>  <fragmenstein_outcome>  (1494) 
too moved

>  <fragmenstein_mode>  (1494) 
expansion

>  <fragmenstein_error>  (1494) 


$$$$
C36036-P54
     RDKit          3D

 45 48  0  0  0  0  0  0  0  0999 V2000
  -10.8697  -21.0316   28.6321 C   0  0  0  0  0  0  0  0  0  0  0  0
  -11.2747  -22.3088   29.3164 N   0  0  0  0  0  0  0  0  0  0  0  0
  -11.1133  -23.3782   28.4586 C   0  0  0  0  0  0  0  0  0  0  0  0
  -10.1738  -24.1015   28.2838 O   0  0  0  0  0  0  0  0  0  0  0  0
  -12.3052  -23.5897   27.5175 C   0  0  0  0  0  0  0  0  0  0  0  0
  -11.7702  -23.1281   26.2219 C   0  0  0  0  0  0  0  0  0  0  0  0
  -10.7799  -23.8709   25.6984 C   0  0  0  0  0  0  0  0  0  0  0  0
  -10.7100  -25.2568   26.0744 C   0  0  0  0  0  0  0  0  0  0  0  0
   -9.8173  -26.1894   25.8523 N   0  0  0  0  0  0  0  0  0  0  0  0
  -10.2851  -27.3010   26.4759 C   0  0  0  0  0  0  0  0  0  0  0  0
  -11.5720  -27.1042   26.9157 C   0  0  0  0  0  0  0  0  0  0  0  0
  -11.7451  -25.7498   26.8573 N   0  0  0  0  0  0  0  0  0  0  0  0
  -12.6188  -24.9090   27.5590 C   0  0  0  0  0  0  0  0  0  0  0  0
  -10.3745  -21.7707   30.3874 C   0  0  0  0  0  0  0  0  0  0  0  0
  -10.9583  -21.9105   31.7478 C   0  0  0  0  0  0  0  0  0  0  0  0
  -11.0367  -23.3520   32.1054 C   0  0  0  0  0  0  0  0  0  0  0  0
  -10.5989  -24.3801   31.1943 N   0  0  0  0  0  0  0  0  0  0  0  0
  -11.2880  -25.5509   30.9284 C   0  0  0  0  0  0  0  0  0  0  0  0
  -12.4476  -25.8453   31.5349 N   0  0  0  0  0  0  0  0  0  0  0  0
  -13.0492  -27.0462   31.3485 C   0  0  0  0  0  0  0  0  0  0  0  0
  -12.5517  -28.0197   30.5496 C   0  0  0  0  0  0  0  0  0  0  0  0
  -11.4047  -27.6499   29.9294 C   0  0  0  0  0  0  0  0  0  0  0  0
  -10.8227  -26.4354   30.0626 N   0  0  0  0  0  0  0  0  0  0  0  0
   -9.2411  -24.1803   30.8187 C   0  0  0  0  0  0  0  0  0  0  0  0
   -9.0554  -22.6983   30.4678 C   0  0  0  0  0  0  0  0  0  0  0  0
  -11.3042  -20.1255   29.0871 H   0  0  0  0  0  0  0  0  0  0  0  0
   -9.8101  -20.9798   28.3648 H   0  0  0  0  0  0  0  0  0  0  0  0
  -11.3642  -21.0199   27.6579 H   0  0  0  0  0  0  0  0  0  0  0  0
  -11.9720  -22.1175   25.8934 H   0  0  0  0  0  0  0  0  0  0  0  0
  -10.1310  -23.4684   24.9341 H   0  0  0  0  0  0  0  0  0  0  0  0
   -9.6789  -28.1939   26.5253 H   0  0  0  0  0  0  0  0  0  0  0  0
  -12.2931  -27.7517   27.3851 H   0  0  0  0  0  0  0  0  0  0  0  0
  -13.0971  -25.3698   28.4137 H   0  0  0  0  0  0  0  0  0  0  0  0
  -10.2140  -20.7020   30.4241 H   0  0  0  0  0  0  0  0  0  0  0  0
  -11.9313  -21.4089   31.8082 H   0  0  0  0  0  0  0  0  0  0  0  0
  -10.3282  -21.3960   32.4879 H   0  0  0  0  0  0  0  0  0  0  0  0
  -12.0696  -23.4574   32.0468 H   0  0  0  0  0  0  0  0  0  0  0  0
  -10.5755  -23.4734   33.0916 H   0  0  0  0  0  0  0  0  0  0  0  0
  -13.9694  -27.1951   31.9066 H   0  0  0  0  0  0  0  0  0  0  0  0
  -13.0066  -28.9901   30.4320 H   0  0  0  0  0  0  0  0  0  0  0  0
  -10.8695  -28.3402   29.2846 H   0  0  0  0  0  0  0  0  0  0  0  0
   -8.8968  -24.7817   29.9831 H   0  0  0  0  0  0  0  0  0  0  0  0
   -8.6181  -24.4428   31.6788 H   0  0  0  0  0  0  0  0  0  0  0  0
   -8.5111  -22.6980   29.5175 H   0  0  0  0  0  0  0  0  0  0  0  0
   -8.3965  -22.3004   31.2466 H   0  0  0  0  0  0  0  0  0  0  0  0
  1  2  1  0
  2  3  1  0
  3  4  2  0
  3  5  1  0
  5  6  1  0
  6  7  2  0
  7  8  1  0
  8  9  2  0
  9 10  1  0
 10 11  2  0
 11 12  1  0
 12 13  1  0
  2 14  1  0
 14 15  1  0
 15 16  1  0
 16 17  1  0
 17 18  1  0
 18 19  2  0
 19 20  1  0
 20 21  2  0
 21 22  1  0
 22 23  2  0
 17 24  1  0
 24 25  1  0
 13  5  2  0
 25 14  1  0
 12  8  1  0
 23 18  1  0
  1 26  1  0
  1 27  1  0
  1 28  1  0
  6 29  1  0
  7 30  1  0
 10 31  1  0
 11 32  1  0
 13 33  1  0
 14 34  1  0
 15 35  1  0
 15 36  1  0
 16 37  1  0
 16 38  1  0
 20 39  1  0
 21 40  1  0
 22 41  1  0
 24 42  1  0
 24 43  1  0
 25 44  1  0
 25 45  1  0
M  END
>  <Energy>  (1495) 
141.58328582105881

>  <compound_id>  (1495) 
36036

>  <target_id>  (1495) 
1

>  <reference_id>  (1495) 
54

>  <inspiration_ids>  (1495) 
[45, 54]

>  <energy_score>  (1495) 
158.6574232680919

>  <distance_score>  (1495) 
4.923802075003586

>  <path>  (1495) 
/opt/xchem-fragalysis-2/maxwin/BulkDock/SCRATCH/511013/C36036-P54/C36036-P54.minimised.mol

>  <scratch_subdir>  (1495) 
/opt/xchem-fragalysis-2/maxwin/BulkDock/SCRATCH/511013/C36036-P54

>  <fragmenstein_runtime>  (1495) 
10.519189357757568

>  <fragmenstein_outcome>  (1495) 
too moved

>  <fragmenstein_mode>  (1495) 
expansion

>  <fragmenstein_error>  (1495) 


$$$$
C36037-P45
     RDKit          3D

 45 48  0  0  0  0  0  0  0  0999 V2000
  -10.0672  -27.3488   28.9624 O   0  0  0  0  0  0  0  0  0  0  0  0
   -9.2775  -26.4531   28.9048 C   0  0  0  0  0  0  0  0  0  0  0  0
   -8.7388  -25.5751   29.9619 N   0  0  0  0  0  0  0  0  0  0  0  0
   -8.9340  -25.5935   31.4297 C   0  0  0  0  0  0  0  0  0  0  0  0
  -10.1481  -24.7630   31.7768 C   0  0  0  0  0  0  0  0  0  0  0  0
  -10.2631  -23.6743   32.8241 C   0  0  0  0  0  0  0  0  0  0  0  0
  -11.2900  -22.5368   32.5368 C   0  0  0  0  0  0  0  0  0  0  0  0
  -11.7665  -22.3494   31.0844 C   0  0  0  0  0  0  0  0  0  0  0  0
  -11.9670  -23.6455   30.4602 N   0  0  0  0  0  0  0  0  0  0  0  0
  -12.1927  -23.6373   29.0503 C   0  0  0  0  0  0  0  0  0  0  0  0
  -11.9174  -22.5317   28.3769 N   0  0  0  0  0  0  0  0  0  0  0  0
  -11.7405  -22.6985   27.0566 C   0  0  0  0  0  0  0  0  0  0  0  0
  -11.7983  -23.8791   26.3543 C   0  0  0  0  0  0  0  0  0  0  0  0
  -12.0652  -24.9634   27.1184 C   0  0  0  0  0  0  0  0  0  0  0  0
  -12.3057  -24.8532   28.4307 N   0  0  0  0  0  0  0  0  0  0  0  0
  -10.7708  -24.4257   30.4359 C   0  0  0  0  0  0  0  0  0  0  0  0
   -8.6294  -26.0533   27.6184 C   0  0  0  0  0  0  0  0  0  0  0  0
   -8.4680  -24.6337   27.3579 C   0  0  0  0  0  0  0  0  0  0  0  0
   -7.2599  -24.1221   27.1029 C   0  0  0  0  0  0  0  0  0  0  0  0
   -6.1771  -25.0088   26.9806 C   0  0  0  0  0  0  0  0  0  0  0  0
   -4.9015  -24.7642   27.0435 N   0  0  0  0  0  0  0  0  0  0  0  0
   -4.3063  -25.9791   26.8844 C   0  0  0  0  0  0  0  0  0  0  0  0
   -5.2287  -26.9933   26.7922 C   0  0  0  0  0  0  0  0  0  0  0  0
   -6.4405  -26.3744   26.9103 N   0  0  0  0  0  0  0  0  0  0  0  0
   -7.6856  -26.9218   27.2079 C   0  0  0  0  0  0  0  0  0  0  0  0
   -8.0246  -24.9782   29.5666 H   0  0  0  0  0  0  0  0  0  0  0  0
   -8.0376  -25.2645   31.9516 H   0  0  0  0  0  0  0  0  0  0  0  0
   -9.1128  -26.6433   31.6878 H   0  0  0  0  0  0  0  0  0  0  0  0
  -10.6401  -25.5434   32.3489 H   0  0  0  0  0  0  0  0  0  0  0  0
  -10.6240  -24.1504   33.7457 H   0  0  0  0  0  0  0  0  0  0  0  0
   -9.2736  -23.3210   33.1020 H   0  0  0  0  0  0  0  0  0  0  0  0
  -12.1537  -22.6977   33.1911 H   0  0  0  0  0  0  0  0  0  0  0  0
  -10.9098  -21.5675   32.8706 H   0  0  0  0  0  0  0  0  0  0  0  0
  -11.0484  -21.7253   30.5425 H   0  0  0  0  0  0  0  0  0  0  0  0
  -12.7152  -21.8065   31.0967 H   0  0  0  0  0  0  0  0  0  0  0  0
  -11.5452  -21.7717   26.5394 H   0  0  0  0  0  0  0  0  0  0  0  0
  -11.6496  -23.9265   25.2865 H   0  0  0  0  0  0  0  0  0  0  0  0
  -12.1154  -25.9671   26.7114 H   0  0  0  0  0  0  0  0  0  0  0  0
  -10.9969  -25.4048   29.9996 H   0  0  0  0  0  0  0  0  0  0  0  0
  -10.1118  -23.9828   29.7003 H   0  0  0  0  0  0  0  0  0  0  0  0
   -9.3149  -23.9882   27.5356 H   0  0  0  0  0  0  0  0  0  0  0  0
   -7.0750  -23.0589   27.0427 H   0  0  0  0  0  0  0  0  0  0  0  0
   -3.2320  -26.0400   26.8540 H   0  0  0  0  0  0  0  0  0  0  0  0
   -5.1199  -28.0601   26.6775 H   0  0  0  0  0  0  0  0  0  0  0  0
   -7.7046  -27.9854   27.4134 H   0  0  0  0  0  0  0  0  0  0  0  0
  1  2  2  0
  2  3  1  0
  3  4  1  0
  4  5  1  0
  5  6  1  0
  6  7  1  0
  7  8  1  0
  8  9  1  0
  9 10  1  0
 10 11  2  0
 11 12  1  0
 12 13  2  0
 13 14  1  0
 14 15  2  0
  9 16  1  0
  2 17  1  0
 17 18  1  0
 18 19  2  0
 19 20  1  0
 20 21  2  0
 21 22  1  0
 22 23  2  0
 23 24  1  0
 24 25  1  0
 16  5  1  0
 25 17  2  0
 15 10  1  0
 24 20  1  0
  3 26  1  0
  4 27  1  0
  4 28  1  0
  5 29  1  0
  6 30  1  0
  6 31  1  0
  7 32  1  0
  7 33  1  0
  8 34  1  0
  8 35  1  0
 12 36  1  0
 13 37  1  0
 14 38  1  0
 16 39  1  0
 16 40  1  0
 18 41  1  0
 19 42  1  0
 22 43  1  0
 23 44  1  0
 25 45  1  0
M  END
>  <Energy>  (1496) 
33.852083826020994

>  <compound_id>  (1496) 
36037

>  <target_id>  (1496) 
1

>  <reference_id>  (1496) 
45

>  <inspiration_ids>  (1496) 
[45, 54]

>  <energy_score>  (1496) 
59.639101140345474

>  <distance_score>  (1496) 
2.447446726088202

>  <path>  (1496) 
/opt/xchem-fragalysis-2/maxwin/BulkDock/SCRATCH/511013/C36037-P45/C36037-P45.minimised.mol

>  <scratch_subdir>  (1496) 
/opt/xchem-fragalysis-2/maxwin/BulkDock/SCRATCH/511013/C36037-P45

>  <fragmenstein_runtime>  (1496) 
8.989134788513184

>  <fragmenstein_outcome>  (1496) 
too moved

>  <fragmenstein_mode>  (1496) 
expansion

>  <fragmenstein_error>  (1496) 


$$$$
C36037-P54
     RDKit          3D

 45 48  0  0  0  0  0  0  0  0999 V2000
  -12.0277  -28.3577   30.9433 O   0  0  0  0  0  0  0  0  0  0  0  0
  -11.6073  -27.6428   30.1189 C   0  0  0  0  0  0  0  0  0  0  0  0
  -10.9720  -26.2161   30.2415 N   0  0  0  0  0  0  0  0  0  0  0  0
  -10.8168  -25.3462   31.4017 C   0  0  0  0  0  0  0  0  0  0  0  0
   -9.5451  -24.4542   31.5797 C   0  0  0  0  0  0  0  0  0  0  0  0
   -9.4820  -23.6163   32.8823 C   0  0  0  0  0  0  0  0  0  0  0  0
  -10.0160  -22.1863   32.7475 C   0  0  0  0  0  0  0  0  0  0  0  0
  -10.9094  -22.0002   31.5261 C   0  0  0  0  0  0  0  0  0  0  0  0
  -10.2448  -22.4521   30.3090 N   0  0  0  0  0  0  0  0  0  0  0  0
  -11.0830  -22.7186   29.2337 C   0  0  0  0  0  0  0  0  0  0  0  0
  -10.6472  -22.3475   28.0292 N   0  0  0  0  0  0  0  0  0  0  0  0
  -11.3412  -22.7812   26.9648 C   0  0  0  0  0  0  0  0  0  0  0  0
  -12.4425  -23.5854   27.0457 C   0  0  0  0  0  0  0  0  0  0  0  0
  -12.8073  -23.9310   28.3137 C   0  0  0  0  0  0  0  0  0  0  0  0
  -12.1622  -23.4992   29.4065 N   0  0  0  0  0  0  0  0  0  0  0  0
   -9.2665  -23.5253   30.4097 C   0  0  0  0  0  0  0  0  0  0  0  0
  -11.5122  -28.0735   28.6695 C   0  0  0  0  0  0  0  0  0  0  0  0
  -12.3556  -27.4454   27.6615 C   0  0  0  0  0  0  0  0  0  0  0  0
  -11.7991  -26.8291   26.6050 C   0  0  0  0  0  0  0  0  0  0  0  0
  -10.3976  -26.7252   26.6411 C   0  0  0  0  0  0  0  0  0  0  0  0
   -9.6658  -25.6473   26.7713 N   0  0  0  0  0  0  0  0  0  0  0  0
   -8.4974  -26.1361   27.2667 C   0  0  0  0  0  0  0  0  0  0  0  0
   -8.4125  -27.4966   27.0930 C   0  0  0  0  0  0  0  0  0  0  0  0
   -9.7278  -27.7960   27.2152 N   0  0  0  0  0  0  0  0  0  0  0  0
  -10.2940  -28.5143   28.2730 C   0  0  0  0  0  0  0  0  0  0  0  0
  -10.7882  -25.8433   29.3114 H   0  0  0  0  0  0  0  0  0  0  0  0
  -10.8934  -26.0187   32.2612 H   0  0  0  0  0  0  0  0  0  0  0  0
  -11.6997  -24.7255   31.3871 H   0  0  0  0  0  0  0  0  0  0  0  0
   -8.6956  -25.1232   31.6546 H   0  0  0  0  0  0  0  0  0  0  0  0
   -9.9560  -24.1377   33.7110 H   0  0  0  0  0  0  0  0  0  0  0  0
   -8.4284  -23.5364   33.1867 H   0  0  0  0  0  0  0  0  0  0  0  0
  -10.5546  -21.9019   33.6586 H   0  0  0  0  0  0  0  0  0  0  0  0
   -9.1614  -21.5024   32.6742 H   0  0  0  0  0  0  0  0  0  0  0  0
  -11.1717  -20.9405   31.4236 H   0  0  0  0  0  0  0  0  0  0  0  0
  -11.8339  -22.5388   31.6917 H   0  0  0  0  0  0  0  0  0  0  0  0
  -10.9665  -22.4739   25.9976 H   0  0  0  0  0  0  0  0  0  0  0  0
  -12.9852  -23.9036   26.1704 H   0  0  0  0  0  0  0  0  0  0  0  0
  -13.6708  -24.5607   28.4999 H   0  0  0  0  0  0  0  0  0  0  0  0
   -9.1502  -24.1011   29.4822 H   0  0  0  0  0  0  0  0  0  0  0  0
   -8.2943  -23.0455   30.5606 H   0  0  0  0  0  0  0  0  0  0  0  0
  -13.4313  -27.5082   27.7903 H   0  0  0  0  0  0  0  0  0  0  0  0
  -12.3731  -26.3343   25.8346 H   0  0  0  0  0  0  0  0  0  0  0  0
   -7.7617  -25.5039   27.7345 H   0  0  0  0  0  0  0  0  0  0  0  0
   -7.6496  -28.2088   27.3161 H   0  0  0  0  0  0  0  0  0  0  0  0
   -9.5740  -28.9664   28.9376 H   0  0  0  0  0  0  0  0  0  0  0  0
  1  2  2  0
  2  3  1  0
  3  4  1  0
  4  5  1  0
  5  6  1  0
  6  7  1  0
  7  8  1  0
  8  9  1  0
  9 10  1  0
 10 11  2  0
 11 12  1  0
 12 13  2  0
 13 14  1  0
 14 15  2  0
  9 16  1  0
  2 17  1  0
 17 18  1  0
 18 19  2  0
 19 20  1  0
 20 21  2  0
 21 22  1  0
 22 23  2  0
 23 24  1  0
 24 25  1  0
 16  5  1  0
 25 17  2  0
 15 10  1  0
 24 20  1  0
  3 26  1  0
  4 27  1  0
  4 28  1  0
  5 29  1  0
  6 30  1  0
  6 31  1  0
  7 32  1  0
  7 33  1  0
  8 34  1  0
  8 35  1  0
 12 36  1  0
 13 37  1  0
 14 38  1  0
 16 39  1  0
 16 40  1  0
 18 41  1  0
 19 42  1  0
 22 43  1  0
 23 44  1  0
 25 45  1  0
M  END
>  <Energy>  (1497) 
30.476610956847999

>  <compound_id>  (1497) 
36037

>  <target_id>  (1497) 
1

>  <reference_id>  (1497) 
54

>  <inspiration_ids>  (1497) 
[45, 54]

>  <energy_score>  (1497) 
54.12995936502011

>  <distance_score>  (1497) 
3.0520229646341357

>  <path>  (1497) 
/opt/xchem-fragalysis-2/maxwin/BulkDock/SCRATCH/511013/C36037-P54/C36037-P54.minimised.mol

>  <scratch_subdir>  (1497) 
/opt/xchem-fragalysis-2/maxwin/BulkDock/SCRATCH/511013/C36037-P54

>  <fragmenstein_runtime>  (1497) 
8.314481019973755

>  <fragmenstein_outcome>  (1497) 
too moved

>  <fragmenstein_mode>  (1497) 
expansion

>  <fragmenstein_error>  (1497) 


$$$$
C36038-P45
     RDKit          3D

 36 39  0  0  0  0  0  0  0  0999 V2000
   -8.9375  -25.2058   29.3144 O   0  0  0  0  0  0  0  0  0  0  0  0
   -9.5559  -26.2276   29.3409 C   0  0  0  0  0  0  0  0  0  0  0  0
   -9.9713  -27.0298   30.4297 N   0  0  0  0  0  0  0  0  0  0  0  0
   -9.6949  -26.9231   31.8577 C   0  0  0  0  0  0  0  0  0  0  0  0
   -9.9462  -25.6216   32.5383 C   0  0  0  0  0  0  0  0  0  0  0  0
  -10.5410  -25.3435   33.7600 C   0  0  0  0  0  0  0  0  0  0  0  0
  -11.2712  -23.7474   33.6349 S   0  0  0  0  0  0  0  0  0  0  0  0
  -10.6811  -23.6859   32.0519 C   0  0  0  0  0  0  0  0  0  0  0  0
  -11.4365  -23.2057   30.9060 C   0  0  0  0  0  0  0  0  0  0  0  0
  -11.5519  -21.9152   30.6202 N   0  0  0  0  0  0  0  0  0  0  0  0
  -11.8205  -21.7119   29.3211 C   0  0  0  0  0  0  0  0  0  0  0  0
  -11.9133  -22.6638   28.3416 C   0  0  0  0  0  0  0  0  0  0  0  0
  -11.9792  -23.9266   28.8146 C   0  0  0  0  0  0  0  0  0  0  0  0
  -11.7582  -24.2297   30.0848 N   0  0  0  0  0  0  0  0  0  0  0  0
   -9.6556  -24.4887   31.8696 N   0  0  0  0  0  0  0  0  0  0  0  0
   -9.8947  -26.8810   27.9710 C   0  0  0  0  0  0  0  0  0  0  0  0
  -10.4724  -25.9850   26.9682 C   0  0  0  0  0  0  0  0  0  0  0  0
   -9.6876  -25.1055   26.3192 C   0  0  0  0  0  0  0  0  0  0  0  0
   -8.2774  -25.1828   26.5322 C   0  0  0  0  0  0  0  0  0  0  0  0
   -7.2836  -24.3265   26.4272 N   0  0  0  0  0  0  0  0  0  0  0  0
   -6.1592  -25.0429   26.7588 C   0  0  0  0  0  0  0  0  0  0  0  0
   -6.4564  -26.3733   26.9538 C   0  0  0  0  0  0  0  0  0  0  0  0
   -7.8233  -26.4166   26.9835 N   0  0  0  0  0  0  0  0  0  0  0  0
   -8.6873  -27.3653   27.5647 C   0  0  0  0  0  0  0  0  0  0  0  0
  -10.4033  -27.8635   30.0743 H   0  0  0  0  0  0  0  0  0  0  0  0
  -10.2691  -27.7316   32.3172 H   0  0  0  0  0  0  0  0  0  0  0  0
   -8.6251  -27.0949   31.8989 H   0  0  0  0  0  0  0  0  0  0  0  0
  -10.8287  -25.9978   34.5682 H   0  0  0  0  0  0  0  0  0  0  0  0
  -12.0324  -20.6973   29.0575 H   0  0  0  0  0  0  0  0  0  0  0  0
  -12.0478  -22.4359   27.2984 H   0  0  0  0  0  0  0  0  0  0  0  0
  -12.2729  -24.7481   28.1877 H   0  0  0  0  0  0  0  0  0  0  0  0
  -11.5272  -26.0770   26.7484 H   0  0  0  0  0  0  0  0  0  0  0  0
  -10.1002  -24.4319   25.5842 H   0  0  0  0  0  0  0  0  0  0  0  0
   -5.1822  -24.5842   26.7849 H   0  0  0  0  0  0  0  0  0  0  0  0
   -5.8320  -27.2268   27.1708 H   0  0  0  0  0  0  0  0  0  0  0  0
   -8.1548  -28.1290   28.0906 H   0  0  0  0  0  0  0  0  0  0  0  0
  1  2  2  0
  2  3  1  0
  3  4  1  0
  4  5  1  0
  5  6  2  0
  6  7  1  0
  7  8  1  0
  8  9  1  0
  9 10  2  0
 10 11  1  0
 11 12  2  0
 12 13  1  0
 13 14  2  0
  8 15  2  0
  2 16  1  0
 16 17  1  0
 17 18  2  0
 18 19  1  0
 19 20  2  0
 20 21  1  0
 21 22  2  0
 22 23  1  0
 23 24  1  0
 15  5  1  0
 24 16  2  0
 14  9  1  0
 23 19  1  0
  3 25  1  0
  4 26  1  0
  4 27  1  0
  6 28  1  0
 11 29  1  0
 12 30  1  0
 13 31  1  0
 17 32  1  0
 18 33  1  0
 21 34  1  0
 22 35  1  0
 24 36  1  0
M  END
>  <Energy>  (1498) 
170.69548569063218

>  <compound_id>  (1498) 
36038

>  <target_id>  (1498) 
1

>  <reference_id>  (1498) 
45

>  <inspiration_ids>  (1498) 
[45, 54]

>  <energy_score>  (1498) 
24.7821465142066

>  <distance_score>  (1498) 
2.6275092944566314

>  <path>  (1498) 
/opt/xchem-fragalysis-2/maxwin/BulkDock/SCRATCH/511013/C36038-P45/C36038-P45.minimised.mol

>  <scratch_subdir>  (1498) 
/opt/xchem-fragalysis-2/maxwin/BulkDock/SCRATCH/511013/C36038-P45

>  <fragmenstein_runtime>  (1498) 
10.08353328704834

>  <fragmenstein_outcome>  (1498) 
too moved

>  <fragmenstein_mode>  (1498) 
expansion

>  <fragmenstein_error>  (1498) 


$$$$
C36038-P54
     RDKit          3D

 36 39  0  0  0  0  0  0  0  0999 V2000
  -11.4916  -26.0400   31.9311 O   0  0  0  0  0  0  0  0  0  0  0  0
  -10.5726  -25.6138   31.3443 C   0  0  0  0  0  0  0  0  0  0  0  0
   -9.3116  -24.8442   31.8571 N   0  0  0  0  0  0  0  0  0  0  0  0
   -8.9815  -24.3667   33.1689 C   0  0  0  0  0  0  0  0  0  0  0  0
   -9.4314  -22.9475   33.0803 C   0  0  0  0  0  0  0  0  0  0  0  0
  -10.0049  -22.1248   34.0181 C   0  0  0  0  0  0  0  0  0  0  0  0
  -11.0232  -21.0005   33.1755 S   0  0  0  0  0  0  0  0  0  0  0  0
  -10.5840  -21.7431   31.7075 C   0  0  0  0  0  0  0  0  0  0  0  0
  -11.3651  -21.7016   30.4819 C   0  0  0  0  0  0  0  0  0  0  0  0
  -11.0155  -20.7749   29.5817 N   0  0  0  0  0  0  0  0  0  0  0  0
  -11.3633  -21.0416   28.3181 C   0  0  0  0  0  0  0  0  0  0  0  0
  -12.0505  -22.1639   27.9299 C   0  0  0  0  0  0  0  0  0  0  0  0
  -12.3935  -23.0379   28.9225 C   0  0  0  0  0  0  0  0  0  0  0  0
  -12.0242  -22.8453   30.1909 N   0  0  0  0  0  0  0  0  0  0  0  0
   -9.4645  -22.4201   31.8057 N   0  0  0  0  0  0  0  0  0  0  0  0
  -10.5311  -25.6709   29.8526 C   0  0  0  0  0  0  0  0  0  0  0  0
  -11.0624  -26.8038   29.0649 C   0  0  0  0  0  0  0  0  0  0  0  0
  -10.9231  -26.8379   27.7229 C   0  0  0  0  0  0  0  0  0  0  0  0
  -10.4240  -25.6818   27.0695 C   0  0  0  0  0  0  0  0  0  0  0  0
  -10.5981  -25.2362   25.8539 N   0  0  0  0  0  0  0  0  0  0  0  0
  -10.2884  -23.8989   25.9050 C   0  0  0  0  0  0  0  0  0  0  0  0
   -9.7251  -23.5773   27.1070 C   0  0  0  0  0  0  0  0  0  0  0  0
   -9.8812  -24.6924   27.8514 N   0  0  0  0  0  0  0  0  0  0  0  0
   -9.8677  -24.6999   29.2027 C   0  0  0  0  0  0  0  0  0  0  0  0
   -8.7562  -24.5514   31.0757 H   0  0  0  0  0  0  0  0  0  0  0  0
   -9.5098  -24.9228   33.9102 H   0  0  0  0  0  0  0  0  0  0  0  0
   -7.9030  -24.4361   33.3170 H   0  0  0  0  0  0  0  0  0  0  0  0
  -10.0714  -22.2093   35.0905 H   0  0  0  0  0  0  0  0  0  0  0  0
  -11.0544  -20.3098   27.5843 H   0  0  0  0  0  0  0  0  0  0  0  0
  -12.3257  -22.3294   26.8952 H   0  0  0  0  0  0  0  0  0  0  0  0
  -12.9535  -23.9442   28.7148 H   0  0  0  0  0  0  0  0  0  0  0  0
  -11.5042  -27.6330   29.6101 H   0  0  0  0  0  0  0  0  0  0  0  0
  -11.2886  -27.6648   27.1281 H   0  0  0  0  0  0  0  0  0  0  0  0
  -10.4116  -23.2401   25.0551 H   0  0  0  0  0  0  0  0  0  0  0  0
   -9.3289  -22.6560   27.5054 H   0  0  0  0  0  0  0  0  0  0  0  0
   -9.4738  -23.7929   29.6387 H   0  0  0  0  0  0  0  0  0  0  0  0
  1  2  2  0
  2  3  1  0
  3  4  1  0
  4  5  1  0
  5  6  2  0
  6  7  1  0
  7  8  1  0
  8  9  1  0
  9 10  2  0
 10 11  1  0
 11 12  2  0
 12 13  1  0
 13 14  2  0
  8 15  2  0
  2 16  1  0
 16 17  1  0
 17 18  2  0
 18 19  1  0
 19 20  2  0
 20 21  1  0
 21 22  2  0
 22 23  1  0
 23 24  1  0
 15  5  1  0
 24 16  2  0
 14  9  1  0
 23 19  1  0
  3 25  1  0
  4 26  1  0
  4 27  1  0
  6 28  1  0
 11 29  1  0
 12 30  1  0
 13 31  1  0
 17 32  1  0
 18 33  1  0
 21 34  1  0
 22 35  1  0
 24 36  1  0
M  END
>  <Energy>  (1499) 
117.81237010841964

>  <compound_id>  (1499) 
36038

>  <target_id>  (1499) 
1

>  <reference_id>  (1499) 
54

>  <inspiration_ids>  (1499) 
[45, 54]

>  <energy_score>  (1499) 
6.5568680259654

>  <distance_score>  (1499) 
3.3288470513666435

>  <path>  (1499) 
/opt/xchem-fragalysis-2/maxwin/BulkDock/SCRATCH/511013/C36038-P54/C36038-P54.minimised.mol

>  <scratch_subdir>  (1499) 
/opt/xchem-fragalysis-2/maxwin/BulkDock/SCRATCH/511013/C36038-P54

>  <fragmenstein_runtime>  (1499) 
5.785140514373779

>  <fragmenstein_outcome>  (1499) 
too moved

>  <fragmenstein_mode>  (1499) 
expansion

>  <fragmenstein_error>  (1499) 


$$$$
C36039-P45
     RDKit          3D

 42 45  0  0  0  0  0  0  0  0999 V2000
   -8.5456  -25.5167   32.4508 O   0  0  0  0  0  0  0  0  0  0  0  0
   -9.4513  -25.1229   31.7812 C   0  0  0  0  0  0  0  0  0  0  0  0
  -10.5670  -24.2651   32.1136 N   0  0  0  0  0  0  0  0  0  0  0  0
  -10.9831  -23.6999   33.3779 C   0  0  0  0  0  0  0  0  0  0  0  0
  -11.7659  -22.3717   33.6192 C   0  0  0  0  0  0  0  0  0  0  0  0
  -13.2832  -22.2418   33.8021 C   0  0  0  0  0  0  0  0  0  0  0  0
  -13.8181  -21.7734   32.4464 C   0  0  0  0  0  0  0  0  0  0  0  0
  -12.6073  -21.4782   31.6708 N   0  0  0  0  0  0  0  0  0  0  0  0
  -12.2461  -22.1828   30.5427 C   0  0  0  0  0  0  0  0  0  0  0  0
  -11.6316  -21.5271   29.5658 N   0  0  0  0  0  0  0  0  0  0  0  0
  -11.4568  -22.1853   28.3985 C   0  0  0  0  0  0  0  0  0  0  0  0
  -11.8164  -23.4683   28.1613 C   0  0  0  0  0  0  0  0  0  0  0  0
  -12.2828  -24.1023   29.2589 C   0  0  0  0  0  0  0  0  0  0  0  0
  -12.4730  -23.4927   30.4534 N   0  0  0  0  0  0  0  0  0  0  0  0
  -11.5293  -21.2809   32.6108 C   0  0  0  0  0  0  0  0  0  0  0  0
   -9.5565  -25.6572   30.3630 C   0  0  0  0  0  0  0  0  0  0  0  0
  -10.2992  -26.8958   30.0952 C   0  0  0  0  0  0  0  0  0  0  0  0
  -10.6563  -27.2635   28.8478 C   0  0  0  0  0  0  0  0  0  0  0  0
  -10.2295  -26.4606   27.7615 C   0  0  0  0  0  0  0  0  0  0  0  0
  -10.6848  -26.2983   26.5397 N   0  0  0  0  0  0  0  0  0  0  0  0
   -9.8937  -25.3098   26.0090 C   0  0  0  0  0  0  0  0  0  0  0  0
   -8.8680  -24.9707   26.8578 C   0  0  0  0  0  0  0  0  0  0  0  0
   -9.2337  -25.5404   28.0381 N   0  0  0  0  0  0  0  0  0  0  0  0
   -8.8966  -25.1361   29.3127 C   0  0  0  0  0  0  0  0  0  0  0  0
  -11.0955  -24.0732   31.2778 H   0  0  0  0  0  0  0  0  0  0  0  0
  -11.4007  -24.5038   33.9916 H   0  0  0  0  0  0  0  0  0  0  0  0
   -9.9840  -23.5256   33.7428 H   0  0  0  0  0  0  0  0  0  0  0  0
  -11.4547  -22.0446   34.6037 H   0  0  0  0  0  0  0  0  0  0  0  0
  -13.4719  -21.4096   34.4988 H   0  0  0  0  0  0  0  0  0  0  0  0
  -13.7779  -23.0834   34.2876 H   0  0  0  0  0  0  0  0  0  0  0  0
  -14.3747  -20.8472   32.6325 H   0  0  0  0  0  0  0  0  0  0  0  0
  -14.5621  -22.3803   31.9228 H   0  0  0  0  0  0  0  0  0  0  0  0
  -11.0434  -21.6274   27.5775 H   0  0  0  0  0  0  0  0  0  0  0  0
  -11.7686  -23.9166   27.1848 H   0  0  0  0  0  0  0  0  0  0  0  0
  -12.6220  -25.1326   29.2055 H   0  0  0  0  0  0  0  0  0  0  0  0
  -11.6606  -20.3135   33.1153 H   0  0  0  0  0  0  0  0  0  0  0  0
  -10.5623  -21.2014   32.1592 H   0  0  0  0  0  0  0  0  0  0  0  0
  -10.4977  -27.5358   30.9505 H   0  0  0  0  0  0  0  0  0  0  0  0
  -11.2232  -28.1647   28.6471 H   0  0  0  0  0  0  0  0  0  0  0  0
  -10.0910  -24.9071   25.0245 H   0  0  0  0  0  0  0  0  0  0  0  0
   -8.0471  -24.2736   26.7784 H   0  0  0  0  0  0  0  0  0  0  0  0
   -8.1753  -24.3451   29.3383 H   0  0  0  0  0  0  0  0  0  0  0  0
  1  2  2  0
  2  3  1  0
  3  4  1  0
  4  5  1  0
  5  6  1  0
  6  7  1  0
  7  8  1  0
  8  9  1  0
  9 10  2  0
 10 11  1  0
 11 12  2  0
 12 13  1  0
 13 14  2  0
  8 15  1  0
  2 16  1  0
 16 17  1  0
 17 18  2  0
 18 19  1  0
 19 20  2  0
 20 21  1  0
 21 22  2  0
 22 23  1  0
 23 24  1  0
 15  5  1  0
 24 16  2  0
 14  9  1  0
 23 19  1  0
  3 25  1  0
  4 26  1  0
  4 27  1  0
  5 28  1  0
  6 29  1  0
  6 30  1  0
  7 31  1  0
  7 32  1  0
 11 33  1  0
 12 34  1  0
 13 35  1  0
 15 36  1  0
 15 37  1  0
 17 38  1  0
 18 39  1  0
 21 40  1  0
 22 41  1  0
 24 42  1  0
M  END
>  <Energy>  (1500) 
-6.4102857468378751

>  <compound_id>  (1500) 
36039

>  <target_id>  (1500) 
1

>  <reference_id>  (1500) 
45

>  <inspiration_ids>  (1500) 
[45, 54]

>  <energy_score>  (1500) 
8.558779163017476

>  <distance_score>  (1500) 
3.340671232602926

>  <path>  (1500) 
/opt/xchem-fragalysis-2/maxwin/BulkDock/SCRATCH/511013/C36039-P45/C36039-P45.minimised.mol

>  <scratch_subdir>  (1500) 
/opt/xchem-fragalysis-2/maxwin/BulkDock/SCRATCH/511013/C36039-P45

>  <fragmenstein_runtime>  (1500) 
10.700584173202515

>  <fragmenstein_outcome>  (1500) 
too moved

>  <fragmenstein_mode>  (1500) 
expansion

>  <fragmenstein_error>  (1500) 


$$$$
C36039-P54
     RDKit          3D

 42 45  0  0  0  0  0  0  0  0999 V2000
  -11.7333  -26.0590   31.7886 O   0  0  0  0  0  0  0  0  0  0  0  0
  -10.7730  -25.6611   31.2474 C   0  0  0  0  0  0  0  0  0  0  0  0
   -9.5091  -24.9346   31.8249 N   0  0  0  0  0  0  0  0  0  0  0  0
   -9.2272  -24.4781   33.1451 C   0  0  0  0  0  0  0  0  0  0  0  0
   -8.8978  -22.9927   33.2392 C   0  0  0  0  0  0  0  0  0  0  0  0
   -9.9394  -22.1761   33.9748 C   0  0  0  0  0  0  0  0  0  0  0  0
  -11.0049  -21.9786   32.9150 C   0  0  0  0  0  0  0  0  0  0  0  0
  -10.2480  -21.6937   31.7293 N   0  0  0  0  0  0  0  0  0  0  0  0
  -10.8978  -21.8971   30.5326 C   0  0  0  0  0  0  0  0  0  0  0  0
  -10.6266  -21.0423   29.5450 N   0  0  0  0  0  0  0  0  0  0  0  0
  -11.2324  -21.2116   28.3661 C   0  0  0  0  0  0  0  0  0  0  0  0
  -12.0564  -22.2628   28.0970 C   0  0  0  0  0  0  0  0  0  0  0  0
  -12.3206  -23.0785   29.1564 C   0  0  0  0  0  0  0  0  0  0  0  0
  -11.7505  -22.9151   30.3630 N   0  0  0  0  0  0  0  0  0  0  0  0
   -8.9081  -22.2252   31.9286 C   0  0  0  0  0  0  0  0  0  0  0  0
  -10.6178  -25.7672   29.7687 C   0  0  0  0  0  0  0  0  0  0  0  0
  -11.1151  -26.8976   28.9640 C   0  0  0  0  0  0  0  0  0  0  0  0
  -10.9427  -26.9157   27.6257 C   0  0  0  0  0  0  0  0  0  0  0  0
  -10.4356  -25.7479   26.9995 C   0  0  0  0  0  0  0  0  0  0  0  0
  -10.6151  -25.2637   25.8008 N   0  0  0  0  0  0  0  0  0  0  0  0
  -10.3095  -23.9259   25.8919 C   0  0  0  0  0  0  0  0  0  0  0  0
   -9.7308  -23.6468   27.0949 C   0  0  0  0  0  0  0  0  0  0  0  0
   -9.8826  -24.7853   27.8030 N   0  0  0  0  0  0  0  0  0  0  0  0
   -9.8882  -24.8225   29.1511 C   0  0  0  0  0  0  0  0  0  0  0  0
   -8.8321  -24.8032   31.0929 H   0  0  0  0  0  0  0  0  0  0  0  0
   -8.3744  -25.0635   33.5027 H   0  0  0  0  0  0  0  0  0  0  0  0
  -10.0572  -24.6972   33.7731 H   0  0  0  0  0  0  0  0  0  0  0  0
   -7.9281  -22.8897   33.7400 H   0  0  0  0  0  0  0  0  0  0  0  0
  -10.2642  -22.6008   34.9146 H   0  0  0  0  0  0  0  0  0  0  0  0
   -9.5325  -21.1939   34.1955 H   0  0  0  0  0  0  0  0  0  0  0  0
  -11.7023  -21.1761   33.1692 H   0  0  0  0  0  0  0  0  0  0  0  0
  -11.5027  -22.9106   32.7491 H   0  0  0  0  0  0  0  0  0  0  0  0
  -10.9911  -20.4760   27.6100 H   0  0  0  0  0  0  0  0  0  0  0  0
  -12.4635  -22.4280   27.1084 H   0  0  0  0  0  0  0  0  0  0  0  0
  -12.9832  -23.9318   29.0570 H   0  0  0  0  0  0  0  0  0  0  0  0
   -8.2929  -21.3736   32.1902 H   0  0  0  0  0  0  0  0  0  0  0  0
   -8.4559  -22.7278   31.0738 H   0  0  0  0  0  0  0  0  0  0  0  0
  -11.5731  -27.7297   29.4911 H   0  0  0  0  0  0  0  0  0  0  0  0
  -11.2984  -27.7323   27.0131 H   0  0  0  0  0  0  0  0  0  0  0  0
  -10.4427  -23.2388   25.0664 H   0  0  0  0  0  0  0  0  0  0  0  0
   -9.3220  -22.7408   27.5143 H   0  0  0  0  0  0  0  0  0  0  0  0
   -9.4764  -23.9391   29.6073 H   0  0  0  0  0  0  0  0  0  0  0  0
  1  2  2  0
  2  3  1  0
  3  4  1  0
  4  5  1  0
  5  6  1  0
  6  7  1  0
  7  8  1  0
  8  9  1  0
  9 10  2  0
 10 11  1  0
 11 12  2  0
 12 13  1  0
 13 14  2  0
  8 15  1  0
  2 16  1  0
 16 17  1  0
 17 18  2  0
 18 19  1  0
 19 20  2  0
 20 21  1  0
 21 22  2  0
 22 23  1  0
 23 24  1  0
 15  5  1  0
 24 16  2  0
 14  9  1  0
 23 19  1  0
  3 25  1  0
  4 26  1  0
  4 27  1  0
  5 28  1  0
  6 29  1  0
  6 30  1  0
  7 31  1  0
  7 32  1  0
 11 33  1  0
 12 34  1  0
 13 35  1  0
 15 36  1  0
 15 37  1  0
 17 38  1  0
 18 39  1  0
 21 40  1  0
 22 41  1  0
 24 42  1  0
M  END
>  <Energy>  (1501) 
5.7745034801266355

>  <compound_id>  (1501) 
36039

>  <target_id>  (1501) 
1

>  <reference_id>  (1501) 
54

>  <inspiration_ids>  (1501) 
[45, 54]

>  <energy_score>  (1501) 
21.118942974951466

>  <distance_score>  (1501) 
3.2822911072585397

>  <path>  (1501) 
/opt/xchem-fragalysis-2/maxwin/BulkDock/SCRATCH/511013/C36039-P54/C36039-P54.minimised.mol

>  <scratch_subdir>  (1501) 
/opt/xchem-fragalysis-2/maxwin/BulkDock/SCRATCH/511013/C36039-P54

>  <fragmenstein_runtime>  (1501) 
8.076446056365967

>  <fragmenstein_outcome>  (1501) 
too moved

>  <fragmenstein_mode>  (1501) 
expansion

>  <fragmenstein_error>  (1501) 


$$$$
C36040-P45
     RDKit          3D

 42 45  0  0  0  0  0  0  0  0999 V2000
   -8.6599  -25.2100   29.0500 O   0  0  0  0  0  0  0  0  0  0  0  0
   -9.3284  -26.1976   29.0967 C   0  0  0  0  0  0  0  0  0  0  0  0
   -9.9191  -26.8530   30.1865 N   0  0  0  0  0  0  0  0  0  0  0  0
   -9.8298  -26.6022   31.5959 C   0  0  0  0  0  0  0  0  0  0  0  0
   -9.7878  -25.1157   32.0204 C   0  0  0  0  0  0  0  0  0  0  0  0
   -9.7140  -25.0372   33.5602 C   0  0  0  0  0  0  0  0  0  0  0  0
  -11.0511  -24.4186   33.9570 C   0  0  0  0  0  0  0  0  0  0  0  0
  -11.1952  -23.3773   32.8878 C   0  0  0  0  0  0  0  0  0  0  0  0
  -10.9088  -24.1804   31.7192 N   0  0  0  0  0  0  0  0  0  0  0  0
  -11.2455  -23.6650   30.5072 C   0  0  0  0  0  0  0  0  0  0  0  0
  -11.4849  -22.3567   30.3907 N   0  0  0  0  0  0  0  0  0  0  0  0
  -11.7404  -21.9280   29.1536 C   0  0  0  0  0  0  0  0  0  0  0  0
  -11.8055  -22.7243   28.0530 C   0  0  0  0  0  0  0  0  0  0  0  0
  -11.8011  -24.0456   28.3372 C   0  0  0  0  0  0  0  0  0  0  0  0
  -11.5129  -24.5426   29.5398 N   0  0  0  0  0  0  0  0  0  0  0  0
   -9.5266  -26.9920   27.7647 C   0  0  0  0  0  0  0  0  0  0  0  0
  -10.1618  -26.1542   26.7469 C   0  0  0  0  0  0  0  0  0  0  0  0
   -9.4453  -25.1693   26.1701 C   0  0  0  0  0  0  0  0  0  0  0  0
   -8.0367  -25.1220   26.4343 C   0  0  0  0  0  0  0  0  0  0  0  0
   -7.1245  -24.1725   26.4135 N   0  0  0  0  0  0  0  0  0  0  0  0
   -5.9653  -24.7887   26.8179 C   0  0  0  0  0  0  0  0  0  0  0  0
   -6.1293  -26.1491   26.9382 C   0  0  0  0  0  0  0  0  0  0  0  0
   -7.4831  -26.3256   26.8681 N   0  0  0  0  0  0  0  0  0  0  0  0
   -8.2792  -27.3676   27.3723 C   0  0  0  0  0  0  0  0  0  0  0  0
  -10.3445  -27.7056   29.8623 H   0  0  0  0  0  0  0  0  0  0  0  0
   -8.8365  -26.9804   31.8327 H   0  0  0  0  0  0  0  0  0  0  0  0
  -10.4977  -27.2513   32.1559 H   0  0  0  0  0  0  0  0  0  0  0  0
   -8.8654  -24.7073   31.6175 H   0  0  0  0  0  0  0  0  0  0  0  0
   -9.5715  -25.9897   34.0625 H   0  0  0  0  0  0  0  0  0  0  0  0
   -8.8617  -24.3980   33.8024 H   0  0  0  0  0  0  0  0  0  0  0  0
  -11.7806  -25.2150   33.9452 H   0  0  0  0  0  0  0  0  0  0  0  0
  -11.2324  -23.9928   34.9341 H   0  0  0  0  0  0  0  0  0  0  0  0
  -10.4508  -22.6007   32.9886 H   0  0  0  0  0  0  0  0  0  0  0  0
  -12.1462  -22.8480   32.9332 H   0  0  0  0  0  0  0  0  0  0  0  0
  -11.9451  -20.8791   29.0774 H   0  0  0  0  0  0  0  0  0  0  0  0
  -11.9459  -22.3576   27.0533 H   0  0  0  0  0  0  0  0  0  0  0  0
  -12.0708  -24.7598   27.5796 H   0  0  0  0  0  0  0  0  0  0  0  0
  -11.1956  -26.3518   26.4988 H   0  0  0  0  0  0  0  0  0  0  0  0
   -9.9019  -24.5171   25.4425 H   0  0  0  0  0  0  0  0  0  0  0  0
   -5.0568  -24.2356   26.9828 H   0  0  0  0  0  0  0  0  0  0  0  0
   -5.4406  -26.9414   27.1917 H   0  0  0  0  0  0  0  0  0  0  0  0
   -7.7115  -28.1402   27.8454 H   0  0  0  0  0  0  0  0  0  0  0  0
  1  2  2  0
  2  3  1  0
  3  4  1  0
  4  5  1  0
  5  6  1  0
  6  7  1  0
  7  8  1  0
  8  9  1  0
  9 10  1  0
 10 11  2  0
 11 12  1  0
 12 13  2  0
 13 14  1  0
 14 15  2  0
  2 16  1  0
 16 17  1  0
 17 18  2  0
 18 19  1  0
 19 20  2  0
 20 21  1  0
 21 22  2  0
 22 23  1  0
 23 24  1  0
  9  5  1  0
 15 10  1  0
 24 16  2  0
 23 19  1  0
  3 25  1  0
  4 26  1  0
  4 27  1  0
  5 28  1  0
  6 29  1  0
  6 30  1  0
  7 31  1  0
  7 32  1  0
  8 33  1  0
  8 34  1  0
 12 35  1  0
 13 36  1  0
 14 37  1  0
 17 38  1  0
 18 39  1  0
 21 40  1  0
 22 41  1  0
 24 42  1  0
M  END
>  <Energy>  (1502) 
60.120917741025004

>  <compound_id>  (1502) 
36040

>  <target_id>  (1502) 
1

>  <reference_id>  (1502) 
45

>  <inspiration_ids>  (1502) 
[45, 54]

>  <energy_score>  (1502) 
59.200135140149314

>  <distance_score>  (1502) 
2.2048254070385958

>  <path>  (1502) 
/opt/xchem-fragalysis-2/maxwin/BulkDock/SCRATCH/511013/C36040-P45/C36040-P45.minimised.mol

>  <scratch_subdir>  (1502) 
/opt/xchem-fragalysis-2/maxwin/BulkDock/SCRATCH/511013/C36040-P45

>  <fragmenstein_runtime>  (1502) 
6.556063890457153

>  <fragmenstein_outcome>  (1502) 
too moved

>  <fragmenstein_mode>  (1502) 
expansion

>  <fragmenstein_error>  (1502) 


$$$$
C36040-P54
     RDKit          3D

 42 45  0  0  0  0  0  0  0  0999 V2000
  -12.1025  -28.8322   31.3096 O   0  0  0  0  0  0  0  0  0  0  0  0
  -11.8310  -28.0959   30.4126 C   0  0  0  0  0  0  0  0  0  0  0  0
  -11.3554  -26.7348   30.4231 N   0  0  0  0  0  0  0  0  0  0  0  0
  -11.1540  -25.8222   31.5031 C   0  0  0  0  0  0  0  0  0  0  0  0
  -10.0666  -24.7274   31.3723 C   0  0  0  0  0  0  0  0  0  0  0  0
   -9.2160  -24.5838   32.6622 C   0  0  0  0  0  0  0  0  0  0  0  0
   -9.4243  -23.1678   33.1793 C   0  0  0  0  0  0  0  0  0  0  0  0
   -9.8546  -22.4107   31.9415 C   0  0  0  0  0  0  0  0  0  0  0  0
  -10.6471  -23.3924   31.2188 N   0  0  0  0  0  0  0  0  0  0  0  0
  -11.0361  -23.0473   29.9401 C   0  0  0  0  0  0  0  0  0  0  0  0
  -10.7344  -21.8291   29.4709 N   0  0  0  0  0  0  0  0  0  0  0  0
  -11.0762  -21.5428   28.2064 C   0  0  0  0  0  0  0  0  0  0  0  0
  -11.7358  -22.4193   27.3919 C   0  0  0  0  0  0  0  0  0  0  0  0
  -12.0871  -23.6011   27.9824 C   0  0  0  0  0  0  0  0  0  0  0  0
  -11.7145  -23.9580   29.2218 N   0  0  0  0  0  0  0  0  0  0  0  0
  -11.9396  -28.5742   28.9903 C   0  0  0  0  0  0  0  0  0  0  0  0
  -13.1871  -28.3209   28.2846 C   0  0  0  0  0  0  0  0  0  0  0  0
  -13.1861  -27.6002   27.1516 C   0  0  0  0  0  0  0  0  0  0  0  0
  -11.9537  -27.0490   26.7217 C   0  0  0  0  0  0  0  0  0  0  0  0
  -11.7188  -25.9604   26.0408 N   0  0  0  0  0  0  0  0  0  0  0  0
  -10.3921  -25.7195   26.2269 C   0  0  0  0  0  0  0  0  0  0  0  0
   -9.7569  -26.7811   26.8187 C   0  0  0  0  0  0  0  0  0  0  0  0
  -10.7813  -27.5734   27.2586 N   0  0  0  0  0  0  0  0  0  0  0  0
  -10.7671  -28.4640   28.3279 C   0  0  0  0  0  0  0  0  0  0  0  0
  -11.3110  -26.3905   29.4685 H   0  0  0  0  0  0  0  0  0  0  0  0
  -11.0503  -26.4220   32.4123 H   0  0  0  0  0  0  0  0  0  0  0  0
  -12.1133  -25.3526   31.5350 H   0  0  0  0  0  0  0  0  0  0  0  0
   -9.3963  -24.9292   30.5322 H   0  0  0  0  0  0  0  0  0  0  0  0
   -9.4399  -25.3317   33.4187 H   0  0  0  0  0  0  0  0  0  0  0  0
   -8.1635  -24.7300   32.4339 H   0  0  0  0  0  0  0  0  0  0  0  0
  -10.2163  -23.1427   33.9294 H   0  0  0  0  0  0  0  0  0  0  0  0
   -8.5217  -22.7492   33.6346 H   0  0  0  0  0  0  0  0  0  0  0  0
   -8.9572  -22.1501   31.3765 H   0  0  0  0  0  0  0  0  0  0  0  0
  -10.4204  -21.5086   32.1954 H   0  0  0  0  0  0  0  0  0  0  0  0
  -10.8090  -20.5469   27.8706 H   0  0  0  0  0  0  0  0  0  0  0  0
  -12.0202  -22.1727   26.3789 H   0  0  0  0  0  0  0  0  0  0  0  0
  -12.7120  -24.3137   27.4575 H   0  0  0  0  0  0  0  0  0  0  0  0
  -14.1045  -28.7081   28.7179 H   0  0  0  0  0  0  0  0  0  0  0  0
  -14.0990  -27.3480   26.6251 H   0  0  0  0  0  0  0  0  0  0  0  0
   -9.9882  -24.7863   25.8789 H   0  0  0  0  0  0  0  0  0  0  0  0
   -8.7243  -26.9560   27.0870 H   0  0  0  0  0  0  0  0  0  0  0  0
   -9.8049  -28.6158   28.7953 H   0  0  0  0  0  0  0  0  0  0  0  0
  1  2  2  0
  2  3  1  0
  3  4  1  0
  4  5  1  0
  5  6  1  0
  6  7  1  0
  7  8  1  0
  8  9  1  0
  9 10  1  0
 10 11  2  0
 11 12  1  0
 12 13  2  0
 13 14  1  0
 14 15  2  0
  2 16  1  0
 16 17  1  0
 17 18  2  0
 18 19  1  0
 19 20  2  0
 20 21  1  0
 21 22  2  0
 22 23  1  0
 23 24  1  0
  9  5  1  0
 15 10  1  0
 24 16  2  0
 23 19  1  0
  3 25  1  0
  4 26  1  0
  4 27  1  0
  5 28  1  0
  6 29  1  0
  6 30  1  0
  7 31  1  0
  7 32  1  0
  8 33  1  0
  8 34  1  0
 12 35  1  0
 13 36  1  0
 14 37  1  0
 17 38  1  0
 18 39  1  0
 21 40  1  0
 22 41  1  0
 24 42  1  0
M  END
>  <Energy>  (1503) 
-0.78919473498644965

>  <compound_id>  (1503) 
36040

>  <target_id>  (1503) 
1

>  <reference_id>  (1503) 
54

>  <inspiration_ids>  (1503) 
[45, 54]

>  <energy_score>  (1503) 
-1.7099773358603159

>  <distance_score>  (1503) 
3.735585892764874

>  <path>  (1503) 
/opt/xchem-fragalysis-2/maxwin/BulkDock/SCRATCH/511013/C36040-P54/C36040-P54.minimised.mol

>  <scratch_subdir>  (1503) 
/opt/xchem-fragalysis-2/maxwin/BulkDock/SCRATCH/511013/C36040-P54

>  <fragmenstein_runtime>  (1503) 
7.967329025268555

>  <fragmenstein_outcome>  (1503) 
too moved

>  <fragmenstein_mode>  (1503) 
expansion

>  <fragmenstein_error>  (1503) 


$$$$
C36041-P45
     RDKit          3D

 45 48  0  0  0  0  0  0  0  0999 V2000
  -10.8680  -27.8224   29.3125 O   0  0  0  0  0  0  0  0  0  0  0  0
   -9.9617  -27.1123   28.9853 C   0  0  0  0  0  0  0  0  0  0  0  0
   -9.2726  -26.0585   29.7096 N   0  0  0  0  0  0  0  0  0  0  0  0
   -9.5281  -25.4855   30.9871 C   0  0  0  0  0  0  0  0  0  0  0  0
   -9.0462  -25.3941   32.4373 C   0  0  0  0  0  0  0  0  0  0  0  0
   -9.0827  -23.9987   33.1827 C   0  0  0  0  0  0  0  0  0  0  0  0
  -10.3711  -23.0661   33.1246 C   0  0  0  0  0  0  0  0  0  0  0  0
  -11.3611  -23.8457   32.5704 N   0  0  0  0  0  0  0  0  0  0  0  0
  -11.5676  -23.4489   31.2457 C   0  0  0  0  0  0  0  0  0  0  0  0
  -11.5595  -22.1681   30.8692 N   0  0  0  0  0  0  0  0  0  0  0  0
  -11.6924  -21.9118   29.5456 C   0  0  0  0  0  0  0  0  0  0  0  0
  -11.8048  -22.8292   28.5453 C   0  0  0  0  0  0  0  0  0  0  0  0
  -11.9270  -24.0855   29.0132 C   0  0  0  0  0  0  0  0  0  0  0  0
  -11.8449  -24.3753   30.3205 N   0  0  0  0  0  0  0  0  0  0  0  0
  -11.2908  -25.0366   33.5622 C   0  0  0  0  0  0  0  0  0  0  0  0
  -10.1698  -26.0534   33.2845 C   0  0  0  0  0  0  0  0  0  0  0  0
   -9.4582  -27.1936   27.5602 C   0  0  0  0  0  0  0  0  0  0  0  0
  -10.1276  -26.1797   26.7587 C   0  0  0  0  0  0  0  0  0  0  0  0
   -9.4458  -25.0938   26.3753 C   0  0  0  0  0  0  0  0  0  0  0  0
   -8.0441  -25.0436   26.6254 C   0  0  0  0  0  0  0  0  0  0  0  0
   -7.1887  -24.0507   26.7289 N   0  0  0  0  0  0  0  0  0  0  0  0
   -5.9804  -24.6421   26.9901 C   0  0  0  0  0  0  0  0  0  0  0  0
   -6.0822  -26.0131   26.9840 C   0  0  0  0  0  0  0  0  0  0  0  0
   -7.4269  -26.2593   26.9128 N   0  0  0  0  0  0  0  0  0  0  0  0
   -8.1432  -27.3804   27.3365 C   0  0  0  0  0  0  0  0  0  0  0  0
   -8.6096  -25.6121   29.0926 H   0  0  0  0  0  0  0  0  0  0  0  0
  -10.4431  -26.0159   31.0894 H   0  0  0  0  0  0  0  0  0  0  0  0
   -9.6084  -24.4753   30.6772 H   0  0  0  0  0  0  0  0  0  0  0  0
   -8.0843  -25.8857   32.5763 H   0  0  0  0  0  0  0  0  0  0  0  0
   -8.2483  -23.3918   33.4244 H   0  0  0  0  0  0  0  0  0  0  0  0
   -8.9653  -24.4433   34.1653 H   0  0  0  0  0  0  0  0  0  0  0  0
  -10.3562  -22.0495   32.7461 H   0  0  0  0  0  0  0  0  0  0  0  0
  -10.8155  -22.8486   34.0952 H   0  0  0  0  0  0  0  0  0  0  0  0
  -11.7380  -20.8763   29.2859 H   0  0  0  0  0  0  0  0  0  0  0  0
  -11.8813  -22.5691   27.5020 H   0  0  0  0  0  0  0  0  0  0  0  0
  -12.1351  -24.9293   28.3708 H   0  0  0  0  0  0  0  0  0  0  0  0
  -12.1849  -25.4205   34.0293 H   0  0  0  0  0  0  0  0  0  0  0  0
  -11.0322  -24.6365   34.5513 H   0  0  0  0  0  0  0  0  0  0  0  0
   -9.7950  -26.3159   34.2749 H   0  0  0  0  0  0  0  0  0  0  0  0
  -10.5136  -26.9952   32.8518 H   0  0  0  0  0  0  0  0  0  0  0  0
  -11.1899  -26.2956   26.5740 H   0  0  0  0  0  0  0  0  0  0  0  0
   -9.9675  -24.3088   25.8547 H   0  0  0  0  0  0  0  0  0  0  0  0
   -5.0925  -24.0582   27.1736 H   0  0  0  0  0  0  0  0  0  0  0  0
   -5.3491  -26.7948   27.1303 H   0  0  0  0  0  0  0  0  0  0  0  0
   -7.5517  -28.1415   27.7989 H   0  0  0  0  0  0  0  0  0  0  0  0
  1  2  2  0
  2  3  1  0
  3  4  1  0
  4  5  1  0
  5  6  1  0
  6  7  1  0
  7  8  1  0
  8  9  1  0
  9 10  2  0
 10 11  1  0
 11 12  2  0
 12 13  1  0
 13 14  2  0
  8 15  1  0
 15 16  1  0
  2 17  1  0
 17 18  1  0
 18 19  2  0
 19 20  1  0
 20 21  2  0
 21 22  1  0
 22 23  2  0
 23 24  1  0
 24 25  1  0
 16  5  1  0
 25 17  2  0
 14  9  1  0
 24 20  1  0
  3 26  1  0
  4 27  1  0
  4 28  1  0
  5 29  1  0
  6 30  1  0
  6 31  1  0
  7 32  1  0
  7 33  1  0
 11 34  1  0
 12 35  1  0
 13 36  1  0
 15 37  1  0
 15 38  1  0
 16 39  1  0
 16 40  1  0
 18 41  1  0
 19 42  1  0
 22 43  1  0
 23 44  1  0
 25 45  1  0
M  END
>  <Energy>  (1504) 
134.88586676406507

>  <compound_id>  (1504) 
36041

>  <target_id>  (1504) 
1

>  <reference_id>  (1504) 
45

>  <inspiration_ids>  (1504) 
[45, 54]

>  <energy_score>  (1504) 
154.9460281953771

>  <distance_score>  (1504) 
2.2611218900016445

>  <path>  (1504) 
/opt/xchem-fragalysis-2/maxwin/BulkDock/SCRATCH/511013/C36041-P45/C36041-P45.minimised.mol

>  <scratch_subdir>  (1504) 
/opt/xchem-fragalysis-2/maxwin/BulkDock/SCRATCH/511013/C36041-P45

>  <fragmenstein_runtime>  (1504) 
8.5595064163208

>  <fragmenstein_outcome>  (1504) 
too moved

>  <fragmenstein_mode>  (1504) 
expansion

>  <fragmenstein_error>  (1504) 


$$$$
C36041-P54
     RDKit          3D

 45 48  0  0  0  0  0  0  0  0999 V2000
  -11.8615  -28.2444   31.7066 O   0  0  0  0  0  0  0  0  0  0  0  0
  -11.7478  -27.6917   30.6543 C   0  0  0  0  0  0  0  0  0  0  0  0
  -11.3020  -26.3511   30.3334 N   0  0  0  0  0  0  0  0  0  0  0  0
  -10.9520  -25.2512   31.1800 C   0  0  0  0  0  0  0  0  0  0  0  0
   -9.7911  -24.3070   30.8083 C   0  0  0  0  0  0  0  0  0  0  0  0
  -10.1081  -22.8845   31.2979 C   0  0  0  0  0  0  0  0  0  0  0  0
  -11.1622  -22.1884   30.4279 C   0  0  0  0  0  0  0  0  0  0  0  0
  -11.0157  -22.5136   29.0144 N   0  0  0  0  0  0  0  0  0  0  0  0
  -12.0373  -23.1493   28.3323 C   0  0  0  0  0  0  0  0  0  0  0  0
  -12.0621  -22.9716   27.0043 N   0  0  0  0  0  0  0  0  0  0  0  0
  -13.0742  -23.5196   26.3133 C   0  0  0  0  0  0  0  0  0  0  0  0
  -14.0330  -24.3117   26.8833 C   0  0  0  0  0  0  0  0  0  0  0  0
  -13.9027  -24.4864   28.2355 C   0  0  0  0  0  0  0  0  0  0  0  0
  -12.9385  -23.9061   28.9779 N   0  0  0  0  0  0  0  0  0  0  0  0
   -9.7362  -23.0167   28.5738 C   0  0  0  0  0  0  0  0  0  0  0  0
   -9.3680  -24.2799   29.3314 C   0  0  0  0  0  0  0  0  0  0  0  0
  -11.9889  -28.4457   29.3670 C   0  0  0  0  0  0  0  0  0  0  0  0
  -13.2436  -28.2489   28.6552 C   0  0  0  0  0  0  0  0  0  0  0  0
  -13.2386  -27.7403   27.4107 C   0  0  0  0  0  0  0  0  0  0  0  0
  -11.9951  -27.3076   26.8835 C   0  0  0  0  0  0  0  0  0  0  0  0
  -11.7168  -26.3109   26.0865 N   0  0  0  0  0  0  0  0  0  0  0  0
  -10.3775  -26.1207   26.2394 C   0  0  0  0  0  0  0  0  0  0  0  0
   -9.7818  -27.1821   26.8735 C   0  0  0  0  0  0  0  0  0  0  0  0
  -10.8394  -27.8285   27.4541 N   0  0  0  0  0  0  0  0  0  0  0  0
  -10.8437  -28.5340   28.6518 C   0  0  0  0  0  0  0  0  0  0  0  0
  -11.4134  -26.1936   29.3384 H   0  0  0  0  0  0  0  0  0  0  0  0
  -10.7314  -25.6868   32.1570 H   0  0  0  0  0  0  0  0  0  0  0  0
  -11.8578  -24.6722   31.2536 H   0  0  0  0  0  0  0  0  0  0  0  0
   -8.9266  -24.6532   31.3861 H   0  0  0  0  0  0  0  0  0  0  0  0
   -9.1793  -22.3042   31.2785 H   0  0  0  0  0  0  0  0  0  0  0  0
  -10.4320  -22.8874   32.3453 H   0  0  0  0  0  0  0  0  0  0  0  0
  -11.0441  -21.1041   30.5435 H   0  0  0  0  0  0  0  0  0  0  0  0
  -12.1652  -22.4018   30.7951 H   0  0  0  0  0  0  0  0  0  0  0  0
  -13.0966  -23.2680   25.2597 H   0  0  0  0  0  0  0  0  0  0  0  0
  -14.8363  -24.7532   26.3153 H   0  0  0  0  0  0  0  0  0  0  0  0
  -14.6159  -25.0907   28.7876 H   0  0  0  0  0  0  0  0  0  0  0  0
   -8.9787  -22.2632   28.7357 H   0  0  0  0  0  0  0  0  0  0  0  0
   -9.6877  -23.2012   27.4937 H   0  0  0  0  0  0  0  0  0  0  0  0
   -9.7874  -25.1194   28.7851 H   0  0  0  0  0  0  0  0  0  0  0  0
   -8.2801  -24.3947   29.2653 H   0  0  0  0  0  0  0  0  0  0  0  0
  -14.1625  -28.5303   29.1597 H   0  0  0  0  0  0  0  0  0  0  0  0
  -14.1501  -27.5542   26.8566 H   0  0  0  0  0  0  0  0  0  0  0  0
   -9.9209  -25.2246   25.8581 H   0  0  0  0  0  0  0  0  0  0  0  0
   -8.7515  -27.3967   27.1235 H   0  0  0  0  0  0  0  0  0  0  0  0
   -9.8713  -28.6549   29.1031 H   0  0  0  0  0  0  0  0  0  0  0  0
  1  2  2  0
  2  3  1  0
  3  4  1  0
  4  5  1  0
  5  6  1  0
  6  7  1  0
  7  8  1  0
  8  9  1  0
  9 10  2  0
 10 11  1  0
 11 12  2  0
 12 13  1  0
 13 14  2  0
  8 15  1  0
 15 16  1  0
  2 17  1  0
 17 18  1  0
 18 19  2  0
 19 20  1  0
 20 21  2  0
 21 22  1  0
 22 23  2  0
 23 24  1  0
 24 25  1  0
 16  5  1  0
 25 17  2  0
 14  9  1  0
 24 20  1  0
  3 26  1  0
  4 27  1  0
  4 28  1  0
  5 29  1  0
  6 30  1  0
  6 31  1  0
  7 32  1  0
  7 33  1  0
 11 34  1  0
 12 35  1  0
 13 36  1  0
 15 37  1  0
 15 38  1  0
 16 39  1  0
 16 40  1  0
 18 41  1  0
 19 42  1  0
 22 43  1  0
 23 44  1  0
 25 45  1  0
M  END
>  <Energy>  (1505) 
-4.2446675156089366

>  <compound_id>  (1505) 
36041

>  <target_id>  (1505) 
1

>  <reference_id>  (1505) 
54

>  <inspiration_ids>  (1505) 
[45, 54]

>  <energy_score>  (1505) 
15.815493915707009

>  <distance_score>  (1505) 
4.213234907794477

>  <path>  (1505) 
/opt/xchem-fragalysis-2/maxwin/BulkDock/SCRATCH/511013/C36041-P54/C36041-P54.minimised.mol

>  <scratch_subdir>  (1505) 
/opt/xchem-fragalysis-2/maxwin/BulkDock/SCRATCH/511013/C36041-P54

>  <fragmenstein_runtime>  (1505) 
10.344299077987671

>  <fragmenstein_outcome>  (1505) 
too moved

>  <fragmenstein_mode>  (1505) 
expansion

>  <fragmenstein_error>  (1505) 


$$$$
C36054-P45
     RDKit          3D

 46 50  0  0  0  0  0  0  0  0999 V2000
   -9.7485  -28.0381   27.9690 O   0  0  0  0  0  0  0  0  0  0  0  0
   -9.0876  -27.0701   28.0045 C   0  0  0  0  0  0  0  0  0  0  0  0
   -8.9031  -25.9975   29.1526 N   0  0  0  0  0  0  0  0  0  0  0  0
   -9.5758  -25.8658   30.4417 C   0  0  0  0  0  0  0  0  0  0  0  0
   -8.7858  -25.6193   31.7211 C   0  0  0  0  0  0  0  0  0  0  0  0
   -9.5935  -24.7027   32.6340 C   0  0  0  0  0  0  0  0  0  0  0  0
  -10.6129  -24.0105   31.7502 C   0  0  0  0  0  0  0  0  0  0  0  0
  -10.4898  -24.6508   30.3449 C   0  0  0  0  0  0  0  0  0  0  0  0
  -11.7108  -25.2044   29.7604 N   0  0  0  0  0  0  0  0  0  0  0  0
  -11.9387  -24.6177   28.5166 C   0  0  0  0  0  0  0  0  0  0  0  0
  -11.7054  -23.3075   28.3896 N   0  0  0  0  0  0  0  0  0  0  0  0
  -11.7178  -22.8363   27.1460 C   0  0  0  0  0  0  0  0  0  0  0  0
  -11.9546  -23.5941   26.0246 C   0  0  0  0  0  0  0  0  0  0  0  0
  -12.1813  -24.9112   26.2467 C   0  0  0  0  0  0  0  0  0  0  0  0
  -12.2302  -25.4202   27.4760 N   0  0  0  0  0  0  0  0  0  0  0  0
  -11.6035  -26.6979   29.6521 C   0  0  0  0  0  0  0  0  0  0  0  0
  -10.4454  -27.0587   30.5929 C   0  0  0  0  0  0  0  0  0  0  0  0
   -8.3031  -26.5943   26.8772 C   0  0  0  0  0  0  0  0  0  0  0  0
   -8.3689  -25.1818   26.5883 C   0  0  0  0  0  0  0  0  0  0  0  0
   -7.2636  -24.4449   26.7288 C   0  0  0  0  0  0  0  0  0  0  0  0
   -6.0465  -25.1144   26.9315 C   0  0  0  0  0  0  0  0  0  0  0  0
   -4.8811  -24.6437   27.2603 N   0  0  0  0  0  0  0  0  0  0  0  0
   -4.0550  -25.7184   27.1237 C   0  0  0  0  0  0  0  0  0  0  0  0
   -4.7362  -26.8810   26.8955 C   0  0  0  0  0  0  0  0  0  0  0  0
   -6.0235  -26.4982   26.8080 N   0  0  0  0  0  0  0  0  0  0  0  0
   -7.1541  -27.2776   26.8017 C   0  0  0  0  0  0  0  0  0  0  0  0
   -8.3197  -25.2427   28.8210 H   0  0  0  0  0  0  0  0  0  0  0  0
   -8.5696  -26.5506   32.2254 H   0  0  0  0  0  0  0  0  0  0  0  0
   -7.8112  -25.2137   31.5472 H   0  0  0  0  0  0  0  0  0  0  0  0
  -10.1085  -25.3103   33.3885 H   0  0  0  0  0  0  0  0  0  0  0  0
   -8.9631  -24.0006   33.1796 H   0  0  0  0  0  0  0  0  0  0  0  0
  -10.5863  -22.9303   31.6932 H   0  0  0  0  0  0  0  0  0  0  0  0
  -11.5497  -24.0788   32.2749 H   0  0  0  0  0  0  0  0  0  0  0  0
  -10.0447  -23.9874   29.6215 H   0  0  0  0  0  0  0  0  0  0  0  0
  -11.5213  -21.7779   27.0671 H   0  0  0  0  0  0  0  0  0  0  0  0
  -12.0037  -23.1637   25.0344 H   0  0  0  0  0  0  0  0  0  0  0  0
  -12.3843  -25.6013   25.4362 H   0  0  0  0  0  0  0  0  0  0  0  0
  -12.5468  -27.2065   29.8886 H   0  0  0  0  0  0  0  0  0  0  0  0
  -11.4338  -27.0489   28.6442 H   0  0  0  0  0  0  0  0  0  0  0  0
   -9.9537  -27.9546   30.2947 H   0  0  0  0  0  0  0  0  0  0  0  0
  -10.6340  -27.2720   31.6429 H   0  0  0  0  0  0  0  0  0  0  0  0
   -9.3411  -24.7357   26.4339 H   0  0  0  0  0  0  0  0  0  0  0  0
   -7.2481  -23.3671   26.6774 H   0  0  0  0  0  0  0  0  0  0  0  0
   -2.9848  -25.6320   27.2046 H   0  0  0  0  0  0  0  0  0  0  0  0
   -4.4116  -27.9021   26.7757 H   0  0  0  0  0  0  0  0  0  0  0  0
   -7.0317  -28.3267   27.0444 H   0  0  0  0  0  0  0  0  0  0  0  0
  1  2  2  0
  2  3  1  0
  3  4  1  0
  4  5  1  0
  5  6  1  0
  6  7  1  0
  7  8  1  0
  8  9  1  0
  9 10  1  0
 10 11  2  0
 11 12  1  0
 12 13  2  0
 13 14  1  0
 14 15  2  0
  9 16  1  0
 16 17  1  0
  2 18  1  0
 18 19  1  0
 19 20  2  0
 20 21  1  0
 21 22  2  0
 22 23  1  0
 23 24  2  0
 24 25  1  0
 25 26  1  0
  8  4  1  0
 15 10  1  0
 26 18  2  0
 17  4  1  0
 25 21  1  0
  3 27  1  0
  5 28  1  0
  5 29  1  0
  6 30  1  0
  6 31  1  0
  7 32  1  0
  7 33  1  0
  8 34  1  0
 12 35  1  0
 13 36  1  0
 14 37  1  0
 16 38  1  0
 16 39  1  0
 17 40  1  0
 17 41  1  0
 19 42  1  0
 20 43  1  0
 23 44  1  0
 24 45  1  0
 26 46  1  0
M  END
>  <Energy>  (1506) 
52.334274467637037

>  <compound_id>  (1506) 
36054

>  <target_id>  (1506) 
1

>  <reference_id>  (1506) 
45

>  <inspiration_ids>  (1506) 
[45, 54]

>  <energy_score>  (1506) 
43.66039592518439

>  <distance_score>  (1506) 
2.78884174658757

>  <path>  (1506) 
/opt/xchem-fragalysis-2/maxwin/BulkDock/SCRATCH/511013/C36054-P45/C36054-P45.minimised.mol

>  <scratch_subdir>  (1506) 
/opt/xchem-fragalysis-2/maxwin/BulkDock/SCRATCH/511013/C36054-P45

>  <fragmenstein_runtime>  (1506) 
8.13829255104065

>  <fragmenstein_outcome>  (1506) 
too moved

>  <fragmenstein_mode>  (1506) 
expansion

>  <fragmenstein_error>  (1506) 


$$$$
C36054-P54
     RDKit          3D

 46 50  0  0  0  0  0  0  0  0999 V2000
  -11.9320  -29.2677   30.3530 O   0  0  0  0  0  0  0  0  0  0  0  0
  -11.4817  -28.5368   29.5235 C   0  0  0  0  0  0  0  0  0  0  0  0
  -11.2514  -27.1148   29.5457 N   0  0  0  0  0  0  0  0  0  0  0  0
  -11.5807  -26.1232   30.5244 C   0  0  0  0  0  0  0  0  0  0  0  0
  -10.4785  -25.2258   31.0979 C   0  0  0  0  0  0  0  0  0  0  0  0
  -10.9176  -23.7651   31.0275 C   0  0  0  0  0  0  0  0  0  0  0  0
  -11.8567  -23.6886   29.8483 C   0  0  0  0  0  0  0  0  0  0  0  0
  -12.3426  -25.1109   29.6007 C   0  0  0  0  0  0  0  0  0  0  0  0
  -13.7486  -25.4433   29.7990 N   0  0  0  0  0  0  0  0  0  0  0  0
  -14.4955  -25.3353   28.6350 C   0  0  0  0  0  0  0  0  0  0  0  0
  -14.1410  -24.3871   27.7505 N   0  0  0  0  0  0  0  0  0  0  0  0
  -14.8563  -24.2839   26.6208 C   0  0  0  0  0  0  0  0  0  0  0  0
  -15.9439  -25.0694   26.3544 C   0  0  0  0  0  0  0  0  0  0  0  0
  -16.2412  -25.9987   27.3180 C   0  0  0  0  0  0  0  0  0  0  0  0
  -15.5303  -26.1626   28.4458 N   0  0  0  0  0  0  0  0  0  0  0  0
  -13.8987  -26.6959   30.5566 C   0  0  0  0  0  0  0  0  0  0  0  0
  -12.6345  -26.7326   31.4297 C   0  0  0  0  0  0  0  0  0  0  0  0
  -11.1597  -29.0724   28.1410 C   0  0  0  0  0  0  0  0  0  0  0  0
  -12.4317  -28.9300   27.3818 C   0  0  0  0  0  0  0  0  0  0  0  0
  -12.6146  -27.8834   26.5532 C   0  0  0  0  0  0  0  0  0  0  0  0
  -11.5244  -26.9942   26.3594 C   0  0  0  0  0  0  0  0  0  0  0  0
  -11.5365  -25.7186   26.0695 N   0  0  0  0  0  0  0  0  0  0  0  0
  -10.3088  -25.2536   26.4182 C   0  0  0  0  0  0  0  0  0  0  0  0
   -9.4713  -26.2887   26.7645 C   0  0  0  0  0  0  0  0  0  0  0  0
  -10.2556  -27.4139   26.7806 N   0  0  0  0  0  0  0  0  0  0  0  0
  -10.0373  -28.5620   27.5769 C   0  0  0  0  0  0  0  0  0  0  0  0
  -10.7874  -26.8472   28.7103 H   0  0  0  0  0  0  0  0  0  0  0  0
  -10.1899  -25.4947   32.1166 H   0  0  0  0  0  0  0  0  0  0  0  0
   -9.5916  -25.2560   30.4694 H   0  0  0  0  0  0  0  0  0  0  0  0
  -11.4051  -23.4239   31.9342 H   0  0  0  0  0  0  0  0  0  0  0  0
  -10.0547  -23.1025   30.8916 H   0  0  0  0  0  0  0  0  0  0  0  0
  -11.2725  -23.3644   28.9758 H   0  0  0  0  0  0  0  0  0  0  0  0
  -12.6395  -22.9359   29.9589 H   0  0  0  0  0  0  0  0  0  0  0  0
  -12.0804  -25.2985   28.5555 H   0  0  0  0  0  0  0  0  0  0  0  0
  -14.5251  -23.5091   25.9364 H   0  0  0  0  0  0  0  0  0  0  0  0
  -16.5487  -24.9559   25.4678 H   0  0  0  0  0  0  0  0  0  0  0  0
  -17.0960  -26.6597   27.2128 H   0  0  0  0  0  0  0  0  0  0  0  0
  -14.8028  -26.6843   31.1755 H   0  0  0  0  0  0  0  0  0  0  0  0
  -13.9483  -27.5713   29.9000 H   0  0  0  0  0  0  0  0  0  0  0  0
  -12.7565  -26.1822   32.3328 H   0  0  0  0  0  0  0  0  0  0  0  0
  -12.4156  -27.7281   31.8161 H   0  0  0  0  0  0  0  0  0  0  0  0
  -13.2354  -29.6227   27.6162 H   0  0  0  0  0  0  0  0  0  0  0  0
  -13.5644  -27.6741   26.0766 H   0  0  0  0  0  0  0  0  0  0  0  0
  -10.1191  -24.1881   26.3982 H   0  0  0  0  0  0  0  0  0  0  0  0
   -8.4528  -26.3120   27.1231 H   0  0  0  0  0  0  0  0  0  0  0  0
   -9.0715  -28.6000   28.0676 H   0  0  0  0  0  0  0  0  0  0  0  0
  1  2  2  0
  2  3  1  0
  3  4  1  0
  4  5  1  0
  5  6  1  0
  6  7  1  0
  7  8  1  0
  8  9  1  0
  9 10  1  0
 10 11  2  0
 11 12  1  0
 12 13  2  0
 13 14  1  0
 14 15  2  0
  9 16  1  0
 16 17  1  0
  2 18  1  0
 18 19  1  0
 19 20  2  0
 20 21  1  0
 21 22  2  0
 22 23  1  0
 23 24  2  0
 24 25  1  0
 25 26  1  0
  8  4  1  0
 15 10  1  0
 26 18  2  0
 17  4  1  0
 25 21  1  0
  3 27  1  0
  5 28  1  0
  5 29  1  0
  6 30  1  0
  6 31  1  0
  7 32  1  0
  7 33  1  0
  8 34  1  0
 12 35  1  0
 13 36  1  0
 14 37  1  0
 16 38  1  0
 16 39  1  0
 17 40  1  0
 17 41  1  0
 19 42  1  0
 20 43  1  0
 23 44  1  0
 24 45  1  0
 26 46  1  0
M  END
>  <Energy>  (1507) 
57.194927789760172

>  <compound_id>  (1507) 
36054

>  <target_id>  (1507) 
1

>  <reference_id>  (1507) 
54

>  <inspiration_ids>  (1507) 
[45, 54]

>  <energy_score>  (1507) 
50.756686737299816

>  <distance_score>  (1507) 
4.65288678623489

>  <path>  (1507) 
/opt/xchem-fragalysis-2/maxwin/BulkDock/SCRATCH/511013/C36054-P54/C36054-P54.minimised.mol

>  <scratch_subdir>  (1507) 
/opt/xchem-fragalysis-2/maxwin/BulkDock/SCRATCH/511013/C36054-P54

>  <fragmenstein_runtime>  (1507) 
13.864084482192993

>  <fragmenstein_outcome>  (1507) 
too moved

>  <fragmenstein_mode>  (1507) 
expansion

>  <fragmenstein_error>  (1507) 


$$$$
C36056-P45
     RDKit          3D

 40 44  0  0  0  0  0  0  0  0999 V2000
   -7.6749  -24.3315   29.1147 O   0  0  0  0  0  0  0  0  0  0  0  0
   -8.5588  -25.0715   29.4574 C   0  0  0  0  0  0  0  0  0  0  0  0
   -9.0335  -25.4242   30.7709 N   0  0  0  0  0  0  0  0  0  0  0  0
   -8.5297  -25.0690   32.1078 C   0  0  0  0  0  0  0  0  0  0  0  0
   -9.0679  -23.8794   33.0710 C   0  0  0  0  0  0  0  0  0  0  0  0
  -10.4350  -23.1912   33.0502 C   0  0  0  0  0  0  0  0  0  0  0  0
  -11.1426  -24.1442   32.3122 N   0  0  0  0  0  0  0  0  0  0  0  0
  -11.3049  -23.7251   30.9957 C   0  0  0  0  0  0  0  0  0  0  0  0
  -11.4972  -22.4303   30.6993 N   0  0  0  0  0  0  0  0  0  0  0  0
  -11.7448  -22.1122   29.4155 C   0  0  0  0  0  0  0  0  0  0  0  0
  -11.8841  -23.0158   28.4056 C   0  0  0  0  0  0  0  0  0  0  0  0
  -11.8160  -24.3108   28.8109 C   0  0  0  0  0  0  0  0  0  0  0  0
  -11.4895  -24.6805   30.0623 N   0  0  0  0  0  0  0  0  0  0  0  0
  -10.7232  -25.4385   33.0665 C   0  0  0  0  0  0  0  0  0  0  0  0
   -9.3174  -25.2760   33.3212 C   0  0  0  0  0  0  0  0  0  0  0  0
   -9.2435  -25.7613   28.2368 C   0  0  0  0  0  0  0  0  0  0  0  0
   -9.0215  -24.8761   27.0692 C   0  0  0  0  0  0  0  0  0  0  0  0
   -7.8028  -24.9000   26.4984 C   0  0  0  0  0  0  0  0  0  0  0  0
   -6.9918  -26.0303   26.7341 C   0  0  0  0  0  0  0  0  0  0  0  0
   -5.7097  -26.2610   26.6077 N   0  0  0  0  0  0  0  0  0  0  0  0
   -5.6087  -27.6238   26.6651 C   0  0  0  0  0  0  0  0  0  0  0  0
   -6.8331  -28.1999   26.9360 C   0  0  0  0  0  0  0  0  0  0  0  0
   -7.6501  -27.1427   27.2236 N   0  0  0  0  0  0  0  0  0  0  0  0
   -8.8109  -27.0238   28.0096 C   0  0  0  0  0  0  0  0  0  0  0  0
   -9.8517  -26.0141   30.6783 H   0  0  0  0  0  0  0  0  0  0  0  0
   -7.4912  -25.3447   32.2310 H   0  0  0  0  0  0  0  0  0  0  0  0
   -8.3782  -23.4098   33.7486 H   0  0  0  0  0  0  0  0  0  0  0  0
  -10.9202  -23.1816   34.0313 H   0  0  0  0  0  0  0  0  0  0  0  0
  -10.5340  -22.1531   32.7312 H   0  0  0  0  0  0  0  0  0  0  0  0
  -11.8646  -21.0607   29.2183 H   0  0  0  0  0  0  0  0  0  0  0  0
  -12.0864  -22.7328   27.3847 H   0  0  0  0  0  0  0  0  0  0  0  0
  -12.0047  -25.1247   28.1198 H   0  0  0  0  0  0  0  0  0  0  0  0
  -10.6979  -26.4029   32.5571 H   0  0  0  0  0  0  0  0  0  0  0  0
  -11.2679  -25.4939   34.0166 H   0  0  0  0  0  0  0  0  0  0  0  0
   -8.9207  -25.7493   34.1954 H   0  0  0  0  0  0  0  0  0  0  0  0
   -9.7133  -24.0636   26.9307 H   0  0  0  0  0  0  0  0  0  0  0  0
   -7.4063  -24.1048   25.8923 H   0  0  0  0  0  0  0  0  0  0  0  0
   -4.6602  -28.1072   26.4769 H   0  0  0  0  0  0  0  0  0  0  0  0
   -7.1547  -29.2269   27.0196 H   0  0  0  0  0  0  0  0  0  0  0  0
   -8.9667  -27.8309   28.6981 H   0  0  0  0  0  0  0  0  0  0  0  0
  1  2  2  0
  2  3  1  0
  3  4  1  0
  4  5  1  0
  5  6  1  0
  6  7  1  0
  7  8  1  0
  8  9  2  0
  9 10  1  0
 10 11  2  0
 11 12  1  0
 12 13  2  0
  7 14  1  0
 14 15  1  0
  2 16  1  0
 16 17  1  0
 17 18  2  0
 18 19  1  0
 19 20  2  0
 20 21  1  0
 21 22  2  0
 22 23  1  0
 23 24  1  0
 15  4  1  0
 24 16  2  0
 15  5  1  0
 23 19  1  0
 13  8  1  0
  3 25  1  0
  4 26  1  0
  5 27  1  0
  6 28  1  0
  6 29  1  0
 10 30  1  0
 11 31  1  0
 12 32  1  0
 14 33  1  0
 14 34  1  0
 15 35  1  0
 17 36  1  0
 18 37  1  0
 21 38  1  0
 22 39  1  0
 24 40  1  0
M  END
>  <Energy>  (1508) 
87.963108636568691

>  <compound_id>  (1508) 
36056

>  <target_id>  (1508) 
1

>  <reference_id>  (1508) 
45

>  <inspiration_ids>  (1508) 
[45, 54]

>  <energy_score>  (1508) 
105.11746281083055

>  <distance_score>  (1508) 
2.663706681363964

>  <path>  (1508) 
/opt/xchem-fragalysis-2/maxwin/BulkDock/SCRATCH/511013/C36056-P45/C36056-P45.minimised.mol

>  <scratch_subdir>  (1508) 
/opt/xchem-fragalysis-2/maxwin/BulkDock/SCRATCH/511013/C36056-P45

>  <fragmenstein_runtime>  (1508) 
8.925565958023071

>  <fragmenstein_outcome>  (1508) 
too moved

>  <fragmenstein_mode>  (1508) 
expansion

>  <fragmenstein_error>  (1508) 


$$$$
C36056-P54
     RDKit          3D

 40 44  0  0  0  0  0  0  0  0999 V2000
   -9.7555  -25.1409   32.3359 O   0  0  0  0  0  0  0  0  0  0  0  0
   -9.4506  -24.3423   31.5419 C   0  0  0  0  0  0  0  0  0  0  0  0
   -8.8808  -22.9178   31.7226 N   0  0  0  0  0  0  0  0  0  0  0  0
   -8.6654  -22.1734   32.8717 C   0  0  0  0  0  0  0  0  0  0  0  0
   -9.2268  -20.7546   33.0361 C   0  0  0  0  0  0  0  0  0  0  0  0
  -10.4193  -20.0374   32.4050 C   0  0  0  0  0  0  0  0  0  0  0  0
  -11.2913  -21.1117   32.0317 N   0  0  0  0  0  0  0  0  0  0  0  0
  -11.4233  -21.5187   30.7226 C   0  0  0  0  0  0  0  0  0  0  0  0
  -11.0020  -20.7104   29.7435 N   0  0  0  0  0  0  0  0  0  0  0  0
  -11.2156  -21.0710   28.4637 C   0  0  0  0  0  0  0  0  0  0  0  0
  -11.8556  -22.2142   28.0862 C   0  0  0  0  0  0  0  0  0  0  0  0
  -12.2529  -22.9952   29.1289 C   0  0  0  0  0  0  0  0  0  0  0  0
  -12.0070  -22.6897   30.4188 N   0  0  0  0  0  0  0  0  0  0  0  0
  -11.1824  -22.0691   33.1169 C   0  0  0  0  0  0  0  0  0  0  0  0
   -9.8275  -21.9140   33.7258 C   0  0  0  0  0  0  0  0  0  0  0  0
   -9.6546  -24.5772   30.0696 C   0  0  0  0  0  0  0  0  0  0  0  0
   -9.0018  -23.8036   29.0292 C   0  0  0  0  0  0  0  0  0  0  0  0
   -9.4096  -23.8953   27.7644 C   0  0  0  0  0  0  0  0  0  0  0  0
  -10.0285  -25.0653   27.3333 C   0  0  0  0  0  0  0  0  0  0  0  0
  -10.1602  -25.5627   26.1363 N   0  0  0  0  0  0  0  0  0  0  0  0
  -10.6476  -26.8056   26.3556 C   0  0  0  0  0  0  0  0  0  0  0  0
  -10.8886  -27.0359   27.6859 C   0  0  0  0  0  0  0  0  0  0  0  0
  -10.5147  -25.8884   28.3128 N   0  0  0  0  0  0  0  0  0  0  0  0
  -10.4693  -25.5777   29.6668 C   0  0  0  0  0  0  0  0  0  0  0  0
   -8.8070  -22.4727   30.8320 H   0  0  0  0  0  0  0  0  0  0  0  0
   -7.7267  -22.4008   33.3683 H   0  0  0  0  0  0  0  0  0  0  0  0
   -8.4721  -20.0993   33.4006 H   0  0  0  0  0  0  0  0  0  0  0  0
  -10.9121  -19.4737   33.2119 H   0  0  0  0  0  0  0  0  0  0  0  0
  -10.2624  -19.2657   31.6511 H   0  0  0  0  0  0  0  0  0  0  0  0
  -10.8600  -20.3655   27.7253 H   0  0  0  0  0  0  0  0  0  0  0  0
  -12.0400  -22.4629   27.0505 H   0  0  0  0  0  0  0  0  0  0  0  0
  -12.7925  -23.9212   28.9627 H   0  0  0  0  0  0  0  0  0  0  0  0
  -11.3074  -23.0729   32.7629 H   0  0  0  0  0  0  0  0  0  0  0  0
  -11.8575  -21.7346   33.8994 H   0  0  0  0  0  0  0  0  0  0  0  0
   -9.7787  -22.0378   34.7924 H   0  0  0  0  0  0  0  0  0  0  0  0
   -8.3187  -23.0035   29.2554 H   0  0  0  0  0  0  0  0  0  0  0  0
   -9.1881  -23.1144   27.0544 H   0  0  0  0  0  0  0  0  0  0  0  0
  -10.8322  -27.4646   25.5258 H   0  0  0  0  0  0  0  0  0  0  0  0
  -11.2728  -27.8940   28.2176 H   0  0  0  0  0  0  0  0  0  0  0  0
  -10.9848  -26.2384   30.3531 H   0  0  0  0  0  0  0  0  0  0  0  0
  1  2  2  0
  2  3  1  0
  3  4  1  0
  4  5  1  0
  5  6  1  0
  6  7  1  0
  7  8  1  0
  8  9  2  0
  9 10  1  0
 10 11  2  0
 11 12  1  0
 12 13  2  0
  7 14  1  0
 14 15  1  0
  2 16  1  0
 16 17  1  0
 17 18  2  0
 18 19  1  0
 19 20  2  0
 20 21  1  0
 21 22  2  0
 22 23  1  0
 23 24  1  0
 15  4  1  0
 24 16  2  0
 15  5  1  0
 23 19  1  0
 13  8  1  0
  3 25  1  0
  4 26  1  0
  5 27  1  0
  6 28  1  0
  6 29  1  0
 10 30  1  0
 11 31  1  0
 12 32  1  0
 14 33  1  0
 14 34  1  0
 15 35  1  0
 17 36  1  0
 18 37  1  0
 21 38  1  0
 22 39  1  0
 24 40  1  0
M  END
>  <Energy>  (1509) 
9.0488277087021665

>  <compound_id>  (1509) 
36056

>  <target_id>  (1509) 
1

>  <reference_id>  (1509) 
54

>  <inspiration_ids>  (1509) 
[45, 54]

>  <energy_score>  (1509) 
25.426366750861234

>  <distance_score>  (1509) 
3.7420930304394915

>  <path>  (1509) 
/opt/xchem-fragalysis-2/maxwin/BulkDock/SCRATCH/511013/C36056-P54/C36056-P54.minimised.mol

>  <scratch_subdir>  (1509) 
/opt/xchem-fragalysis-2/maxwin/BulkDock/SCRATCH/511013/C36056-P54

>  <fragmenstein_runtime>  (1509) 
6.841274738311768

>  <fragmenstein_outcome>  (1509) 
too moved

>  <fragmenstein_mode>  (1509) 
expansion

>  <fragmenstein_error>  (1509) 


$$$$
C36057-P45
     RDKit          3D

 46 50  0  0  0  0  0  0  0  0999 V2000
   -8.3615  -24.7614   29.4959 O   0  0  0  0  0  0  0  0  0  0  0  0
   -9.3631  -25.3974   29.6209 C   0  0  0  0  0  0  0  0  0  0  0  0
  -10.2652  -25.5072   30.7189 N   0  0  0  0  0  0  0  0  0  0  0  0
  -10.1996  -24.9097   32.1921 C   0  0  0  0  0  0  0  0  0  0  0  0
   -9.5201  -26.0606   32.8409 C   0  0  0  0  0  0  0  0  0  0  0  0
   -8.1130  -25.5180   32.8693 C   0  0  0  0  0  0  0  0  0  0  0  0
   -8.4657  -24.2239   33.5171 C   0  0  0  0  0  0  0  0  0  0  0  0
   -9.5699  -23.6138   32.6787 C   0  0  0  0  0  0  0  0  0  0  0  0
  -10.7841  -22.3578   32.6433 C   0  0  0  0  0  0  0  0  0  0  0  0
  -11.8440  -23.1533   32.1729 N   0  0  0  0  0  0  0  0  0  0  0  0
  -11.8323  -23.0935   30.7661 C   0  0  0  0  0  0  0  0  0  0  0  0
  -11.3165  -22.0552   30.1052 N   0  0  0  0  0  0  0  0  0  0  0  0
  -11.2230  -22.1777   28.7712 C   0  0  0  0  0  0  0  0  0  0  0  0
  -11.7800  -23.1642   28.0336 C   0  0  0  0  0  0  0  0  0  0  0  0
  -12.2985  -24.1551   28.7968 C   0  0  0  0  0  0  0  0  0  0  0  0
  -12.3321  -24.1442   30.1316 N   0  0  0  0  0  0  0  0  0  0  0  0
  -11.4313  -24.3971   32.9289 C   0  0  0  0  0  0  0  0  0  0  0  0
   -9.7645  -26.3677   28.4117 C   0  0  0  0  0  0  0  0  0  0  0  0
  -10.3069  -25.6889   27.2261 C   0  0  0  0  0  0  0  0  0  0  0  0
   -9.4903  -25.0391   26.3791 C   0  0  0  0  0  0  0  0  0  0  0  0
   -8.0948  -25.1805   26.5952 C   0  0  0  0  0  0  0  0  0  0  0  0
   -7.0340  -24.4339   26.3867 N   0  0  0  0  0  0  0  0  0  0  0  0
   -5.9749  -25.2474   26.7233 C   0  0  0  0  0  0  0  0  0  0  0  0
   -6.4035  -26.5202   27.0370 C   0  0  0  0  0  0  0  0  0  0  0  0
   -7.7505  -26.3724   27.2114 N   0  0  0  0  0  0  0  0  0  0  0  0
   -8.6737  -27.0709   28.0130 C   0  0  0  0  0  0  0  0  0  0  0  0
  -10.9631  -26.2057   30.5009 H   0  0  0  0  0  0  0  0  0  0  0  0
   -9.6175  -26.9740   32.2440 H   0  0  0  0  0  0  0  0  0  0  0  0
   -9.9402  -26.2582   33.8365 H   0  0  0  0  0  0  0  0  0  0  0  0
   -7.4343  -26.1187   33.4659 H   0  0  0  0  0  0  0  0  0  0  0  0
   -7.7040  -25.3936   31.8790 H   0  0  0  0  0  0  0  0  0  0  0  0
   -8.7479  -24.6780   34.4719 H   0  0  0  0  0  0  0  0  0  0  0  0
   -7.8019  -23.4333   33.8415 H   0  0  0  0  0  0  0  0  0  0  0  0
   -9.7677  -23.3513   33.7003 H   0  0  0  0  0  0  0  0  0  0  0  0
  -10.6261  -21.3879   32.1557 H   0  0  0  0  0  0  0  0  0  0  0  0
  -11.1472  -22.0436   33.6338 H   0  0  0  0  0  0  0  0  0  0  0  0
  -10.5771  -21.4805   28.2807 H   0  0  0  0  0  0  0  0  0  0  0  0
  -11.7451  -23.1790   26.9561 H   0  0  0  0  0  0  0  0  0  0  0  0
  -12.7487  -25.0400   28.3702 H   0  0  0  0  0  0  0  0  0  0  0  0
  -11.2949  -24.0267   33.9714 H   0  0  0  0  0  0  0  0  0  0  0  0
  -11.9458  -25.1466   33.5212 H   0  0  0  0  0  0  0  0  0  0  0  0
  -11.3532  -25.8131   26.9886 H   0  0  0  0  0  0  0  0  0  0  0  0
   -9.8676  -24.5737   25.4805 H   0  0  0  0  0  0  0  0  0  0  0  0
   -4.9519  -24.9091   26.6485 H   0  0  0  0  0  0  0  0  0  0  0  0
   -5.8620  -27.4218   27.2785 H   0  0  0  0  0  0  0  0  0  0  0  0
   -8.2490  -27.8389   28.6104 H   0  0  0  0  0  0  0  0  0  0  0  0
  1  2  2  0
  2  3  1  0
  3  4  1  0
  4  5  1  0
  5  6  1  0
  6  7  1  0
  7  8  1  0
  8  9  1  0
  9 10  1  0
 10 11  1  0
 11 12  2  0
 12 13  1  0
 13 14  2  0
 14 15  1  0
 15 16  2  0
 10 17  1  0
  2 18  1  0
 18 19  1  0
 19 20  2  0
 20 21  1  0
 21 22  2  0
 22 23  1  0
 23 24  2  0
 24 25  1  0
 25 26  1  0
  8  4  1  0
 16 11  1  0
 26 18  2  0
 17  4  1  0
 25 21  1  0
  3 27  1  0
  5 28  1  0
  5 29  1  0
  6 30  1  0
  6 31  1  0
  7 32  1  0
  7 33  1  0
  8 34  1  0
  9 35  1  0
  9 36  1  0
 13 37  1  0
 14 38  1  0
 15 39  1  0
 17 40  1  0
 17 41  1  0
 19 42  1  0
 20 43  1  0
 23 44  1  0
 24 45  1  0
 26 46  1  0
M  END
>  <Energy>  (1510) 
262.20646061043954

>  <compound_id>  (1510) 
36057

>  <target_id>  (1510) 
1

>  <reference_id>  (1510) 
45

>  <inspiration_ids>  (1510) 
[45, 54]

>  <energy_score>  (1510) 
230.28024171185155

>  <distance_score>  (1510) 
2.2973565476934974

>  <path>  (1510) 
/opt/xchem-fragalysis-2/maxwin/BulkDock/SCRATCH/511013/C36057-P45/C36057-P45.minimised.mol

>  <scratch_subdir>  (1510) 
/opt/xchem-fragalysis-2/maxwin/BulkDock/SCRATCH/511013/C36057-P45

>  <fragmenstein_runtime>  (1510) 
10.11577820777893

>  <fragmenstein_outcome>  (1510) 
too moved

>  <fragmenstein_mode>  (1510) 
expansion

>  <fragmenstein_error>  (1510) 


$$$$
C36057-P54
     RDKit          3D

 46 50  0  0  0  0  0  0  0  0999 V2000
  -10.0657  -25.2743   28.4338 O   0  0  0  0  0  0  0  0  0  0  0  0
  -10.9880  -25.4093   29.1760 C   0  0  0  0  0  0  0  0  0  0  0  0
  -11.4602  -24.5905   30.2074 N   0  0  0  0  0  0  0  0  0  0  0  0
  -11.0414  -23.2635   30.6475 C   0  0  0  0  0  0  0  0  0  0  0  0
  -10.4903  -23.3440   32.0805 C   0  0  0  0  0  0  0  0  0  0  0  0
   -8.9614  -23.1586   32.0501 C   0  0  0  0  0  0  0  0  0  0  0  0
   -8.6434  -23.2789   30.5723 C   0  0  0  0  0  0  0  0  0  0  0  0
   -9.8326  -22.5752   30.0466 C   0  0  0  0  0  0  0  0  0  0  0  0
  -10.0846  -22.2950   28.6113 C   0  0  0  0  0  0  0  0  0  0  0  0
  -11.5253  -22.0800   28.6443 N   0  0  0  0  0  0  0  0  0  0  0  0
  -12.0354  -22.7309   27.5362 C   0  0  0  0  0  0  0  0  0  0  0  0
  -11.5210  -22.3197   26.3733 N   0  0  0  0  0  0  0  0  0  0  0  0
  -12.2576  -22.4781   25.2789 C   0  0  0  0  0  0  0  0  0  0  0  0
  -13.4560  -23.1273   25.2908 C   0  0  0  0  0  0  0  0  0  0  0  0
  -13.8028  -23.7092   26.4781 C   0  0  0  0  0  0  0  0  0  0  0  0
  -13.1033  -23.5411   27.6195 N   0  0  0  0  0  0  0  0  0  0  0  0
  -12.0457  -22.2800   30.0214 C   0  0  0  0  0  0  0  0  0  0  0  0
  -11.9429  -26.6211   28.9742 C   0  0  0  0  0  0  0  0  0  0  0  0
  -12.6680  -26.5109   27.6937 C   0  0  0  0  0  0  0  0  0  0  0  0
  -12.0389  -26.8177   26.5431 C   0  0  0  0  0  0  0  0  0  0  0  0
  -10.7511  -27.3978   26.6595 C   0  0  0  0  0  0  0  0  0  0  0  0
   -9.7150  -27.4511   25.8627 N   0  0  0  0  0  0  0  0  0  0  0  0
   -8.7768  -28.1797   26.5634 C   0  0  0  0  0  0  0  0  0  0  0  0
   -9.2986  -28.6756   27.7285 C   0  0  0  0  0  0  0  0  0  0  0  0
  -10.4763  -28.0169   27.8751 N   0  0  0  0  0  0  0  0  0  0  0  0
  -11.1885  -27.7403   29.0497 C   0  0  0  0  0  0  0  0  0  0  0  0
  -12.2122  -25.0600   30.6763 H   0  0  0  0  0  0  0  0  0  0  0  0
  -10.5355  -24.3779   32.4067 H   0  0  0  0  0  0  0  0  0  0  0  0
  -10.9647  -22.6581   32.7837 H   0  0  0  0  0  0  0  0  0  0  0  0
   -8.6961  -22.1670   32.4359 H   0  0  0  0  0  0  0  0  0  0  0  0
   -8.4391  -23.8999   32.6629 H   0  0  0  0  0  0  0  0  0  0  0  0
   -8.5955  -24.3184   30.2469 H   0  0  0  0  0  0  0  0  0  0  0  0
   -7.7286  -22.7764   30.2885 H   0  0  0  0  0  0  0  0  0  0  0  0
   -9.8363  -21.5787   30.5104 H   0  0  0  0  0  0  0  0  0  0  0  0
   -9.7166  -23.0924   27.9607 H   0  0  0  0  0  0  0  0  0  0  0  0
   -9.6029  -21.3731   28.2876 H   0  0  0  0  0  0  0  0  0  0  0  0
  -11.8706  -22.0089   24.3802 H   0  0  0  0  0  0  0  0  0  0  0  0
  -14.0610  -23.1395   24.4094 H   0  0  0  0  0  0  0  0  0  0  0  0
  -14.7253  -24.2717   26.5783 H   0  0  0  0  0  0  0  0  0  0  0  0
  -12.0467  -21.3164   30.5468 H   0  0  0  0  0  0  0  0  0  0  0  0
  -13.0738  -22.6211   29.9780 H   0  0  0  0  0  0  0  0  0  0  0  0
  -13.6753  -26.1198   27.7262 H   0  0  0  0  0  0  0  0  0  0  0  0
  -12.4752  -26.6659   25.5668 H   0  0  0  0  0  0  0  0  0  0  0  0
   -7.7964  -28.3999   26.1613 H   0  0  0  0  0  0  0  0  0  0  0  0
   -8.8733  -29.2929   28.4927 H   0  0  0  0  0  0  0  0  0  0  0  0
  -10.6899  -28.0545   29.9530 H   0  0  0  0  0  0  0  0  0  0  0  0
  1  2  2  0
  2  3  1  0
  3  4  1  0
  4  5  1  0
  5  6  1  0
  6  7  1  0
  7  8  1  0
  8  9  1  0
  9 10  1  0
 10 11  1  0
 11 12  2  0
 12 13  1  0
 13 14  2  0
 14 15  1  0
 15 16  2  0
 10 17  1  0
  2 18  1  0
 18 19  1  0
 19 20  2  0
 20 21  1  0
 21 22  2  0
 22 23  1  0
 23 24  2  0
 24 25  1  0
 25 26  1  0
  8  4  1  0
 16 11  1  0
 26 18  2  0
 17  4  1  0
 25 21  1  0
  3 27  1  0
  5 28  1  0
  5 29  1  0
  6 30  1  0
  6 31  1  0
  7 32  1  0
  7 33  1  0
  8 34  1  0
  9 35  1  0
  9 36  1  0
 13 37  1  0
 14 38  1  0
 15 39  1  0
 17 40  1  0
 17 41  1  0
 19 42  1  0
 20 43  1  0
 23 44  1  0
 24 45  1  0
 26 46  1  0
M  END
>  <Energy>  (1511) 
80.469123219083244

>  <compound_id>  (1511) 
36057

>  <target_id>  (1511) 
1

>  <reference_id>  (1511) 
54

>  <inspiration_ids>  (1511) 
[45, 54]

>  <energy_score>  (1511) 
48.54290432050891

>  <distance_score>  (1511) 
4.262357067083266

>  <path>  (1511) 
/opt/xchem-fragalysis-2/maxwin/BulkDock/SCRATCH/511013/C36057-P54/C36057-P54.minimised.mol

>  <scratch_subdir>  (1511) 
/opt/xchem-fragalysis-2/maxwin/BulkDock/SCRATCH/511013/C36057-P54

>  <fragmenstein_runtime>  (1511) 
15.11992597579956

>  <fragmenstein_outcome>  (1511) 
too moved

>  <fragmenstein_mode>  (1511) 
expansion

>  <fragmenstein_error>  (1511) 


$$$$
C36058-P45
     RDKit          3D

 42 45  0  0  0  0  0  0  0  0999 V2000
   -8.5762  -24.9535   28.9123 O   0  0  0  0  0  0  0  0  0  0  0  0
   -8.9457  -26.0833   28.8850 C   0  0  0  0  0  0  0  0  0  0  0  0
   -9.2383  -26.9688   29.9135 N   0  0  0  0  0  0  0  0  0  0  0  0
   -9.0973  -26.8380   31.3790 C   0  0  0  0  0  0  0  0  0  0  0  0
   -8.2764  -25.7991   32.2009 C   0  0  0  0  0  0  0  0  0  0  0  0
   -9.0101  -24.8984   33.2441 C   0  0  0  0  0  0  0  0  0  0  0  0
  -10.2847  -24.2370   32.7428 C   0  0  0  0  0  0  0  0  0  0  0  0
  -10.5502  -24.8675   31.4808 N   0  0  0  0  0  0  0  0  0  0  0  0
  -11.0275  -24.1582   30.3989 C   0  0  0  0  0  0  0  0  0  0  0  0
  -11.2628  -22.8436   30.5019 N   0  0  0  0  0  0  0  0  0  0  0  0
  -11.5793  -22.2041   29.3671 C   0  0  0  0  0  0  0  0  0  0  0  0
  -11.7679  -22.8243   28.1706 C   0  0  0  0  0  0  0  0  0  0  0  0
  -11.7715  -24.1802   28.2391 C   0  0  0  0  0  0  0  0  0  0  0  0
  -11.4289  -24.8692   29.3349 N   0  0  0  0  0  0  0  0  0  0  0  0
  -10.3979  -26.3662   31.6317 C   0  0  0  0  0  0  0  0  0  0  0  0
   -9.0849  -26.8892   27.5654 C   0  0  0  0  0  0  0  0  0  0  0  0
   -9.8268  -26.1010   26.6055 C   0  0  0  0  0  0  0  0  0  0  0  0
   -9.1954  -25.0515   26.0560 C   0  0  0  0  0  0  0  0  0  0  0  0
   -7.8002  -24.8629   26.3636 C   0  0  0  0  0  0  0  0  0  0  0  0
   -7.0134  -23.8133   26.4641 N   0  0  0  0  0  0  0  0  0  0  0  0
   -5.8425  -24.2979   26.9863 C   0  0  0  0  0  0  0  0  0  0  0  0
   -5.8118  -25.6710   26.9755 C   0  0  0  0  0  0  0  0  0  0  0  0
   -7.1196  -26.0119   26.7695 N   0  0  0  0  0  0  0  0  0  0  0  0
   -7.8112  -27.1575   27.1768 C   0  0  0  0  0  0  0  0  0  0  0  0
   -9.6019  -27.8128   29.5196 H   0  0  0  0  0  0  0  0  0  0  0  0
   -8.9380  -27.8700   31.6776 H   0  0  0  0  0  0  0  0  0  0  0  0
   -7.7803  -25.1926   31.4846 H   0  0  0  0  0  0  0  0  0  0  0  0
   -7.5186  -26.2933   32.7976 H   0  0  0  0  0  0  0  0  0  0  0  0
   -8.3559  -24.1114   33.6012 H   0  0  0  0  0  0  0  0  0  0  0  0
   -9.2483  -25.5120   34.1217 H   0  0  0  0  0  0  0  0  0  0  0  0
  -11.0949  -24.4297   33.4566 H   0  0  0  0  0  0  0  0  0  0  0  0
  -10.2026  -23.1562   32.7141 H   0  0  0  0  0  0  0  0  0  0  0  0
  -11.6605  -21.1351   29.4492 H   0  0  0  0  0  0  0  0  0  0  0  0
  -11.9409  -22.2961   27.2512 H   0  0  0  0  0  0  0  0  0  0  0  0
  -12.0502  -24.7665   27.3762 H   0  0  0  0  0  0  0  0  0  0  0  0
  -10.9891  -26.9376   30.8920 H   0  0  0  0  0  0  0  0  0  0  0  0
  -10.6259  -26.6955   32.6619 H   0  0  0  0  0  0  0  0  0  0  0  0
  -10.8455  -26.3761   26.3726 H   0  0  0  0  0  0  0  0  0  0  0  0
   -9.7378  -24.4538   25.3433 H   0  0  0  0  0  0  0  0  0  0  0  0
   -5.0709  -23.6368   27.3444 H   0  0  0  0  0  0  0  0  0  0  0  0
   -5.0541  -26.3847   27.2638 H   0  0  0  0  0  0  0  0  0  0  0  0
   -7.1856  -27.9038   27.6323 H   0  0  0  0  0  0  0  0  0  0  0  0
  1  2  2  0
  2  3  1  0
  3  4  1  0
  4  5  1  0
  5  6  1  0
  6  7  1  0
  7  8  1  0
  8  9  1  0
  9 10  2  0
 10 11  1  0
 11 12  2  0
 12 13  1  0
 13 14  2  0
  8 15  1  0
  2 16  1  0
 16 17  1  0
 17 18  2  0
 18 19  1  0
 19 20  2  0
 20 21  1  0
 21 22  2  0
 22 23  1  0
 23 24  1  0
 15  4  1  0
 24 16  2  0
 14  9  1  0
 23 19  1  0
  3 25  1  0
  4 26  1  0
  5 27  1  0
  5 28  1  0
  6 29  1  0
  6 30  1  0
  7 31  1  0
  7 32  1  0
 11 33  1  0
 12 34  1  0
 13 35  1  0
 15 36  1  0
 15 37  1  0
 17 38  1  0
 18 39  1  0
 21 40  1  0
 22 41  1  0
 24 42  1  0
M  END
>  <Energy>  (1512) 
102.60206791232689

>  <compound_id>  (1512) 
36058

>  <target_id>  (1512) 
1

>  <reference_id>  (1512) 
45

>  <inspiration_ids>  (1512) 
[45, 54]

>  <energy_score>  (1512) 
117.04196858847848

>  <distance_score>  (1512) 
2.348831134655832

>  <path>  (1512) 
/opt/xchem-fragalysis-2/maxwin/BulkDock/SCRATCH/511013/C36058-P45/C36058-P45.minimised.mol

>  <scratch_subdir>  (1512) 
/opt/xchem-fragalysis-2/maxwin/BulkDock/SCRATCH/511013/C36058-P45

>  <fragmenstein_runtime>  (1512) 
10.08502745628357

>  <fragmenstein_outcome>  (1512) 
too moved

>  <fragmenstein_mode>  (1512) 
expansion

>  <fragmenstein_error>  (1512) 


$$$$
C36058-P54
     RDKit          3D

 42 45  0  0  0  0  0  0  0  0999 V2000
  -12.7422  -26.4045   31.5284 O   0  0  0  0  0  0  0  0  0  0  0  0
  -11.9500  -26.2800   30.6444 C   0  0  0  0  0  0  0  0  0  0  0  0
  -10.7711  -25.4602   30.5455 N   0  0  0  0  0  0  0  0  0  0  0  0
  -10.2409  -24.4764   31.4284 C   0  0  0  0  0  0  0  0  0  0  0  0
   -9.4608  -24.7215   32.7032 C   0  0  0  0  0  0  0  0  0  0  0  0
   -9.2518  -23.3512   33.4286 C   0  0  0  0  0  0  0  0  0  0  0  0
  -10.0037  -22.1404   32.7883 C   0  0  0  0  0  0  0  0  0  0  0  0
   -9.9003  -22.1654   31.3192 N   0  0  0  0  0  0  0  0  0  0  0  0
  -11.0648  -21.7459   30.6522 C   0  0  0  0  0  0  0  0  0  0  0  0
  -11.1965  -20.4351   30.5893 N   0  0  0  0  0  0  0  0  0  0  0  0
  -11.2521  -19.9593   29.3475 C   0  0  0  0  0  0  0  0  0  0  0  0
  -11.3547  -20.7489   28.2278 C   0  0  0  0  0  0  0  0  0  0  0  0
  -11.6107  -22.0606   28.4566 C   0  0  0  0  0  0  0  0  0  0  0  0
  -11.5554  -22.5611   29.6862 N   0  0  0  0  0  0  0  0  0  0  0  0
   -9.4315  -23.3987   30.7273 C   0  0  0  0  0  0  0  0  0  0  0  0
  -12.1310  -26.9511   29.3245 C   0  0  0  0  0  0  0  0  0  0  0  0
  -12.5105  -26.1329   28.1737 C   0  0  0  0  0  0  0  0  0  0  0  0
  -11.8132  -26.1954   27.0261 C   0  0  0  0  0  0  0  0  0  0  0  0
  -10.7045  -27.0749   26.9570 C   0  0  0  0  0  0  0  0  0  0  0  0
   -9.6786  -27.1062   26.1436 N   0  0  0  0  0  0  0  0  0  0  0  0
   -8.8561  -28.0847   26.6502 C   0  0  0  0  0  0  0  0  0  0  0  0
   -9.4351  -28.7204   27.7157 C   0  0  0  0  0  0  0  0  0  0  0  0
  -10.5652  -28.0116   27.9762 N   0  0  0  0  0  0  0  0  0  0  0  0
  -11.2874  -27.9809   29.1580 C   0  0  0  0  0  0  0  0  0  0  0  0
  -10.3854  -25.5464   29.6140 H   0  0  0  0  0  0  0  0  0  0  0  0
  -11.1887  -24.0443   31.7484 H   0  0  0  0  0  0  0  0  0  0  0  0
   -8.4701  -25.1332   32.4996 H   0  0  0  0  0  0  0  0  0  0  0  0
   -9.9550  -25.4665   33.3100 H   0  0  0  0  0  0  0  0  0  0  0  0
   -8.1767  -23.1253   33.4102 H   0  0  0  0  0  0  0  0  0  0  0  0
   -9.5172  -23.4387   34.4864 H   0  0  0  0  0  0  0  0  0  0  0  0
  -11.0475  -22.1614   33.1186 H   0  0  0  0  0  0  0  0  0  0  0  0
   -9.5695  -21.2071   33.1642 H   0  0  0  0  0  0  0  0  0  0  0  0
  -11.1623  -18.8862   29.2955 H   0  0  0  0  0  0  0  0  0  0  0  0
  -11.3065  -20.3552   27.2295 H   0  0  0  0  0  0  0  0  0  0  0  0
  -11.8289  -22.7533   27.6537 H   0  0  0  0  0  0  0  0  0  0  0  0
   -8.3647  -23.4738   30.9186 H   0  0  0  0  0  0  0  0  0  0  0  0
   -9.4730  -23.4404   29.6309 H   0  0  0  0  0  0  0  0  0  0  0  0
  -13.3378  -25.4395   28.2990 H   0  0  0  0  0  0  0  0  0  0  0  0
  -12.0445  -25.5654   26.1772 H   0  0  0  0  0  0  0  0  0  0  0  0
   -7.9027  -28.3423   26.2058 H   0  0  0  0  0  0  0  0  0  0  0  0
   -9.0901  -29.5251   28.3383 H   0  0  0  0  0  0  0  0  0  0  0  0
  -10.8971  -28.5566   29.9845 H   0  0  0  0  0  0  0  0  0  0  0  0
  1  2  2  0
  2  3  1  0
  3  4  1  0
  4  5  1  0
  5  6  1  0
  6  7  1  0
  7  8  1  0
  8  9  1  0
  9 10  2  0
 10 11  1  0
 11 12  2  0
 12 13  1  0
 13 14  2  0
  8 15  1  0
  2 16  1  0
 16 17  1  0
 17 18  2  0
 18 19  1  0
 19 20  2  0
 20 21  1  0
 21 22  2  0
 22 23  1  0
 23 24  1  0
 15  4  1  0
 24 16  2  0
 14  9  1  0
 23 19  1  0
  3 25  1  0
  4 26  1  0
  5 27  1  0
  5 28  1  0
  6 29  1  0
  6 30  1  0
  7 31  1  0
  7 32  1  0
 11 33  1  0
 12 34  1  0
 13 35  1  0
 15 36  1  0
 15 37  1  0
 17 38  1  0
 18 39  1  0
 21 40  1  0
 22 41  1  0
 24 42  1  0
M  END
>  <Energy>  (1513) 
35.519749226912296

>  <compound_id>  (1513) 
36058

>  <target_id>  (1513) 
1

>  <reference_id>  (1513) 
54

>  <inspiration_ids>  (1513) 
[45, 54]

>  <energy_score>  (1513) 
49.959649903067486

>  <distance_score>  (1513) 
3.9282540676327407

>  <path>  (1513) 
/opt/xchem-fragalysis-2/maxwin/BulkDock/SCRATCH/511013/C36058-P54/C36058-P54.minimised.mol

>  <scratch_subdir>  (1513) 
/opt/xchem-fragalysis-2/maxwin/BulkDock/SCRATCH/511013/C36058-P54

>  <fragmenstein_runtime>  (1513) 
10.574938535690308

>  <fragmenstein_outcome>  (1513) 
too moved

>  <fragmenstein_mode>  (1513) 
expansion

>  <fragmenstein_error>  (1513) 


$$$$
C36059-P45
     RDKit          3D

 39 42  0  0  0  0  0  0  0  0999 V2000
   -8.8769  -25.0059   29.1919 O   0  0  0  0  0  0  0  0  0  0  0  0
   -9.4875  -25.9882   29.5004 C   0  0  0  0  0  0  0  0  0  0  0  0
   -9.8058  -26.5209   30.7869 N   0  0  0  0  0  0  0  0  0  0  0  0
   -9.4021  -26.0862   32.1417 C   0  0  0  0  0  0  0  0  0  0  0  0
  -10.3128  -26.1931   33.3271 C   0  0  0  0  0  0  0  0  0  0  0  0
  -10.9763  -24.8266   33.5589 C   0  0  0  0  0  0  0  0  0  0  0  0
  -10.3569  -23.8759   32.6464 N   0  0  0  0  0  0  0  0  0  0  0  0
  -11.0957  -23.4700   31.5196 C   0  0  0  0  0  0  0  0  0  0  0  0
  -11.3568  -22.1857   31.2810 N   0  0  0  0  0  0  0  0  0  0  0  0
  -11.7275  -21.8804   30.0106 C   0  0  0  0  0  0  0  0  0  0  0  0
  -11.9436  -22.7367   28.9820 C   0  0  0  0  0  0  0  0  0  0  0  0
  -11.8838  -24.0105   29.3840 C   0  0  0  0  0  0  0  0  0  0  0  0
  -11.4267  -24.3727   30.5923 N   0  0  0  0  0  0  0  0  0  0  0  0
   -9.1502  -24.6117   32.2496 C   0  0  0  0  0  0  0  0  0  0  0  0
   -9.9141  -26.8587   28.2609 C   0  0  0  0  0  0  0  0  0  0  0  0
  -10.5694  -26.0344   27.2083 C   0  0  0  0  0  0  0  0  0  0  0  0
   -9.8315  -25.2125   26.4294 C   0  0  0  0  0  0  0  0  0  0  0  0
   -8.4086  -25.2874   26.5504 C   0  0  0  0  0  0  0  0  0  0  0  0
   -7.4227  -24.4330   26.3753 N   0  0  0  0  0  0  0  0  0  0  0  0
   -6.2826  -25.1283   26.7017 C   0  0  0  0  0  0  0  0  0  0  0  0
   -6.5670  -26.4517   26.9555 C   0  0  0  0  0  0  0  0  0  0  0  0
   -7.9308  -26.4877   27.0601 N   0  0  0  0  0  0  0  0  0  0  0  0
   -8.7558  -27.3783   27.7716 C   0  0  0  0  0  0  0  0  0  0  0  0
  -10.2644  -27.4114   30.6687 H   0  0  0  0  0  0  0  0  0  0  0  0
   -8.4350  -26.5615   32.2717 H   0  0  0  0  0  0  0  0  0  0  0  0
  -10.8972  -27.0815   33.1844 H   0  0  0  0  0  0  0  0  0  0  0  0
   -9.7425  -26.3394   34.2433 H   0  0  0  0  0  0  0  0  0  0  0  0
  -10.7170  -24.5873   34.5727 H   0  0  0  0  0  0  0  0  0  0  0  0
  -12.0275  -24.7225   33.7282 H   0  0  0  0  0  0  0  0  0  0  0  0
  -11.8763  -20.8541   29.7834 H   0  0  0  0  0  0  0  0  0  0  0  0
  -12.2206  -22.4349   27.9880 H   0  0  0  0  0  0  0  0  0  0  0  0
  -12.2176  -24.8167   28.7539 H   0  0  0  0  0  0  0  0  0  0  0  0
   -8.7747  -24.3603   31.2959 H   0  0  0  0  0  0  0  0  0  0  0  0
   -8.3973  -24.4476   33.0254 H   0  0  0  0  0  0  0  0  0  0  0  0
  -11.6443  -26.1010   27.1082 H   0  0  0  0  0  0  0  0  0  0  0  0
  -10.2767  -24.5509   25.6991 H   0  0  0  0  0  0  0  0  0  0  0  0
   -5.3076  -24.6641   26.6661 H   0  0  0  0  0  0  0  0  0  0  0  0
   -5.9314  -27.2946   27.1808 H   0  0  0  0  0  0  0  0  0  0  0  0
   -8.1994  -28.1240   28.2833 H   0  0  0  0  0  0  0  0  0  0  0  0
  1  2  2  0
  2  3  1  0
  3  4  1  0
  4  5  1  0
  5  6  1  0
  6  7  1  0
  7  8  1  0
  8  9  2  0
  9 10  1  0
 10 11  2  0
 11 12  1  0
 12 13  2  0
  7 14  1  0
  2 15  1  0
 15 16  1  0
 16 17  2  0
 17 18  1  0
 18 19  2  0
 19 20  1  0
 20 21  2  0
 21 22  1  0
 22 23  1  0
 14  4  1  0
 23 15  2  0
 13  8  1  0
 22 18  1  0
  3 24  1  0
  4 25  1  0
  5 26  1  0
  5 27  1  0
  6 28  1  0
  6 29  1  0
 10 30  1  0
 11 31  1  0
 12 32  1  0
 14 33  1  0
 14 34  1  0
 16 35  1  0
 17 36  1  0
 20 37  1  0
 21 38  1  0
 23 39  1  0
M  END
>  <Energy>  (1514) 
77.136501446659466

>  <compound_id>  (1514) 
36059

>  <target_id>  (1514) 
1

>  <reference_id>  (1514) 
45

>  <inspiration_ids>  (1514) 
[45, 54]

>  <energy_score>  (1514) 
92.84015207353445

>  <distance_score>  (1514) 
2.840487159791639

>  <path>  (1514) 
/opt/xchem-fragalysis-2/maxwin/BulkDock/SCRATCH/511013/C36059-P45/C36059-P45.minimised.mol

>  <scratch_subdir>  (1514) 
/opt/xchem-fragalysis-2/maxwin/BulkDock/SCRATCH/511013/C36059-P45

>  <fragmenstein_runtime>  (1514) 
9.29024887084961

>  <fragmenstein_outcome>  (1514) 
too moved

>  <fragmenstein_mode>  (1514) 
expansion

>  <fragmenstein_error>  (1514) 


$$$$
C36059-P54
     RDKit          3D

 39 42  0  0  0  0  0  0  0  0999 V2000
   -6.1514  -25.9600   32.0467 O   0  0  0  0  0  0  0  0  0  0  0  0
   -7.0670  -26.3380   31.3260 C   0  0  0  0  0  0  0  0  0  0  0  0
   -8.4326  -25.1780   30.9355 N   0  0  0  0  0  0  0  0  0  0  0  0
   -8.7323  -23.8159   31.4092 C   0  0  0  0  0  0  0  0  0  0  0  0
   -9.9621  -23.9059   32.2696 C   0  0  0  0  0  0  0  0  0  0  0  0
  -11.0917  -24.0858   31.2412 C   0  0  0  0  0  0  0  0  0  0  0  0
  -10.4929  -23.8307   29.9574 N   0  0  0  0  0  0  0  0  0  0  0  0
  -11.2814  -23.7444   28.8564 C   0  0  0  0  0  0  0  0  0  0  0  0
  -10.8570  -23.0402   27.7996 N   0  0  0  0  0  0  0  0  0  0  0  0
  -11.6417  -23.0526   26.7078 C   0  0  0  0  0  0  0  0  0  0  0  0
  -12.8106  -23.7635   26.6148 C   0  0  0  0  0  0  0  0  0  0  0  0
  -13.1614  -24.4570   27.7404 C   0  0  0  0  0  0  0  0  0  0  0  0
  -12.4350  -24.4404   28.8683 N   0  0  0  0  0  0  0  0  0  0  0  0
   -9.2846  -23.0713   30.1749 C   0  0  0  0  0  0  0  0  0  0  0  0
   -7.3478  -28.5849   30.4803 C   0  0  0  0  0  0  0  0  0  0  0  0
   -9.1707  -28.9537   30.1628 C   0  0  0  0  0  0  0  0  0  0  0  0
  -10.3048  -28.3423   29.6566 C   0  0  0  0  0  0  0  0  0  0  0  0
  -10.1331  -28.0984   28.2908 C   0  0  0  0  0  0  0  0  0  0  0  0
  -10.8971  -27.5795   27.3738 N   0  0  0  0  0  0  0  0  0  0  0  0
  -10.0787  -27.5046   26.2932 C   0  0  0  0  0  0  0  0  0  0  0  0
   -8.8462  -28.0613   26.5457 C   0  0  0  0  0  0  0  0  0  0  0  0
   -8.8317  -28.3556   27.8719 N   0  0  0  0  0  0  0  0  0  0  0  0
   -7.6249  -28.7060   28.7478 C   0  0  0  0  0  0  0  0  0  0  0  0
   -9.0379  -25.6125   30.2830 H   0  0  0  0  0  0  0  0  0  0  0  0
   -7.9463  -23.2913   31.9518 H   0  0  0  0  0  0  0  0  0  0  0  0
  -10.1159  -22.9781   32.8340 H   0  0  0  0  0  0  0  0  0  0  0  0
   -9.8894  -24.7325   32.9823 H   0  0  0  0  0  0  0  0  0  0  0  0
  -11.8365  -23.3192   31.4333 H   0  0  0  0  0  0  0  0  0  0  0  0
  -11.5105  -25.0963   31.2804 H   0  0  0  0  0  0  0  0  0  0  0  0
  -11.2937  -22.4538   25.8742 H   0  0  0  0  0  0  0  0  0  0  0  0
  -13.4220  -23.7524   25.7260 H   0  0  0  0  0  0  0  0  0  0  0  0
  -14.0697  -25.0495   27.7797 H   0  0  0  0  0  0  0  0  0  0  0  0
   -8.5963  -23.1153   29.3264 H   0  0  0  0  0  0  0  0  0  0  0  0
   -9.5630  -22.0475   30.4256 H   0  0  0  0  0  0  0  0  0  0  0  0
   -9.0779  -29.7554   29.3694 H   0  0  0  0  0  0  0  0  0  0  0  0
  -11.3033  -28.6451   29.9576 H   0  0  0  0  0  0  0  0  0  0  0  0
  -10.4941  -27.1711   25.3610 H   0  0  0  0  0  0  0  0  0  0  0  0
   -7.9982  -28.3315   25.9368 H   0  0  0  0  0  0  0  0  0  0  0  0
   -6.9782  -28.2153   28.0599 H   0  0  0  0  0  0  0  0  0  0  0  0
  1  2  2  0
  2  3  1  0
  3  4  1  0
  4  5  1  0
  5  6  1  0
  6  7  1  0
  7  8  1  0
  8  9  2  0
  9 10  1  0
 10 11  2  0
 11 12  1  0
 12 13  2  0
  7 14  1  0
  2 15  1  0
 15 16  1  0
 16 17  2  0
 17 18  1  0
 18 19  2  0
 19 20  1  0
 20 21  2  0
 21 22  1  0
 22 23  1  0
 14  4  1  0
 23 15  2  0
 13  8  1  0
 22 18  1  0
  3 24  1  0
  4 25  1  0
  5 26  1  0
  5 27  1  0
  6 28  1  0
  6 29  1  0
 10 30  1  0
 11 31  1  0
 12 32  1  0
 14 33  1  0
 14 34  1  0
 16 35  1  0
 17 36  1  0
 20 37  1  0
 21 38  1  0
 23 39  1  0
M  END
>  <Energy>  (1515) 
660.04927650024877

>  <compound_id>  (1515) 
36059

>  <target_id>  (1515) 
1

>  <reference_id>  (1515) 
54

>  <inspiration_ids>  (1515) 
[45, 54]

>  <energy_score>  (1515) 
675.7529271271093

>  <distance_score>  (1515) 
3.1432365747858078

>  <path>  (1515) 
/opt/xchem-fragalysis-2/maxwin/BulkDock/SCRATCH/511013/C36059-P54/C36059-P54.minimised.mol

>  <scratch_subdir>  (1515) 
/opt/xchem-fragalysis-2/maxwin/BulkDock/SCRATCH/511013/C36059-P54

>  <fragmenstein_runtime>  (1515) 
7.5263848304748535

>  <fragmenstein_outcome>  (1515) 
too moved

>  <fragmenstein_mode>  (1515) 
expansion

>  <fragmenstein_error>  (1515) 


$$$$
C36060-P45
     RDKit          3D

 42 45  0  0  0  0  0  0  0  0999 V2000
  -11.7328  -29.8800   31.2478 O   0  0  0  0  0  0  0  0  0  0  0  0
  -11.6418  -28.8473   30.6582 C   0  0  0  0  0  0  0  0  0  0  0  0
  -11.0456  -27.5939   31.0420 N   0  0  0  0  0  0  0  0  0  0  0  0
  -10.2633  -27.2080   32.2569 C   0  0  0  0  0  0  0  0  0  0  0  0
  -10.4223  -25.8865   33.1690 C   0  0  0  0  0  0  0  0  0  0  0  0
  -10.3007  -24.5575   32.3877 C   0  0  0  0  0  0  0  0  0  0  0  0
  -10.3174  -24.9013   30.9690 N   0  0  0  0  0  0  0  0  0  0  0  0
  -10.8611  -24.1233   29.9814 C   0  0  0  0  0  0  0  0  0  0  0  0
  -11.4915  -22.9919   30.3052 N   0  0  0  0  0  0  0  0  0  0  0  0
  -11.8194  -22.1989   29.2798 C   0  0  0  0  0  0  0  0  0  0  0  0
  -11.5750  -22.5099   27.9716 C   0  0  0  0  0  0  0  0  0  0  0  0
  -11.0207  -23.7247   27.7388 C   0  0  0  0  0  0  0  0  0  0  0  0
  -10.6655  -24.5450   28.7210 N   0  0  0  0  0  0  0  0  0  0  0  0
   -9.2178  -25.7495   30.5549 C   0  0  0  0  0  0  0  0  0  0  0  0
   -8.9773  -26.8536   31.6071 C   0  0  0  0  0  0  0  0  0  0  0  0
  -12.1159  -28.6657   29.2381 C   0  0  0  0  0  0  0  0  0  0  0  0
  -13.5271  -28.7047   28.9017 C   0  0  0  0  0  0  0  0  0  0  0  0
  -13.9878  -28.1177   27.7792 C   0  0  0  0  0  0  0  0  0  0  0  0
  -13.0826  -27.4344   26.9191 C   0  0  0  0  0  0  0  0  0  0  0  0
  -13.2906  -26.5926   25.9293 N   0  0  0  0  0  0  0  0  0  0  0  0
  -12.0408  -26.1786   25.5449 C   0  0  0  0  0  0  0  0  0  0  0  0
  -11.0606  -26.7985   26.2804 C   0  0  0  0  0  0  0  0  0  0  0  0
  -11.7325  -27.5517   27.2012 N   0  0  0  0  0  0  0  0  0  0  0  0
  -11.2421  -28.1742   28.3307 C   0  0  0  0  0  0  0  0  0  0  0  0
  -11.2280  -26.9025   30.3169 H   0  0  0  0  0  0  0  0  0  0  0  0
  -10.3560  -28.0947   32.8695 H   0  0  0  0  0  0  0  0  0  0  0  0
  -11.3130  -25.8522   33.7905 H   0  0  0  0  0  0  0  0  0  0  0  0
   -9.6284  -25.8834   33.9290 H   0  0  0  0  0  0  0  0  0  0  0  0
  -11.1039  -23.8723   32.6779 H   0  0  0  0  0  0  0  0  0  0  0  0
   -9.3589  -24.0733   32.6601 H   0  0  0  0  0  0  0  0  0  0  0  0
  -12.2735  -21.2584   29.5487 H   0  0  0  0  0  0  0  0  0  0  0  0
  -11.7663  -21.8414   27.1550 H   0  0  0  0  0  0  0  0  0  0  0  0
  -10.7956  -24.0464   26.7317 H   0  0  0  0  0  0  0  0  0  0  0  0
   -8.3319  -25.1417   30.4068 H   0  0  0  0  0  0  0  0  0  0  0  0
   -9.3950  -26.2392   29.5903 H   0  0  0  0  0  0  0  0  0  0  0  0
   -8.6244  -27.8073   31.2006 H   0  0  0  0  0  0  0  0  0  0  0  0
   -8.2227  -26.4624   32.2991 H   0  0  0  0  0  0  0  0  0  0  0  0
  -14.2026  -29.1976   29.5954 H   0  0  0  0  0  0  0  0  0  0  0  0
  -15.0446  -28.1177   27.5358 H   0  0  0  0  0  0  0  0  0  0  0  0
  -11.9183  -25.4187   24.7866 H   0  0  0  0  0  0  0  0  0  0  0  0
   -9.9874  -26.6945   26.3127 H   0  0  0  0  0  0  0  0  0  0  0  0
  -10.1809  -28.0551   28.4894 H   0  0  0  0  0  0  0  0  0  0  0  0
  1  2  2  0
  2  3  1  0
  3  4  1  0
  4  5  1  0
  5  6  1  0
  6  7  1  0
  7  8  1  0
  8  9  2  0
  9 10  1  0
 10 11  2  0
 11 12  1  0
 12 13  2  0
  7 14  1  0
 14 15  1  0
  2 16  1  0
 16 17  1  0
 17 18  2  0
 18 19  1  0
 19 20  2  0
 20 21  1  0
 21 22  2  0
 22 23  1  0
 23 24  1  0
 15  4  1  0
 24 16  2  0
 13  8  1  0
 23 19  1  0
  3 25  1  0
  4 26  1  0
  5 27  1  0
  5 28  1  0
  6 29  1  0
  6 30  1  0
 10 31  1  0
 11 32  1  0
 12 33  1  0
 14 34  1  0
 14 35  1  0
 15 36  1  0
 15 37  1  0
 17 38  1  0
 18 39  1  0
 21 40  1  0
 22 41  1  0
 24 42  1  0
M  END
>  <Energy>  (1516) 
-15.836505255096812

>  <compound_id>  (1516) 
36060

>  <target_id>  (1516) 
1

>  <reference_id>  (1516) 
45

>  <inspiration_ids>  (1516) 
[45, 54]

>  <energy_score>  (1516) 
20.992699210464053

>  <distance_score>  (1516) 
4.553352941637636

>  <path>  (1516) 
/opt/xchem-fragalysis-2/maxwin/BulkDock/SCRATCH/511013/C36060-P45/C36060-P45.minimised.mol

>  <scratch_subdir>  (1516) 
/opt/xchem-fragalysis-2/maxwin/BulkDock/SCRATCH/511013/C36060-P45

>  <fragmenstein_runtime>  (1516) 
8.548164129257202

>  <fragmenstein_outcome>  (1516) 
too moved

>  <fragmenstein_mode>  (1516) 
expansion

>  <fragmenstein_error>  (1516) 


$$$$
C36060-P54
     RDKit          3D

 42 45  0  0  0  0  0  0  0  0999 V2000
   -8.6549  -26.1379   27.2570 O   0  0  0  0  0  0  0  0  0  0  0  0
   -9.7925  -25.8041   27.3721 C   0  0  0  0  0  0  0  0  0  0  0  0
  -10.3638  -24.5644   27.7849 N   0  0  0  0  0  0  0  0  0  0  0  0
   -9.7447  -23.3495   28.2880 C   0  0  0  0  0  0  0  0  0  0  0  0
  -10.7794  -22.2504   28.5811 C   0  0  0  0  0  0  0  0  0  0  0  0
  -11.3459  -22.3157   29.9995 C   0  0  0  0  0  0  0  0  0  0  0  0
  -11.1298  -23.6301   30.5843 N   0  0  0  0  0  0  0  0  0  0  0  0
  -11.9499  -24.6603   30.1493 C   0  0  0  0  0  0  0  0  0  0  0  0
  -12.8846  -24.4033   29.2019 N   0  0  0  0  0  0  0  0  0  0  0  0
  -13.8034  -25.3522   28.9389 C   0  0  0  0  0  0  0  0  0  0  0  0
  -13.8046  -26.5776   29.5475 C   0  0  0  0  0  0  0  0  0  0  0  0
  -12.7752  -26.7960   30.4263 C   0  0  0  0  0  0  0  0  0  0  0  0
  -11.8588  -25.8616   30.7444 N   0  0  0  0  0  0  0  0  0  0  0  0
   -9.7308  -23.9756   30.7881 C   0  0  0  0  0  0  0  0  0  0  0  0
   -8.9048  -23.6823   29.5299 C   0  0  0  0  0  0  0  0  0  0  0  0
  -10.8276  -26.8362   27.1564 C   0  0  0  0  0  0  0  0  0  0  0  0
  -10.7491  -28.1151   27.8586 C   0  0  0  0  0  0  0  0  0  0  0  0
  -11.7940  -28.9604   27.8835 C   0  0  0  0  0  0  0  0  0  0  0  0
  -12.9513  -28.6397   27.1215 C   0  0  0  0  0  0  0  0  0  0  0  0
  -14.0848  -29.2804   26.9573 N   0  0  0  0  0  0  0  0  0  0  0  0
  -14.8117  -28.5132   26.0854 C   0  0  0  0  0  0  0  0  0  0  0  0
  -14.1144  -27.3937   25.7039 C   0  0  0  0  0  0  0  0  0  0  0  0
  -12.9227  -27.4716   26.3645 N   0  0  0  0  0  0  0  0  0  0  0  0
  -11.8843  -26.5669   26.3824 C   0  0  0  0  0  0  0  0  0  0  0  0
  -11.3723  -24.6676   27.8442 H   0  0  0  0  0  0  0  0  0  0  0  0
   -9.1197  -22.9919   27.4771 H   0  0  0  0  0  0  0  0  0  0  0  0
  -10.3171  -21.2645   28.4491 H   0  0  0  0  0  0  0  0  0  0  0  0
  -11.5946  -22.2947   27.8480 H   0  0  0  0  0  0  0  0  0  0  0  0
  -10.8335  -21.5713   30.6229 H   0  0  0  0  0  0  0  0  0  0  0  0
  -12.4018  -22.0182   30.0136 H   0  0  0  0  0  0  0  0  0  0  0  0
  -14.5679  -25.0793   28.2168 H   0  0  0  0  0  0  0  0  0  0  0  0
  -14.5502  -27.3317   29.3333 H   0  0  0  0  0  0  0  0  0  0  0  0
  -12.6635  -27.7491   30.9360 H   0  0  0  0  0  0  0  0  0  0  0  0
   -9.5968  -25.0087   31.1123 H   0  0  0  0  0  0  0  0  0  0  0  0
   -9.3385  -23.3693   31.6150 H   0  0  0  0  0  0  0  0  0  0  0  0
   -8.2351  -22.8536   29.7525 H   0  0  0  0  0  0  0  0  0  0  0  0
   -8.2314  -24.5174   29.3267 H   0  0  0  0  0  0  0  0  0  0  0  0
   -9.8244  -28.3782   28.3598 H   0  0  0  0  0  0  0  0  0  0  0  0
  -11.7546  -29.9061   28.4116 H   0  0  0  0  0  0  0  0  0  0  0  0
  -15.8077  -28.8082   25.7778 H   0  0  0  0  0  0  0  0  0  0  0  0
  -14.3662  -26.5738   25.0485 H   0  0  0  0  0  0  0  0  0  0  0  0
  -12.0155  -25.6461   25.8376 H   0  0  0  0  0  0  0  0  0  0  0  0
  1  2  2  0
  2  3  1  0
  3  4  1  0
  4  5  1  0
  5  6  1  0
  6  7  1  0
  7  8  1  0
  8  9  2  0
  9 10  1  0
 10 11  2  0
 11 12  1  0
 12 13  2  0
  7 14  1  0
 14 15  1  0
  2 16  1  0
 16 17  1  0
 17 18  2  0
 18 19  1  0
 19 20  2  0
 20 21  1  0
 21 22  2  0
 22 23  1  0
 23 24  1  0
 15  4  1  0
 24 16  2  0
 13  8  1  0
 23 19  1  0
  3 25  1  0
  4 26  1  0
  5 27  1  0
  5 28  1  0
  6 29  1  0
  6 30  1  0
 10 31  1  0
 11 32  1  0
 12 33  1  0
 14 34  1  0
 14 35  1  0
 15 36  1  0
 15 37  1  0
 17 38  1  0
 18 39  1  0
 21 40  1  0
 22 41  1  0
 24 42  1  0
M  END
>  <Energy>  (1517) 
-53.751625359577844

>  <compound_id>  (1517) 
36060

>  <target_id>  (1517) 
1

>  <reference_id>  (1517) 
54

>  <inspiration_ids>  (1517) 
[45, 54]

>  <energy_score>  (1517) 
-16.92242089401239

>  <distance_score>  (1517) 
5.109458986896661

>  <path>  (1517) 
/opt/xchem-fragalysis-2/maxwin/BulkDock/SCRATCH/511013/C36060-P54/C36060-P54.minimised.mol

>  <scratch_subdir>  (1517) 
/opt/xchem-fragalysis-2/maxwin/BulkDock/SCRATCH/511013/C36060-P54

>  <fragmenstein_runtime>  (1517) 
9.837059259414673

>  <fragmenstein_outcome>  (1517) 
too moved

>  <fragmenstein_mode>  (1517) 
expansion

>  <fragmenstein_error>  (1517) 


$$$$
C36061-P45
     RDKit          3D

 43 47  0  0  0  0  0  0  0  0999 V2000
  -11.4417  -28.3066   30.0733 O   0  0  0  0  0  0  0  0  0  0  0  0
  -10.8514  -27.3079   29.7898 C   0  0  0  0  0  0  0  0  0  0  0  0
  -10.1689  -26.3505   30.6202 N   0  0  0  0  0  0  0  0  0  0  0  0
   -9.8945  -26.3464   32.0675 C   0  0  0  0  0  0  0  0  0  0  0  0
   -8.6006  -25.5192   32.1460 C   0  0  0  0  0  0  0  0  0  0  0  0
   -8.8450  -24.5550   33.2910 C   0  0  0  0  0  0  0  0  0  0  0  0
   -8.7172  -25.4567   34.5101 C   0  0  0  0  0  0  0  0  0  0  0  0
  -10.1023  -26.0291   34.5664 C   0  0  0  0  0  0  0  0  0  0  0  0
  -10.6656  -25.6148   33.2513 C   0  0  0  0  0  0  0  0  0  0  0  0
  -10.2446  -24.2577   33.2342 N   0  0  0  0  0  0  0  0  0  0  0  0
  -10.8438  -23.5046   32.2795 C   0  0  0  0  0  0  0  0  0  0  0  0
  -11.2084  -22.3079   32.6861 N   0  0  0  0  0  0  0  0  0  0  0  0
  -11.7439  -21.5074   31.7807 C   0  0  0  0  0  0  0  0  0  0  0  0
  -11.9718  -21.8431   30.4705 C   0  0  0  0  0  0  0  0  0  0  0  0
  -11.6517  -23.1154   30.1492 C   0  0  0  0  0  0  0  0  0  0  0  0
  -11.0777  -23.9471   31.0259 N   0  0  0  0  0  0  0  0  0  0  0  0
  -10.6094  -26.8921   28.3567 C   0  0  0  0  0  0  0  0  0  0  0  0
  -11.1372  -25.6530   27.8198 C   0  0  0  0  0  0  0  0  0  0  0  0
  -10.3307  -24.7766   27.1903 C   0  0  0  0  0  0  0  0  0  0  0  0
   -8.9455  -25.0777   27.0536 C   0  0  0  0  0  0  0  0  0  0  0  0
   -7.8900  -24.3213   26.8427 N   0  0  0  0  0  0  0  0  0  0  0  0
   -6.8204  -25.1758   26.8309 C   0  0  0  0  0  0  0  0  0  0  0  0
   -7.2325  -26.4756   27.0085 C   0  0  0  0  0  0  0  0  0  0  0  0
   -8.5705  -26.3903   27.2854 N   0  0  0  0  0  0  0  0  0  0  0  0
   -9.3973  -27.3082   27.9210 C   0  0  0  0  0  0  0  0  0  0  0  0
   -9.8512  -25.5786   30.0438 H   0  0  0  0  0  0  0  0  0  0  0  0
   -9.8411  -27.4069   32.2727 H   0  0  0  0  0  0  0  0  0  0  0  0
   -7.7475  -26.1508   32.3290 H   0  0  0  0  0  0  0  0  0  0  0  0
   -8.4356  -24.9933   31.2146 H   0  0  0  0  0  0  0  0  0  0  0  0
   -8.2653  -23.6753   33.4664 H   0  0  0  0  0  0  0  0  0  0  0  0
   -7.8880  -26.1244   34.3217 H   0  0  0  0  0  0  0  0  0  0  0  0
   -8.4234  -25.0414   35.4742 H   0  0  0  0  0  0  0  0  0  0  0  0
  -10.6599  -25.5472   35.3666 H   0  0  0  0  0  0  0  0  0  0  0  0
  -10.2448  -27.0935   34.6802 H   0  0  0  0  0  0  0  0  0  0  0  0
  -11.6844  -25.6774   33.5366 H   0  0  0  0  0  0  0  0  0  0  0  0
  -11.9421  -20.5534   32.2278 H   0  0  0  0  0  0  0  0  0  0  0  0
  -12.3722  -21.1858   29.7202 H   0  0  0  0  0  0  0  0  0  0  0  0
  -11.8480  -23.4938   29.1596 H   0  0  0  0  0  0  0  0  0  0  0  0
  -12.1906  -25.4511   27.9788 H   0  0  0  0  0  0  0  0  0  0  0  0
  -10.7099  -23.8330   26.8183 H   0  0  0  0  0  0  0  0  0  0  0  0
   -5.8113  -24.8202   26.6623 H   0  0  0  0  0  0  0  0  0  0  0  0
   -6.6881  -27.4092   27.0321 H   0  0  0  0  0  0  0  0  0  0  0  0
   -8.8877  -28.1830   28.2794 H   0  0  0  0  0  0  0  0  0  0  0  0
  1  2  2  0
  2  3  1  0
  3  4  1  0
  4  5  1  0
  5  6  1  0
  6  7  1  0
  7  8  1  0
  8  9  1  0
  9 10  1  0
 10 11  1  0
 11 12  2  0
 12 13  1  0
 13 14  2  0
 14 15  1  0
 15 16  2  0
  2 17  1  0
 17 18  1  0
 18 19  2  0
 19 20  1  0
 20 21  2  0
 21 22  1  0
 22 23  2  0
 23 24  1  0
 24 25  1  0
  9  4  1  0
 16 11  1  0
 25 17  2  0
 10  6  1  0
 24 20  1  0
  3 26  1  0
  4 27  1  0
  5 28  1  0
  5 29  1  0
  6 30  1  0
  7 31  1  0
  7 32  1  0
  8 33  1  0
  8 34  1  0
  9 35  1  0
 13 36  1  0
 14 37  1  0
 15 38  1  0
 18 39  1  0
 19 40  1  0
 22 41  1  0
 23 42  1  0
 25 43  1  0
M  END
>  <Energy>  (1518) 
53.474325824993635

>  <compound_id>  (1518) 
36061

>  <target_id>  (1518) 
1

>  <reference_id>  (1518) 
45

>  <inspiration_ids>  (1518) 
[45, 54]

>  <energy_score>  (1518) 
42.78797971059197

>  <distance_score>  (1518) 
3.3202156212344467

>  <path>  (1518) 
/opt/xchem-fragalysis-2/maxwin/BulkDock/SCRATCH/511013/C36061-P45/C36061-P45.minimised.mol

>  <scratch_subdir>  (1518) 
/opt/xchem-fragalysis-2/maxwin/BulkDock/SCRATCH/511013/C36061-P45

>  <fragmenstein_runtime>  (1518) 
12.387412309646606

>  <fragmenstein_outcome>  (1518) 
too moved

>  <fragmenstein_mode>  (1518) 
expansion

>  <fragmenstein_error>  (1518) 


$$$$
C36061-P54
     RDKit          3D

 43 47  0  0  0  0  0  0  0  0999 V2000
  -12.7429  -26.6722   31.4610 O   0  0  0  0  0  0  0  0  0  0  0  0
  -11.9751  -26.3246   30.6568 C   0  0  0  0  0  0  0  0  0  0  0  0
  -10.8196  -25.2988   30.7504 N   0  0  0  0  0  0  0  0  0  0  0  0
  -10.3066  -24.5518   31.8929 C   0  0  0  0  0  0  0  0  0  0  0  0
   -8.8233  -24.3274   31.7662 C   0  0  0  0  0  0  0  0  0  0  0  0
   -8.6870  -22.8172   31.6445 C   0  0  0  0  0  0  0  0  0  0  0  0
   -8.8139  -22.2100   33.0470 C   0  0  0  0  0  0  0  0  0  0  0  0
  -10.3111  -22.4022   33.3032 C   0  0  0  0  0  0  0  0  0  0  0  0
  -10.8064  -23.0578   31.9867 C   0  0  0  0  0  0  0  0  0  0  0  0
   -9.9344  -22.3571   31.0585 N   0  0  0  0  0  0  0  0  0  0  0  0
  -10.2381  -22.5769   29.7407 C   0  0  0  0  0  0  0  0  0  0  0  0
  -11.1601  -21.7915   29.1836 N   0  0  0  0  0  0  0  0  0  0  0  0
  -11.3974  -21.9749   27.8780 C   0  0  0  0  0  0  0  0  0  0  0  0
  -10.8478  -22.9646   27.1208 C   0  0  0  0  0  0  0  0  0  0  0  0
   -9.9513  -23.7357   27.7925 C   0  0  0  0  0  0  0  0  0  0  0  0
   -9.6208  -23.5595   29.0745 N   0  0  0  0  0  0  0  0  0  0  0  0
  -11.8641  -26.9113   29.2738 C   0  0  0  0  0  0  0  0  0  0  0  0
  -12.2597  -26.1739   28.0855 C   0  0  0  0  0  0  0  0  0  0  0  0
  -11.5695  -26.2767   26.9375 C   0  0  0  0  0  0  0  0  0  0  0  0
  -10.3796  -27.0272   26.9493 C   0  0  0  0  0  0  0  0  0  0  0  0
   -9.2714  -26.8776   26.2859 N   0  0  0  0  0  0  0  0  0  0  0  0
   -8.4331  -27.8484   26.7762 C   0  0  0  0  0  0  0  0  0  0  0  0
   -9.0689  -28.6167   27.7065 C   0  0  0  0  0  0  0  0  0  0  0  0
  -10.2244  -27.9497   27.9607 N   0  0  0  0  0  0  0  0  0  0  0  0
  -10.9674  -27.9077   29.1322 C   0  0  0  0  0  0  0  0  0  0  0  0
  -10.3977  -25.1763   29.8315 H   0  0  0  0  0  0  0  0  0  0  0  0
  -10.3930  -25.2061   32.7566 H   0  0  0  0  0  0  0  0  0  0  0  0
   -8.2716  -24.7248   32.6263 H   0  0  0  0  0  0  0  0  0  0  0  0
   -8.4611  -24.7977   30.8565 H   0  0  0  0  0  0  0  0  0  0  0  0
   -7.8015  -22.5289   31.1005 H   0  0  0  0  0  0  0  0  0  0  0  0
   -8.5750  -21.1420   33.0463 H   0  0  0  0  0  0  0  0  0  0  0  0
   -8.1854  -22.7038   33.7937 H   0  0  0  0  0  0  0  0  0  0  0  0
  -10.7973  -21.4351   33.4736 H   0  0  0  0  0  0  0  0  0  0  0  0
  -10.4488  -23.0258   34.1768 H   0  0  0  0  0  0  0  0  0  0  0  0
  -11.8474  -22.8930   31.7581 H   0  0  0  0  0  0  0  0  0  0  0  0
  -12.0513  -21.2520   27.4314 H   0  0  0  0  0  0  0  0  0  0  0  0
  -11.0649  -23.0858   26.0711 H   0  0  0  0  0  0  0  0  0  0  0  0
   -9.4348  -24.5548   27.3193 H   0  0  0  0  0  0  0  0  0  0  0  0
  -13.1416  -25.5430   28.1560 H   0  0  0  0  0  0  0  0  0  0  0  0
  -11.8510  -25.7307   26.0477 H   0  0  0  0  0  0  0  0  0  0  0  0
   -7.4252  -27.9968   26.4169 H   0  0  0  0  0  0  0  0  0  0  0  0
   -8.7445  -29.4613   28.2788 H   0  0  0  0  0  0  0  0  0  0  0  0
  -10.6031  -28.4795   29.9696 H   0  0  0  0  0  0  0  0  0  0  0  0
  1  2  2  0
  2  3  1  0
  3  4  1  0
  4  5  1  0
  5  6  1  0
  6  7  1  0
  7  8  1  0
  8  9  1  0
  9 10  1  0
 10 11  1  0
 11 12  2  0
 12 13  1  0
 13 14  2  0
 14 15  1  0
 15 16  2  0
  2 17  1  0
 17 18  1  0
 18 19  2  0
 19 20  1  0
 20 21  2  0
 21 22  1  0
 22 23  2  0
 23 24  1  0
 24 25  1  0
  9  4  1  0
 16 11  1  0
 25 17  2  0
 10  6  1  0
 24 20  1  0
  3 26  1  0
  4 27  1  0
  5 28  1  0
  5 29  1  0
  6 30  1  0
  7 31  1  0
  7 32  1  0
  8 33  1  0
  8 34  1  0
  9 35  1  0
 13 36  1  0
 14 37  1  0
 15 38  1  0
 18 39  1  0
 19 40  1  0
 22 41  1  0
 23 42  1  0
 25 43  1  0
M  END
>  <Energy>  (1519) 
22.895585282538942

>  <compound_id>  (1519) 
36061

>  <target_id>  (1519) 
1

>  <reference_id>  (1519) 
54

>  <inspiration_ids>  (1519) 
[45, 54]

>  <energy_score>  (1519) 
4.2578685354556285

>  <distance_score>  (1519) 
3.4390329318186224

>  <path>  (1519) 
/opt/xchem-fragalysis-2/maxwin/BulkDock/SCRATCH/511013/C36061-P54/C36061-P54.minimised.mol

>  <scratch_subdir>  (1519) 
/opt/xchem-fragalysis-2/maxwin/BulkDock/SCRATCH/511013/C36061-P54

>  <fragmenstein_runtime>  (1519) 
12.19870901107788

>  <fragmenstein_outcome>  (1519) 
too moved

>  <fragmenstein_mode>  (1519) 
expansion

>  <fragmenstein_error>  (1519) 


$$$$
C36062-P45
     RDKit          3D

 46 50  0  0  0  0  0  0  0  0999 V2000
  -11.0030  -27.4274   30.0469 O   0  0  0  0  0  0  0  0  0  0  0  0
  -10.1421  -26.5982   30.1754 C   0  0  0  0  0  0  0  0  0  0  0  0
   -9.7255  -25.8223   31.3548 N   0  0  0  0  0  0  0  0  0  0  0  0
  -10.2917  -25.7507   32.7059 C   0  0  0  0  0  0  0  0  0  0  0  0
   -9.6507  -25.2270   33.9069 C   0  0  0  0  0  0  0  0  0  0  0  0
  -10.7396  -24.3216   33.3295 C   0  0  0  0  0  0  0  0  0  0  0  0
  -11.9390  -23.8895   34.1673 C   0  0  0  0  0  0  0  0  0  0  0  0
  -12.7854  -22.6197   33.6148 C   0  0  0  0  0  0  0  0  0  0  0  0
  -12.3431  -22.0143   32.2823 N   0  0  0  0  0  0  0  0  0  0  0  0
  -12.2848  -22.4524   30.9381 C   0  0  0  0  0  0  0  0  0  0  0  0
  -11.9265  -21.6034   29.9641 N   0  0  0  0  0  0  0  0  0  0  0  0
  -11.7520  -22.1131   28.7158 C   0  0  0  0  0  0  0  0  0  0  0  0
  -11.8959  -23.4091   28.3434 C   0  0  0  0  0  0  0  0  0  0  0  0
  -12.2241  -24.2019   29.3830 C   0  0  0  0  0  0  0  0  0  0  0  0
  -12.3707  -23.7517   30.6528 N   0  0  0  0  0  0  0  0  0  0  0  0
  -10.9791  -21.7500   32.5701 C   0  0  0  0  0  0  0  0  0  0  0  0
  -10.2257  -23.1447   32.6573 C   0  0  0  0  0  0  0  0  0  0  0  0
   -9.3503  -26.2439   28.9152 C   0  0  0  0  0  0  0  0  0  0  0  0
   -8.9293  -24.8934   28.5869 C   0  0  0  0  0  0  0  0  0  0  0  0
   -7.8976  -24.6242   27.7703 C   0  0  0  0  0  0  0  0  0  0  0  0
   -7.1830  -25.7143   27.2267 C   0  0  0  0  0  0  0  0  0  0  0  0
   -5.9358  -25.8099   26.8361 N   0  0  0  0  0  0  0  0  0  0  0  0
   -5.7487  -27.1464   26.5749 C   0  0  0  0  0  0  0  0  0  0  0  0
   -6.9194  -27.8547   26.7379 C   0  0  0  0  0  0  0  0  0  0  0  0
   -7.7954  -26.9607   27.2946 N   0  0  0  0  0  0  0  0  0  0  0  0
   -8.9198  -27.2201   28.0855 C   0  0  0  0  0  0  0  0  0  0  0  0
   -8.9097  -25.2739   31.1196 H   0  0  0  0  0  0  0  0  0  0  0  0
  -10.7131  -26.7090   32.9851 H   0  0  0  0  0  0  0  0  0  0  0  0
   -9.8966  -25.7352   34.8296 H   0  0  0  0  0  0  0  0  0  0  0  0
   -8.6021  -24.9945   33.8049 H   0  0  0  0  0  0  0  0  0  0  0  0
  -11.5702  -23.5481   35.1284 H   0  0  0  0  0  0  0  0  0  0  0  0
  -12.5666  -24.7250   34.4631 H   0  0  0  0  0  0  0  0  0  0  0  0
  -12.6274  -21.8279   34.3657 H   0  0  0  0  0  0  0  0  0  0  0  0
  -13.8768  -22.6847   33.7127 H   0  0  0  0  0  0  0  0  0  0  0  0
  -11.5097  -21.4263   27.9307 H   0  0  0  0  0  0  0  0  0  0  0  0
  -11.7983  -23.7492   27.3249 H   0  0  0  0  0  0  0  0  0  0  0  0
  -12.4446  -25.2549   29.2319 H   0  0  0  0  0  0  0  0  0  0  0  0
  -10.5754  -21.0225   31.8598 H   0  0  0  0  0  0  0  0  0  0  0  0
  -10.9738  -21.1510   33.4789 H   0  0  0  0  0  0  0  0  0  0  0  0
   -9.2294  -23.0325   33.0873 H   0  0  0  0  0  0  0  0  0  0  0  0
  -10.1548  -23.5111   31.6398 H   0  0  0  0  0  0  0  0  0  0  0  0
   -9.5276  -24.0949   28.9748 H   0  0  0  0  0  0  0  0  0  0  0  0
   -7.5751  -23.6147   27.5448 H   0  0  0  0  0  0  0  0  0  0  0  0
   -4.7855  -27.5222   26.2495 H   0  0  0  0  0  0  0  0  0  0  0  0
   -7.1510  -28.9042   26.6157 H   0  0  0  0  0  0  0  0  0  0  0  0
   -9.2180  -28.2524   28.1537 H   0  0  0  0  0  0  0  0  0  0  0  0
  1  2  2  0
  2  3  1  0
  3  4  1  0
  4  5  1  0
  5  6  1  0
  6  7  1  0
  7  8  1  0
  8  9  1  0
  9 10  1  0
 10 11  2  0
 11 12  1  0
 12 13  2  0
 13 14  1  0
 14 15  2  0
  9 16  1  0
 16 17  1  0
  2 18  1  0
 18 19  1  0
 19 20  2  0
 20 21  1  0
 21 22  2  0
 22 23  1  0
 23 24  2  0
 24 25  1  0
 25 26  1  0
  6  4  1  0
 15 10  1  0
 26 18  2  0
 17  6  1  0
 25 21  1  0
  3 27  1  0
  4 28  1  0
  5 29  1  0
  5 30  1  0
  7 31  1  0
  7 32  1  0
  8 33  1  0
  8 34  1  0
 12 35  1  0
 13 36  1  0
 14 37  1  0
 16 38  1  0
 16 39  1  0
 17 40  1  0
 17 41  1  0
 19 42  1  0
 20 43  1  0
 23 44  1  0
 24 45  1  0
 26 46  1  0
M  END
>  <Energy>  (1520) 
75.34775950174847

>  <compound_id>  (1520) 
36062

>  <target_id>  (1520) 
1

>  <reference_id>  (1520) 
45

>  <inspiration_ids>  (1520) 
[45, 54]

>  <energy_score>  (1520) 
60.83341145570307

>  <distance_score>  (1520) 
2.7772121675599206

>  <path>  (1520) 
/opt/xchem-fragalysis-2/maxwin/BulkDock/SCRATCH/511013/C36062-P45/C36062-P45.minimised.mol

>  <scratch_subdir>  (1520) 
/opt/xchem-fragalysis-2/maxwin/BulkDock/SCRATCH/511013/C36062-P45

>  <fragmenstein_runtime>  (1520) 
13.634977340698242

>  <fragmenstein_outcome>  (1520) 
too moved

>  <fragmenstein_mode>  (1520) 
expansion

>  <fragmenstein_error>  (1520) 


$$$$
C36062-P54
     RDKit          3D

 46 50  0  0  0  0  0  0  0  0999 V2000
  -14.3102  -29.0037   30.1185 O   0  0  0  0  0  0  0  0  0  0  0  0
  -13.7538  -28.1502   29.4979 C   0  0  0  0  0  0  0  0  0  0  0  0
  -12.9946  -27.0099   29.9377 N   0  0  0  0  0  0  0  0  0  0  0  0
  -12.5914  -26.6050   31.2309 C   0  0  0  0  0  0  0  0  0  0  0  0
  -11.4465  -27.3762   31.7279 C   0  0  0  0  0  0  0  0  0  0  0  0
  -11.1217  -25.9628   31.2191 C   0  0  0  0  0  0  0  0  0  0  0  0
  -10.2550  -25.0735   32.1169 C   0  0  0  0  0  0  0  0  0  0  0  0
  -10.4269  -23.5812   31.7767 C   0  0  0  0  0  0  0  0  0  0  0  0
  -11.3989  -23.4001   30.6911 N   0  0  0  0  0  0  0  0  0  0  0  0
  -11.5555  -22.0643   30.3801 C   0  0  0  0  0  0  0  0  0  0  0  0
  -11.4704  -21.1688   31.3669 N   0  0  0  0  0  0  0  0  0  0  0  0
  -11.2999  -19.9064   31.0121 C   0  0  0  0  0  0  0  0  0  0  0  0
  -11.1454  -19.5515   29.7040 C   0  0  0  0  0  0  0  0  0  0  0  0
  -11.3113  -20.5134   28.7558 C   0  0  0  0  0  0  0  0  0  0  0  0
  -11.6163  -21.7540   29.0782 N   0  0  0  0  0  0  0  0  0  0  0  0
  -11.3212  -24.2171   29.4868 C   0  0  0  0  0  0  0  0  0  0  0  0
  -10.6874  -25.5300   29.8363 C   0  0  0  0  0  0  0  0  0  0  0  0
  -13.6257  -28.1393   27.9835 C   0  0  0  0  0  0  0  0  0  0  0  0
  -13.9529  -26.9725   27.1582 C   0  0  0  0  0  0  0  0  0  0  0  0
  -13.0044  -26.3029   26.4661 C   0  0  0  0  0  0  0  0  0  0  0  0
  -11.6420  -26.7094   26.5612 C   0  0  0  0  0  0  0  0  0  0  0  0
  -10.5163  -26.0895   26.2732 N   0  0  0  0  0  0  0  0  0  0  0  0
   -9.5268  -26.8892   26.7854 C   0  0  0  0  0  0  0  0  0  0  0  0
  -10.0379  -28.0505   27.3044 C   0  0  0  0  0  0  0  0  0  0  0  0
  -11.3979  -27.9148   27.2080 N   0  0  0  0  0  0  0  0  0  0  0  0
  -12.3855  -28.6841   27.8274 C   0  0  0  0  0  0  0  0  0  0  0  0
  -12.7394  -26.4554   29.1365 H   0  0  0  0  0  0  0  0  0  0  0  0
  -13.3636  -26.5398   31.9802 H   0  0  0  0  0  0  0  0  0  0  0  0
  -11.1840  -28.2519   31.1405 H   0  0  0  0  0  0  0  0  0  0  0  0
  -11.4168  -27.5651   32.7983 H   0  0  0  0  0  0  0  0  0  0  0  0
   -9.1991  -25.2516   31.8883 H   0  0  0  0  0  0  0  0  0  0  0  0
  -10.2362  -25.3295   33.1709 H   0  0  0  0  0  0  0  0  0  0  0  0
   -9.4503  -23.1685   31.4829 H   0  0  0  0  0  0  0  0  0  0  0  0
  -10.7229  -23.0498   32.6888 H   0  0  0  0  0  0  0  0  0  0  0  0
  -11.1990  -19.1884   31.8188 H   0  0  0  0  0  0  0  0  0  0  0  0
  -10.8664  -18.5554   29.4452 H   0  0  0  0  0  0  0  0  0  0  0  0
  -11.1974  -20.3213   27.6978 H   0  0  0  0  0  0  0  0  0  0  0  0
  -12.3320  -24.3623   29.0881 H   0  0  0  0  0  0  0  0  0  0  0  0
  -10.7049  -23.7866   28.6846 H   0  0  0  0  0  0  0  0  0  0  0  0
   -9.6274  -25.2688   29.8204 H   0  0  0  0  0  0  0  0  0  0  0  0
  -10.8308  -26.2846   29.0843 H   0  0  0  0  0  0  0  0  0  0  0  0
  -14.9907  -26.6494   27.1457 H   0  0  0  0  0  0  0  0  0  0  0  0
  -13.2429  -25.4178   25.8870 H   0  0  0  0  0  0  0  0  0  0  0  0
   -8.4903  -26.5896   26.8058 H   0  0  0  0  0  0  0  0  0  0  0  0
   -9.5635  -28.8840   27.8027 H   0  0  0  0  0  0  0  0  0  0  0  0
  -12.0005  -29.4721   28.4721 H   0  0  0  0  0  0  0  0  0  0  0  0
  1  2  2  0
  2  3  1  0
  3  4  1  0
  4  5  1  0
  5  6  1  0
  6  7  1  0
  7  8  1  0
  8  9  1  0
  9 10  1  0
 10 11  2  0
 11 12  1  0
 12 13  2  0
 13 14  1  0
 14 15  2  0
  9 16  1  0
 16 17  1  0
  2 18  1  0
 18 19  1  0
 19 20  2  0
 20 21  1  0
 21 22  2  0
 22 23  1  0
 23 24  2  0
 24 25  1  0
 25 26  1  0
  6  4  1  0
 15 10  1  0
 26 18  2  0
 17  6  1  0
 25 21  1  0
  3 27  1  0
  4 28  1  0
  5 29  1  0
  5 30  1  0
  7 31  1  0
  7 32  1  0
  8 33  1  0
  8 34  1  0
 12 35  1  0
 13 36  1  0
 14 37  1  0
 16 38  1  0
 16 39  1  0
 17 40  1  0
 17 41  1  0
 19 42  1  0
 20 43  1  0
 23 44  1  0
 24 45  1  0
 26 46  1  0
M  END
>  <Energy>  (1521) 
65.13796156356473

>  <compound_id>  (1521) 
36062

>  <target_id>  (1521) 
1

>  <reference_id>  (1521) 
54

>  <inspiration_ids>  (1521) 
[45, 54]

>  <energy_score>  (1521) 
50.623613517521875

>  <distance_score>  (1521) 
4.79435983681425

>  <path>  (1521) 
/opt/xchem-fragalysis-2/maxwin/BulkDock/SCRATCH/511013/C36062-P54/C36062-P54.minimised.mol

>  <scratch_subdir>  (1521) 
/opt/xchem-fragalysis-2/maxwin/BulkDock/SCRATCH/511013/C36062-P54

>  <fragmenstein_runtime>  (1521) 
12.13188362121582

>  <fragmenstein_outcome>  (1521) 
too moved

>  <fragmenstein_mode>  (1521) 
expansion

>  <fragmenstein_error>  (1521) 


$$$$
C36063-P45
     RDKit          3D

 46 50  0  0  0  0  0  0  0  0999 V2000
   -8.9409  -25.0598   29.2805 O   0  0  0  0  0  0  0  0  0  0  0  0
   -9.7621  -25.9181   29.4372 C   0  0  0  0  0  0  0  0  0  0  0  0
  -10.3446  -26.4463   30.6296 N   0  0  0  0  0  0  0  0  0  0  0  0
  -10.0384  -26.1670   32.1214 C   0  0  0  0  0  0  0  0  0  0  0  0
   -8.6303  -26.5435   32.0554 C   0  0  0  0  0  0  0  0  0  0  0  0
   -8.6007  -25.7830   33.2371 C   0  0  0  0  0  0  0  0  0  0  0  0
  -10.2046  -26.1148   34.3020 C   0  0  0  0  0  0  0  0  0  0  0  0
  -11.4607  -25.0741   33.5587 C   0  0  0  0  0  0  0  0  0  0  0  0
  -10.2060  -24.6729   33.5695 C   0  0  0  0  0  0  0  0  0  0  0  0
  -10.8584  -24.1967   32.1006 N   0  0  0  0  0  0  0  0  0  0  0  0
  -11.4290  -23.4862   31.0937 C   0  0  0  0  0  0  0  0  0  0  0  0
  -11.2137  -22.1954   30.9458 N   0  0  0  0  0  0  0  0  0  0  0  0
  -11.2864  -21.7573   29.6799 C   0  0  0  0  0  0  0  0  0  0  0  0
  -11.6964  -22.4556   28.5917 C   0  0  0  0  0  0  0  0  0  0  0  0
  -12.1014  -23.6978   28.9100 C   0  0  0  0  0  0  0  0  0  0  0  0
  -11.9923  -24.2241   30.1322 N   0  0  0  0  0  0  0  0  0  0  0  0
   -9.0279  -24.2539   32.1603 C   0  0  0  0  0  0  0  0  0  0  0  0
  -10.1981  -26.6624   28.1481 C   0  0  0  0  0  0  0  0  0  0  0  0
  -10.7152  -25.8184   27.0654 C   0  0  0  0  0  0  0  0  0  0  0  0
   -9.8702  -25.0868   26.3155 C   0  0  0  0  0  0  0  0  0  0  0  0
   -8.4709  -25.2727   26.5219 C   0  0  0  0  0  0  0  0  0  0  0  0
   -7.4105  -24.5068   26.3773 N   0  0  0  0  0  0  0  0  0  0  0  0
   -6.3454  -25.3028   26.7284 C   0  0  0  0  0  0  0  0  0  0  0  0
   -6.7577  -26.5920   26.9864 C   0  0  0  0  0  0  0  0  0  0  0  0
   -8.1210  -26.5028   27.0665 N   0  0  0  0  0  0  0  0  0  0  0  0
   -9.0452  -27.2957   27.7814 C   0  0  0  0  0  0  0  0  0  0  0  0
  -10.9435  -27.2210   30.3869 H   0  0  0  0  0  0  0  0  0  0  0  0
  -10.5468  -27.0673   32.5070 H   0  0  0  0  0  0  0  0  0  0  0  0
   -7.9790  -25.9591   31.4447 H   0  0  0  0  0  0  0  0  0  0  0  0
   -8.4764  -27.6001   31.8401 H   0  0  0  0  0  0  0  0  0  0  0  0
   -7.6706  -25.7810   33.7752 H   0  0  0  0  0  0  0  0  0  0  0  0
  -10.0589  -25.7838   35.3428 H   0  0  0  0  0  0  0  0  0  0  0  0
  -10.4132  -27.1773   34.3510 H   0  0  0  0  0  0  0  0  0  0  0  0
  -11.9915  -24.4178   34.2617 H   0  0  0  0  0  0  0  0  0  0  0  0
  -10.3712  -23.5200   33.6471 H   0  0  0  0  0  0  0  0  0  0  0  0
   -9.3303  -24.5174   34.2513 H   0  0  0  0  0  0  0  0  0  0  0  0
  -10.8408  -20.8024   29.5505 H   0  0  0  0  0  0  0  0  0  0  0  0
  -11.6838  -22.0685   27.5874 H   0  0  0  0  0  0  0  0  0  0  0  0
  -12.5306  -24.3471   28.1690 H   0  0  0  0  0  0  0  0  0  0  0  0
   -8.7567  -23.4087   32.7881 H   0  0  0  0  0  0  0  0  0  0  0  0
   -8.7491  -24.4006   31.1541 H   0  0  0  0  0  0  0  0  0  0  0  0
  -11.7798  -25.8253   26.8794 H   0  0  0  0  0  0  0  0  0  0  0  0
  -10.2274  -24.4445   25.5239 H   0  0  0  0  0  0  0  0  0  0  0  0
   -5.3299  -24.9301   26.7026 H   0  0  0  0  0  0  0  0  0  0  0  0
   -6.2101  -27.4913   27.2213 H   0  0  0  0  0  0  0  0  0  0  0  0
   -8.5488  -28.0000   28.4194 H   0  0  0  0  0  0  0  0  0  0  0  0
  1  2  2  0
  2  3  1  0
  3  4  1  0
  4  5  1  0
  5  6  1  0
  6  7  1  0
  7  8  1  0
  8  9  1  0
  8 10  1  0
 10 11  1  0
 11 12  2  0
 12 13  1  0
 13 14  2  0
 14 15  1  0
 15 16  2  0
 10 17  1  0
  2 18  1  0
 18 19  1  0
 19 20  2  0
 20 21  1  0
 21 22  2  0
 22 23  1  0
 23 24  2  0
 24 25  1  0
 25 26  1  0
  9  4  1  0
 16 11  1  0
 26 18  2  0
 17  6  1  0
 25 21  1  0
  3 27  1  0
  4 28  1  0
  5 29  1  0
  5 30  1  0
  6 31  1  0
  7 32  1  0
  7 33  1  0
  8 34  1  0
  9 35  1  0
  9 36  1  0
 13 37  1  0
 14 38  1  0
 15 39  1  0
 17 40  1  0
 17 41  1  0
 19 42  1  0
 20 43  1  0
 23 44  1  0
 24 45  1  0
 26 46  1  0
M  END
>  <Energy>  (1522) 
781.0134308366255

>  <compound_id>  (1522) 
36063

>  <target_id>  (1522) 
1

>  <reference_id>  (1522) 
45

>  <inspiration_ids>  (1522) 
[45, 54]

>  <energy_score>  (1522) 
799.8043342573354

>  <distance_score>  (1522) 
2.6838436294398558

>  <path>  (1522) 
/opt/xchem-fragalysis-2/maxwin/BulkDock/SCRATCH/511013/C36063-P45/C36063-P45.minimised.mol

>  <scratch_subdir>  (1522) 
/opt/xchem-fragalysis-2/maxwin/BulkDock/SCRATCH/511013/C36063-P45

>  <fragmenstein_runtime>  (1522) 
16.876399993896484

>  <fragmenstein_outcome>  (1522) 
too moved

>  <fragmenstein_mode>  (1522) 
expansion

>  <fragmenstein_error>  (1522) 


$$$$
C36063-P54
     RDKit          3D

 46 50  0  0  0  0  0  0  0  0999 V2000
  -12.9827  -26.5431   31.3121 O   0  0  0  0  0  0  0  0  0  0  0  0
  -12.4709  -26.2736   30.2677 C   0  0  0  0  0  0  0  0  0  0  0  0
  -11.6767  -25.1465   29.8770 N   0  0  0  0  0  0  0  0  0  0  0  0
  -11.3257  -23.9404   30.5887 C   0  0  0  0  0  0  0  0  0  0  0  0
   -9.8142  -23.7048   30.4671 C   0  0  0  0  0  0  0  0  0  0  0  0
   -9.4065  -22.9902   29.1709 C   0  0  0  0  0  0  0  0  0  0  0  0
  -10.2109  -21.7020   29.0607 C   0  0  0  0  0  0  0  0  0  0  0  0
  -11.5630  -22.2596   28.7227 C   0  0  0  0  0  0  0  0  0  0  0  0
  -12.1571  -22.7786   30.0101 C   0  0  0  0  0  0  0  0  0  0  0  0
  -11.2994  -23.4250   27.8629 N   0  0  0  0  0  0  0  0  0  0  0  0
  -11.9649  -23.2778   26.6678 C   0  0  0  0  0  0  0  0  0  0  0  0
  -11.3859  -22.6351   25.6558 N   0  0  0  0  0  0  0  0  0  0  0  0
  -12.1874  -22.2171   24.6588 C   0  0  0  0  0  0  0  0  0  0  0  0
  -13.5289  -22.4903   24.6052 C   0  0  0  0  0  0  0  0  0  0  0  0
  -14.0111  -23.2413   25.6439 C   0  0  0  0  0  0  0  0  0  0  0  0
  -13.2542  -23.6525   26.6720 N   0  0  0  0  0  0  0  0  0  0  0  0
   -9.8616  -23.6553   27.8666 C   0  0  0  0  0  0  0  0  0  0  0  0
  -12.4990  -27.1965   29.0802 C   0  0  0  0  0  0  0  0  0  0  0  0
  -12.9642  -26.7040   27.7824 C   0  0  0  0  0  0  0  0  0  0  0  0
  -12.1612  -26.7453   26.7024 C   0  0  0  0  0  0  0  0  0  0  0  0
  -10.8747  -27.3222   26.8342 C   0  0  0  0  0  0  0  0  0  0  0  0
   -9.7928  -27.2398   26.0950 N   0  0  0  0  0  0  0  0  0  0  0  0
   -8.8796  -28.0580   26.7168 C   0  0  0  0  0  0  0  0  0  0  0  0
   -9.4293  -28.6701   27.8114 C   0  0  0  0  0  0  0  0  0  0  0  0
  -10.6450  -28.0836   27.9732 N   0  0  0  0  0  0  0  0  0  0  0  0
  -11.4368  -28.0239   29.1122 C   0  0  0  0  0  0  0  0  0  0  0  0
  -11.4792  -25.2081   28.8811 H   0  0  0  0  0  0  0  0  0  0  0  0
  -11.5597  -24.0914   31.6277 H   0  0  0  0  0  0  0  0  0  0  0  0
   -9.4943  -23.0787   31.3108 H   0  0  0  0  0  0  0  0  0  0  0  0
   -9.2692  -24.6477   30.5585 H   0  0  0  0  0  0  0  0  0  0  0  0
   -8.3259  -22.8518   29.1776 H   0  0  0  0  0  0  0  0  0  0  0  0
   -9.8546  -21.0621   28.2535 H   0  0  0  0  0  0  0  0  0  0  0  0
  -10.2601  -21.1140   29.9786 H   0  0  0  0  0  0  0  0  0  0  0  0
  -12.1798  -21.4743   28.2805 H   0  0  0  0  0  0  0  0  0  0  0  0
  -13.1584  -23.1044   29.7341 H   0  0  0  0  0  0  0  0  0  0  0  0
  -12.2366  -21.9647   30.7394 H   0  0  0  0  0  0  0  0  0  0  0  0
  -11.7038  -21.6331   23.8808 H   0  0  0  0  0  0  0  0  0  0  0  0
  -14.1542  -22.0919   23.8220 H   0  0  0  0  0  0  0  0  0  0  0  0
  -15.0639  -23.4929   25.7225 H   0  0  0  0  0  0  0  0  0  0  0  0
   -9.3976  -23.1303   27.0333 H   0  0  0  0  0  0  0  0  0  0  0  0
   -9.6084  -24.7175   27.8266 H   0  0  0  0  0  0  0  0  0  0  0  0
  -13.9342  -26.2167   27.7421 H   0  0  0  0  0  0  0  0  0  0  0  0
  -12.4528  -26.3126   25.7538 H   0  0  0  0  0  0  0  0  0  0  0  0
   -7.8825  -28.2287   26.3327 H   0  0  0  0  0  0  0  0  0  0  0  0
   -9.0216  -29.3698   28.5142 H   0  0  0  0  0  0  0  0  0  0  0  0
  -10.9834  -28.3756   30.0293 H   0  0  0  0  0  0  0  0  0  0  0  0
  1  2  2  0
  2  3  1  0
  3  4  1  0
  4  5  1  0
  5  6  1  0
  6  7  1  0
  7  8  1  0
  8  9  1  0
  8 10  1  0
 10 11  1  0
 11 12  2  0
 12 13  1  0
 13 14  2  0
 14 15  1  0
 15 16  2  0
 10 17  1  0
  2 18  1  0
 18 19  1  0
 19 20  2  0
 20 21  1  0
 21 22  2  0
 22 23  1  0
 23 24  2  0
 24 25  1  0
 25 26  1  0
  9  4  1  0
 16 11  1  0
 26 18  2  0
 17  6  1  0
 25 21  1  0
  3 27  1  0
  4 28  1  0
  5 29  1  0
  5 30  1  0
  6 31  1  0
  7 32  1  0
  7 33  1  0
  8 34  1  0
  9 35  1  0
  9 36  1  0
 13 37  1  0
 14 38  1  0
 15 39  1  0
 17 40  1  0
 17 41  1  0
 19 42  1  0
 20 43  1  0
 23 44  1  0
 24 45  1  0
 26 46  1  0
M  END
>  <Energy>  (1523) 
-13.747163634899414

>  <compound_id>  (1523) 
36063

>  <target_id>  (1523) 
1

>  <reference_id>  (1523) 
54

>  <inspiration_ids>  (1523) 
[45, 54]

>  <energy_score>  (1523) 
5.043739785824471

>  <distance_score>  (1523) 
4.620840578649457

>  <path>  (1523) 
/opt/xchem-fragalysis-2/maxwin/BulkDock/SCRATCH/511013/C36063-P54/C36063-P54.minimised.mol

>  <scratch_subdir>  (1523) 
/opt/xchem-fragalysis-2/maxwin/BulkDock/SCRATCH/511013/C36063-P54

>  <fragmenstein_runtime>  (1523) 
15.557974338531494

>  <fragmenstein_outcome>  (1523) 
too moved

>  <fragmenstein_mode>  (1523) 
expansion

>  <fragmenstein_error>  (1523) 


$$$$
C36064-P45
     RDKit          3D

 40 44  0  0  0  0  0  0  0  0999 V2000
  -11.3815  -28.1687   29.9684 O   0  0  0  0  0  0  0  0  0  0  0  0
  -10.6765  -27.2058   29.8844 C   0  0  0  0  0  0  0  0  0  0  0  0
  -10.0884  -26.3690   30.9141 N   0  0  0  0  0  0  0  0  0  0  0  0
  -10.0941  -26.4986   32.3981 C   0  0  0  0  0  0  0  0  0  0  0  0
   -8.8829  -25.8435   33.1234 C   0  0  0  0  0  0  0  0  0  0  0  0
   -9.7817  -25.9655   34.3782 C   0  0  0  0  0  0  0  0  0  0  0  0
  -10.7999  -25.3948   33.4351 C   0  0  0  0  0  0  0  0  0  0  0  0
  -10.3309  -24.1142   33.0966 N   0  0  0  0  0  0  0  0  0  0  0  0
  -10.9980  -23.4211   32.1276 C   0  0  0  0  0  0  0  0  0  0  0  0
  -11.6864  -22.3932   32.5725 N   0  0  0  0  0  0  0  0  0  0  0  0
  -12.3654  -21.7203   31.6687 C   0  0  0  0  0  0  0  0  0  0  0  0
  -12.2590  -21.9188   30.3177 C   0  0  0  0  0  0  0  0  0  0  0  0
  -11.5715  -23.0202   29.9462 C   0  0  0  0  0  0  0  0  0  0  0  0
  -10.9795  -23.8187   30.8358 N   0  0  0  0  0  0  0  0  0  0  0  0
   -8.9669  -24.3932   32.8209 C   0  0  0  0  0  0  0  0  0  0  0  0
  -10.2073  -26.7286   28.5444 C   0  0  0  0  0  0  0  0  0  0  0  0
  -10.8000  -25.5797   27.9013 C   0  0  0  0  0  0  0  0  0  0  0  0
  -10.0460  -24.7586   27.1488 C   0  0  0  0  0  0  0  0  0  0  0  0
   -8.6542  -25.0239   27.0124 C   0  0  0  0  0  0  0  0  0  0  0  0
   -7.6214  -24.2576   26.7348 N   0  0  0  0  0  0  0  0  0  0  0  0
   -6.5320  -25.0871   26.7688 C   0  0  0  0  0  0  0  0  0  0  0  0
   -6.9138  -26.3861   27.0118 C   0  0  0  0  0  0  0  0  0  0  0  0
   -8.2397  -26.3034   27.3386 N   0  0  0  0  0  0  0  0  0  0  0  0
   -9.0180  -27.1672   28.0956 C   0  0  0  0  0  0  0  0  0  0  0  0
   -9.6131  -25.5876   30.4750 H   0  0  0  0  0  0  0  0  0  0  0  0
  -10.3654  -27.5348   32.6338 H   0  0  0  0  0  0  0  0  0  0  0  0
   -7.8734  -26.2324   33.0655 H   0  0  0  0  0  0  0  0  0  0  0  0
   -9.4399  -25.4460   35.2575 H   0  0  0  0  0  0  0  0  0  0  0  0
  -10.1992  -26.9188   34.7028 H   0  0  0  0  0  0  0  0  0  0  0  0
  -11.7558  -25.4163   33.9416 H   0  0  0  0  0  0  0  0  0  0  0  0
  -13.0452  -21.0455   32.1546 H   0  0  0  0  0  0  0  0  0  0  0  0
  -12.6963  -21.2912   29.5690 H   0  0  0  0  0  0  0  0  0  0  0  0
  -11.4747  -23.2655   28.9015 H   0  0  0  0  0  0  0  0  0  0  0  0
   -8.7159  -24.3278   31.7803 H   0  0  0  0  0  0  0  0  0  0  0  0
   -8.3558  -23.8143   33.5018 H   0  0  0  0  0  0  0  0  0  0  0  0
  -11.8617  -25.4106   28.0501 H   0  0  0  0  0  0  0  0  0  0  0  0
  -10.4831  -23.8932   26.6717 H   0  0  0  0  0  0  0  0  0  0  0  0
   -5.5332  -24.7217   26.5684 H   0  0  0  0  0  0  0  0  0  0  0  0
   -6.3479  -27.3051   27.0716 H   0  0  0  0  0  0  0  0  0  0  0  0
   -8.5176  -28.0316   28.4740 H   0  0  0  0  0  0  0  0  0  0  0  0
  1  2  2  0
  2  3  1  0
  3  4  1  0
  4  5  1  0
  5  6  1  0
  6  7  1  0
  7  8  1  0
  8  9  1  0
  9 10  2  0
 10 11  1  0
 11 12  2  0
 12 13  1  0
 13 14  2  0
  8 15  1  0
  2 16  1  0
 16 17  1  0
 17 18  2  0
 18 19  1  0
 19 20  2  0
 20 21  1  0
 21 22  2  0
 22 23  1  0
 23 24  1  0
  7  4  1  0
 14  9  1  0
 24 16  2  0
 15  5  1  0
 23 19  1  0
  3 25  1  0
  4 26  1  0
  5 27  1  0
  6 28  1  0
  6 29  1  0
  7 30  1  0
 11 31  1  0
 12 32  1  0
 13 33  1  0
 15 34  1  0
 15 35  1  0
 17 36  1  0
 18 37  1  0
 21 38  1  0
 22 39  1  0
 24 40  1  0
M  END
>  <Energy>  (1524) 
35.989190760565243

>  <compound_id>  (1524) 
36064

>  <target_id>  (1524) 
1

>  <reference_id>  (1524) 
45

>  <inspiration_ids>  (1524) 
[45, 54]

>  <energy_score>  (1524) 
14.467736966899281

>  <distance_score>  (1524) 
3.3184813158959825

>  <path>  (1524) 
/opt/xchem-fragalysis-2/maxwin/BulkDock/SCRATCH/511013/C36064-P45/C36064-P45.minimised.mol

>  <scratch_subdir>  (1524) 
/opt/xchem-fragalysis-2/maxwin/BulkDock/SCRATCH/511013/C36064-P45

>  <fragmenstein_runtime>  (1524) 
14.588677167892456

>  <fragmenstein_outcome>  (1524) 
too moved

>  <fragmenstein_mode>  (1524) 
expansion

>  <fragmenstein_error>  (1524) 


$$$$
C36064-P54
     RDKit          3D

 40 44  0  0  0  0  0  0  0  0999 V2000
   -8.4229  -23.4807   30.2815 O   0  0  0  0  0  0  0  0  0  0  0  0
   -9.2361  -24.2142   30.6742 C   0  0  0  0  0  0  0  0  0  0  0  0
   -9.7867  -24.4233   32.0903 N   0  0  0  0  0  0  0  0  0  0  0  0
   -9.5238  -23.7099   33.3092 C   0  0  0  0  0  0  0  0  0  0  0  0
   -8.6286  -22.4790   33.4735 C   0  0  0  0  0  0  0  0  0  0  0  0
   -9.7008  -22.0370   34.5002 C   0  0  0  0  0  0  0  0  0  0  0  0
  -10.6127  -22.5363   33.3817 C   0  0  0  0  0  0  0  0  0  0  0  0
  -10.4163  -21.6789   32.2557 N   0  0  0  0  0  0  0  0  0  0  0  0
  -10.9599  -21.8439   30.9606 C   0  0  0  0  0  0  0  0  0  0  0  0
  -11.8131  -22.8340   30.6721 N   0  0  0  0  0  0  0  0  0  0  0  0
  -12.2068  -23.0204   29.3839 C   0  0  0  0  0  0  0  0  0  0  0  0
  -11.7586  -22.2954   28.3260 C   0  0  0  0  0  0  0  0  0  0  0  0
  -10.9497  -21.2758   28.7019 C   0  0  0  0  0  0  0  0  0  0  0  0
  -10.5749  -21.0334   29.9761 N   0  0  0  0  0  0  0  0  0  0  0  0
   -8.9759  -21.5232   32.3645 C   0  0  0  0  0  0  0  0  0  0  0  0
  -10.0048  -25.0720   29.7418 C   0  0  0  0  0  0  0  0  0  0  0  0
  -10.9569  -26.1472   30.0776 C   0  0  0  0  0  0  0  0  0  0  0  0
  -11.2849  -27.0865   29.1843 C   0  0  0  0  0  0  0  0  0  0  0  0
  -10.8449  -26.9124   27.8693 C   0  0  0  0  0  0  0  0  0  0  0  0
  -11.1195  -27.6251   26.8262 N   0  0  0  0  0  0  0  0  0  0  0  0
  -10.8465  -26.7934   25.8057 C   0  0  0  0  0  0  0  0  0  0  0  0
  -10.2773  -25.6179   26.2160 C   0  0  0  0  0  0  0  0  0  0  0  0
  -10.1617  -25.7579   27.5455 N   0  0  0  0  0  0  0  0  0  0  0  0
   -9.6629  -24.8790   28.4557 C   0  0  0  0  0  0  0  0  0  0  0  0
  -10.5355  -25.0770   32.0619 H   0  0  0  0  0  0  0  0  0  0  0  0
   -9.4428  -24.3953   34.1529 H   0  0  0  0  0  0  0  0  0  0  0  0
   -7.6026  -22.6000   33.8058 H   0  0  0  0  0  0  0  0  0  0  0  0
   -9.7191  -22.5803   35.4452 H   0  0  0  0  0  0  0  0  0  0  0  0
   -9.9797  -21.0033   34.6759 H   0  0  0  0  0  0  0  0  0  0  0  0
  -11.5910  -22.5071   33.7579 H   0  0  0  0  0  0  0  0  0  0  0  0
  -12.8951  -23.8448   29.2272 H   0  0  0  0  0  0  0  0  0  0  0  0
  -12.0490  -22.4703   27.3019 H   0  0  0  0  0  0  0  0  0  0  0  0
  -10.5700  -20.5628   27.9796 H   0  0  0  0  0  0  0  0  0  0  0  0
   -8.7228  -20.5120   32.6970 H   0  0  0  0  0  0  0  0  0  0  0  0
   -8.4312  -21.8375   31.5020 H   0  0  0  0  0  0  0  0  0  0  0  0
  -11.3938  -26.2545   31.0591 H   0  0  0  0  0  0  0  0  0  0  0  0
  -11.9448  -27.9133   29.4204 H   0  0  0  0  0  0  0  0  0  0  0  0
  -11.1645  -27.0851   24.8217 H   0  0  0  0  0  0  0  0  0  0  0  0
  -10.0702  -24.6941   25.7058 H   0  0  0  0  0  0  0  0  0  0  0  0
   -9.0256  -24.0809   28.1031 H   0  0  0  0  0  0  0  0  0  0  0  0
  1  2  2  0
  2  3  1  0
  3  4  1  0
  4  5  1  0
  5  6  1  0
  6  7  1  0
  7  8  1  0
  8  9  1  0
  9 10  2  0
 10 11  1  0
 11 12  2  0
 12 13  1  0
 13 14  2  0
  8 15  1  0
  2 16  1  0
 16 17  1  0
 17 18  2  0
 18 19  1  0
 19 20  2  0
 20 21  1  0
 21 22  2  0
 22 23  1  0
 23 24  1  0
  7  4  1  0
 14  9  1  0
 24 16  2  0
 15  5  1  0
 23 19  1  0
  3 25  1  0
  4 26  1  0
  5 27  1  0
  6 28  1  0
  6 29  1  0
  7 30  1  0
 11 31  1  0
 12 32  1  0
 13 33  1  0
 15 34  1  0
 15 35  1  0
 17 36  1  0
 18 37  1  0
 21 38  1  0
 22 39  1  0
 24 40  1  0
M  END
>  <Energy>  (1525) 
42.559022429464783

>  <compound_id>  (1525) 
36064

>  <target_id>  (1525) 
1

>  <reference_id>  (1525) 
54

>  <inspiration_ids>  (1525) 
[45, 54]

>  <energy_score>  (1525) 
23.93628065254515

>  <distance_score>  (1525) 
3.7518086456883313

>  <path>  (1525) 
/opt/xchem-fragalysis-2/maxwin/BulkDock/SCRATCH/511013/C36064-P54/C36064-P54.minimised.mol

>  <scratch_subdir>  (1525) 
/opt/xchem-fragalysis-2/maxwin/BulkDock/SCRATCH/511013/C36064-P54

>  <fragmenstein_runtime>  (1525) 
7.828913927078247

>  <fragmenstein_outcome>  (1525) 
too moved

>  <fragmenstein_mode>  (1525) 
expansion

>  <fragmenstein_error>  (1525) 


$$$$
C36068-P45
     RDKit          3D

 45 48  0  0  0  0  0  0  0  0999 V2000
  -10.4144  -23.8402   32.5311 O   0  0  0  0  0  0  0  0  0  0  0  0
  -10.6666  -23.8414   31.3627 C   0  0  0  0  0  0  0  0  0  0  0  0
  -10.3390  -24.7798   30.3396 N   0  0  0  0  0  0  0  0  0  0  0  0
   -9.5465  -25.9348   30.3676 C   0  0  0  0  0  0  0  0  0  0  0  0
   -9.0464  -26.1657   28.9250 C   0  0  0  0  0  0  0  0  0  0  0  0
   -9.3569  -27.3284   28.2978 C   0  0  0  0  0  0  0  0  0  0  0  0
   -8.5859  -27.8573   27.1827 C   0  0  0  0  0  0  0  0  0  0  0  0
   -7.5287  -27.1577   26.7480 C   0  0  0  0  0  0  0  0  0  0  0  0
   -7.3130  -25.8810   27.2455 N   0  0  0  0  0  0  0  0  0  0  0  0
   -6.3102  -24.9861   26.9677 C   0  0  0  0  0  0  0  0  0  0  0  0
   -6.6038  -23.8603   27.6915 C   0  0  0  0  0  0  0  0  0  0  0  0
   -7.6988  -24.0701   28.4813 N   0  0  0  0  0  0  0  0  0  0  0  0
   -8.0913  -25.3072   28.2477 C   0  0  0  0  0  0  0  0  0  0  0  0
  -11.5453  -22.7178   30.7603 C   0  0  0  0  0  0  0  0  0  0  0  0
  -11.0898  -21.7237   29.7057 C   0  0  0  0  0  0  0  0  0  0  0  0
  -10.5994  -22.3181   28.3683 C   0  0  0  0  0  0  0  0  0  0  0  0
  -11.0739  -23.6754   28.2269 N   0  0  0  0  0  0  0  0  0  0  0  0
  -11.1243  -24.2279   26.9353 C   0  0  0  0  0  0  0  0  0  0  0  0
  -11.7180  -23.5093   25.9900 N   0  0  0  0  0  0  0  0  0  0  0  0
  -12.4810  -24.1592   25.1114 C   0  0  0  0  0  0  0  0  0  0  0  0
  -12.6035  -25.5276   25.0848 C   0  0  0  0  0  0  0  0  0  0  0  0
  -11.8210  -26.2022   25.9696 C   0  0  0  0  0  0  0  0  0  0  0  0
  -11.1122  -25.5702   26.9054 N   0  0  0  0  0  0  0  0  0  0  0  0
  -12.4551  -23.6893   28.5932 C   0  0  0  0  0  0  0  0  0  0  0  0
  -12.6881  -23.3481   30.0502 C   0  0  0  0  0  0  0  0  0  0  0  0
  -10.6444  -24.4155   29.4481 H   0  0  0  0  0  0  0  0  0  0  0  0
   -8.7504  -25.7454   31.0907 H   0  0  0  0  0  0  0  0  0  0  0  0
  -10.1422  -26.7761   30.7317 H   0  0  0  0  0  0  0  0  0  0  0  0
  -10.1367  -27.9630   28.6961 H   0  0  0  0  0  0  0  0  0  0  0  0
   -8.8005  -28.8544   26.8119 H   0  0  0  0  0  0  0  0  0  0  0  0
   -6.8341  -27.5387   26.0137 H   0  0  0  0  0  0  0  0  0  0  0  0
   -5.4932  -25.2233   26.3070 H   0  0  0  0  0  0  0  0  0  0  0  0
   -6.0598  -22.9260   27.7203 H   0  0  0  0  0  0  0  0  0  0  0  0
  -11.9167  -22.1482   31.6239 H   0  0  0  0  0  0  0  0  0  0  0  0
  -10.4172  -21.0047   30.1302 H   0  0  0  0  0  0  0  0  0  0  0  0
  -11.9670  -21.1125   29.4494 H   0  0  0  0  0  0  0  0  0  0  0  0
  -10.9772  -21.7062   27.5525 H   0  0  0  0  0  0  0  0  0  0  0  0
   -9.5202  -22.3490   28.3400 H   0  0  0  0  0  0  0  0  0  0  0  0
  -13.0480  -23.5003   24.4608 H   0  0  0  0  0  0  0  0  0  0  0  0
  -13.2698  -26.0462   24.4161 H   0  0  0  0  0  0  0  0  0  0  0  0
  -11.7830  -27.2855   26.0013 H   0  0  0  0  0  0  0  0  0  0  0  0
  -12.9506  -22.9314   27.9866 H   0  0  0  0  0  0  0  0  0  0  0  0
  -12.8556  -24.6988   28.4235 H   0  0  0  0  0  0  0  0  0  0  0  0
  -13.5131  -22.6443   30.1981 H   0  0  0  0  0  0  0  0  0  0  0  0
  -13.0224  -24.2961   30.4288 H   0  0  0  0  0  0  0  0  0  0  0  0
  1  2  2  0
  2  3  1  0
  3  4  1  0
  4  5  1  0
  5  6  2  0
  6  7  1  0
  7  8  2  0
  8  9  1  0
  9 10  1  0
 10 11  2  0
 11 12  1  0
 12 13  2  0
  2 14  1  0
 14 15  1  0
 15 16  1  0
 16 17  1  0
 17 18  1  0
 18 19  2  0
 19 20  1  0
 20 21  2  0
 21 22  1  0
 22 23  2  0
 17 24  1  0
 24 25  1  0
 13  5  1  0
 25 14  1  0
 13  9  1  0
 23 18  1  0
  3 26  1  0
  4 27  1  0
  4 28  1  0
  6 29  1  0
  7 30  1  0
  8 31  1  0
 10 32  1  0
 11 33  1  0
 14 34  1  0
 15 35  1  0
 15 36  1  0
 16 37  1  0
 16 38  1  0
 20 39  1  0
 21 40  1  0
 22 41  1  0
 24 42  1  0
 24 43  1  0
 25 44  1  0
 25 45  1  0
M  END
>  <Energy>  (1526) 
-16.373515142672908

>  <compound_id>  (1526) 
36068

>  <target_id>  (1526) 
1

>  <reference_id>  (1526) 
45

>  <inspiration_ids>  (1526) 
[45, 54]

>  <energy_score>  (1526) 
13.220264814637687

>  <distance_score>  (1526) 
3.088300071686471

>  <path>  (1526) 
/opt/xchem-fragalysis-2/maxwin/BulkDock/SCRATCH/511013/C36068-P45/C36068-P45.minimised.mol

>  <scratch_subdir>  (1526) 
/opt/xchem-fragalysis-2/maxwin/BulkDock/SCRATCH/511013/C36068-P45

>  <fragmenstein_runtime>  (1526) 
12.245180606842041

>  <fragmenstein_outcome>  (1526) 
too moved

>  <fragmenstein_mode>  (1526) 
expansion

>  <fragmenstein_error>  (1526) 


$$$$
C36068-P54
     RDKit          3D

 45 48  0  0  0  0  0  0  0  0999 V2000
   -7.8529  -22.7030   29.9064 O   0  0  0  0  0  0  0  0  0  0  0  0
   -8.5676  -23.5374   30.2514 C   0  0  0  0  0  0  0  0  0  0  0  0
   -9.3573  -24.5460   29.4476 N   0  0  0  0  0  0  0  0  0  0  0  0
   -9.5128  -24.6877   28.0535 C   0  0  0  0  0  0  0  0  0  0  0  0
  -10.1384  -26.0154   27.7315 C   0  0  0  0  0  0  0  0  0  0  0  0
  -11.3185  -26.5196   28.1508 C   0  0  0  0  0  0  0  0  0  0  0  0
  -11.5798  -27.9542   28.1972 C   0  0  0  0  0  0  0  0  0  0  0  0
  -10.5887  -28.8059   27.9164 C   0  0  0  0  0  0  0  0  0  0  0  0
   -9.4245  -28.2748   27.4380 N   0  0  0  0  0  0  0  0  0  0  0  0
   -8.2682  -28.8713   27.1328 C   0  0  0  0  0  0  0  0  0  0  0  0
   -7.4646  -27.8717   26.6719 C   0  0  0  0  0  0  0  0  0  0  0  0
   -8.0093  -26.6819   26.9101 N   0  0  0  0  0  0  0  0  0  0  0  0
   -9.2266  -26.9454   27.2324 C   0  0  0  0  0  0  0  0  0  0  0  0
   -8.8957  -23.6291   31.7843 C   0  0  0  0  0  0  0  0  0  0  0  0
   -9.3740  -22.2802   32.3623 C   0  0  0  0  0  0  0  0  0  0  0  0
  -10.7718  -21.8658   31.8936 C   0  0  0  0  0  0  0  0  0  0  0  0
  -11.4118  -22.8800   31.0675 N   0  0  0  0  0  0  0  0  0  0  0  0
  -11.7219  -22.6034   29.7506 C   0  0  0  0  0  0  0  0  0  0  0  0
  -11.2439  -21.5006   29.1863 N   0  0  0  0  0  0  0  0  0  0  0  0
  -11.3211  -21.4150   27.8520 C   0  0  0  0  0  0  0  0  0  0  0  0
  -11.8905  -22.3669   27.0432 C   0  0  0  0  0  0  0  0  0  0  0  0
  -12.4706  -23.4047   27.7088 C   0  0  0  0  0  0  0  0  0  0  0  0
  -12.4073  -23.5346   29.0449 N   0  0  0  0  0  0  0  0  0  0  0  0
  -11.2191  -24.2780   31.3339 C   0  0  0  0  0  0  0  0  0  0  0  0
   -9.9784  -24.5790   32.1572 C   0  0  0  0  0  0  0  0  0  0  0  0
   -9.8087  -25.1727   30.0597 H   0  0  0  0  0  0  0  0  0  0  0  0
   -8.4820  -24.6526   27.7666 H   0  0  0  0  0  0  0  0  0  0  0  0
   -9.9697  -23.8302   27.5867 H   0  0  0  0  0  0  0  0  0  0  0  0
  -12.0544  -25.9100   28.6575 H   0  0  0  0  0  0  0  0  0  0  0  0
  -12.5398  -28.2960   28.5709 H   0  0  0  0  0  0  0  0  0  0  0  0
  -10.6675  -29.8791   28.0202 H   0  0  0  0  0  0  0  0  0  0  0  0
   -8.0908  -29.9264   27.2484 H   0  0  0  0  0  0  0  0  0  0  0  0
   -6.4858  -27.9290   26.2134 H   0  0  0  0  0  0  0  0  0  0  0  0
   -8.0166  -23.8990   32.3666 H   0  0  0  0  0  0  0  0  0  0  0  0
   -8.6450  -21.4978   32.1844 H   0  0  0  0  0  0  0  0  0  0  0  0
   -9.3982  -22.3551   33.4601 H   0  0  0  0  0  0  0  0  0  0  0  0
  -11.3920  -21.7086   32.7837 H   0  0  0  0  0  0  0  0  0  0  0  0
  -10.7352  -20.8798   31.4196 H   0  0  0  0  0  0  0  0  0  0  0  0
  -10.9105  -20.5015   27.4438 H   0  0  0  0  0  0  0  0  0  0  0  0
  -11.9427  -22.2532   25.9701 H   0  0  0  0  0  0  0  0  0  0  0  0
  -13.0219  -24.1736   27.1790 H   0  0  0  0  0  0  0  0  0  0  0  0
  -12.0572  -24.7860   31.7320 H   0  0  0  0  0  0  0  0  0  0  0  0
  -11.3163  -24.8880   30.4433 H   0  0  0  0  0  0  0  0  0  0  0  0
  -10.1094  -24.4747   33.2366 H   0  0  0  0  0  0  0  0  0  0  0  0
   -9.7020  -25.6088   32.0278 H   0  0  0  0  0  0  0  0  0  0  0  0
  1  2  2  0
  2  3  1  0
  3  4  1  0
  4  5  1  0
  5  6  2  0
  6  7  1  0
  7  8  2  0
  8  9  1  0
  9 10  1  0
 10 11  2  0
 11 12  1  0
 12 13  2  0
  2 14  1  0
 14 15  1  0
 15 16  1  0
 16 17  1  0
 17 18  1  0
 18 19  2  0
 19 20  1  0
 20 21  2  0
 21 22  1  0
 22 23  2  0
 17 24  1  0
 24 25  1  0
 13  5  1  0
 25 14  1  0
 13  9  1  0
 23 18  1  0
  3 26  1  0
  4 27  1  0
  4 28  1  0
  6 29  1  0
  7 30  1  0
  8 31  1  0
 10 32  1  0
 11 33  1  0
 14 34  1  0
 15 35  1  0
 15 36  1  0
 16 37  1  0
 16 38  1  0
 20 39  1  0
 21 40  1  0
 22 41  1  0
 24 42  1  0
 24 43  1  0
 25 44  1  0
 25 45  1  0
M  END
>  <Energy>  (1527) 
9.9879777708865802

>  <compound_id>  (1527) 
36068

>  <target_id>  (1527) 
1

>  <reference_id>  (1527) 
54

>  <inspiration_ids>  (1527) 
[45, 54]

>  <energy_score>  (1527) 
45.74208303568804

>  <distance_score>  (1527) 
3.1045780301686237

>  <path>  (1527) 
/opt/xchem-fragalysis-2/maxwin/BulkDock/SCRATCH/511013/C36068-P54/C36068-P54.minimised.mol

>  <scratch_subdir>  (1527) 
/opt/xchem-fragalysis-2/maxwin/BulkDock/SCRATCH/511013/C36068-P54

>  <fragmenstein_runtime>  (1527) 
9.646958351135254

>  <fragmenstein_outcome>  (1527) 
too moved

>  <fragmenstein_mode>  (1527) 
expansion

>  <fragmenstein_error>  (1527) 


$$$$
C36069-P45
     RDKit          3D

 44 47  0  0  0  0  0  0  0  0999 V2000
  -10.9787  -24.7925   29.6700 O   0  0  0  0  0  0  0  0  0  0  0  0
  -10.2983  -25.7381   29.8137 C   0  0  0  0  0  0  0  0  0  0  0  0
  -10.1476  -26.9040   29.0128 N   0  0  0  0  0  0  0  0  0  0  0  0
  -10.6962  -27.2418   27.7431 C   0  0  0  0  0  0  0  0  0  0  0  0
   -9.3653  -27.3831   26.9884 C   0  0  0  0  0  0  0  0  0  0  0  0
   -8.9485  -28.6113   26.5944 C   0  0  0  0  0  0  0  0  0  0  0  0
   -7.5624  -28.8875   26.2576 C   0  0  0  0  0  0  0  0  0  0  0  0
   -6.6316  -27.9383   26.4373 C   0  0  0  0  0  0  0  0  0  0  0  0
   -7.0420  -26.6610   26.7863 N   0  0  0  0  0  0  0  0  0  0  0  0
   -6.2946  -25.5226   26.9712 C   0  0  0  0  0  0  0  0  0  0  0  0
   -7.2042  -24.5248   27.2217 C   0  0  0  0  0  0  0  0  0  0  0  0
   -8.4834  -25.0165   27.2058 N   0  0  0  0  0  0  0  0  0  0  0  0
   -8.3736  -26.3119   26.9777 C   0  0  0  0  0  0  0  0  0  0  0  0
   -9.2862  -26.0239   30.8015 N   0  0  0  0  0  0  0  0  0  0  0  0
   -8.7229  -25.1897   31.8480 C   0  0  0  0  0  0  0  0  0  0  0  0
   -8.7854  -24.8077   33.3036 C   0  0  0  0  0  0  0  0  0  0  0  0
  -10.1091  -24.8512   33.7383 N   0  0  0  0  0  0  0  0  0  0  0  0
  -10.9452  -23.8381   33.2834 C   0  0  0  0  0  0  0  0  0  0  0  0
  -11.6764  -23.2053   34.1963 N   0  0  0  0  0  0  0  0  0  0  0  0
  -12.4314  -22.1786   33.7997 C   0  0  0  0  0  0  0  0  0  0  0  0
  -12.4801  -21.7466   32.5106 C   0  0  0  0  0  0  0  0  0  0  0  0
  -11.6792  -22.4009   31.6266 C   0  0  0  0  0  0  0  0  0  0  0  0
  -10.9299  -23.4453   32.0073 N   0  0  0  0  0  0  0  0  0  0  0  0
  -10.4821  -26.1702   33.3700 C   0  0  0  0  0  0  0  0  0  0  0  0
   -9.8890  -26.7164   31.9729 C   0  0  0  0  0  0  0  0  0  0  0  0
   -9.4119  -27.4740   29.3984 H   0  0  0  0  0  0  0  0  0  0  0  0
  -11.2538  -28.1776   27.8238 H   0  0  0  0  0  0  0  0  0  0  0  0
  -11.3151  -26.4345   27.3450 H   0  0  0  0  0  0  0  0  0  0  0  0
   -9.6018  -29.4771   26.6551 H   0  0  0  0  0  0  0  0  0  0  0  0
   -7.3048  -29.8755   25.9047 H   0  0  0  0  0  0  0  0  0  0  0  0
   -5.5777  -28.0871   26.2400 H   0  0  0  0  0  0  0  0  0  0  0  0
   -5.2170  -25.5259   26.8893 H   0  0  0  0  0  0  0  0  0  0  0  0
   -7.0092  -23.4770   27.4103 H   0  0  0  0  0  0  0  0  0  0  0  0
   -7.6611  -25.3773   31.7261 H   0  0  0  0  0  0  0  0  0  0  0  0
   -8.9483  -24.2736   31.3735 H   0  0  0  0  0  0  0  0  0  0  0  0
   -8.2066  -25.5378   33.8778 H   0  0  0  0  0  0  0  0  0  0  0  0
   -8.3683  -23.8316   33.5251 H   0  0  0  0  0  0  0  0  0  0  0  0
  -13.0687  -21.7366   34.5527 H   0  0  0  0  0  0  0  0  0  0  0  0
  -13.2344  -21.0513   32.2367 H   0  0  0  0  0  0  0  0  0  0  0  0
  -11.6696  -22.1809   30.5641 H   0  0  0  0  0  0  0  0  0  0  0  0
  -11.5218  -26.1486   33.5205 H   0  0  0  0  0  0  0  0  0  0  0  0
  -10.1863  -26.8369   34.1755 H   0  0  0  0  0  0  0  0  0  0  0  0
  -10.6018  -27.4459   31.5748 H   0  0  0  0  0  0  0  0  0  0  0  0
   -9.0912  -27.4327   32.0718 H   0  0  0  0  0  0  0  0  0  0  0  0
  1  2  2  0
  2  3  1  0
  3  4  1  0
  4  5  1  0
  5  6  2  0
  6  7  1  0
  7  8  2  0
  8  9  1  0
  9 10  1  0
 10 11  2  0
 11 12  1  0
 12 13  2  0
  2 14  1  0
 14 15  1  0
 15 16  1  0
 16 17  1  0
 17 18  1  0
 18 19  2  0
 19 20  1  0
 20 21  2  0
 21 22  1  0
 22 23  2  0
 17 24  1  0
 24 25  1  0
 13  5  1  0
 25 14  1  0
 13  9  1  0
 23 18  1  0
  3 26  1  0
  4 27  1  0
  4 28  1  0
  6 29  1  0
  7 30  1  0
  8 31  1  0
 10 32  1  0
 11 33  1  0
 15 34  1  0
 15 35  1  0
 16 36  1  0
 16 37  1  0
 20 38  1  0
 21 39  1  0
 22 40  1  0
 24 41  1  0
 24 42  1  0
 25 43  1  0
 25 44  1  0
M  END
>  <Energy>  (1528) 
78.017482282884927

>  <compound_id>  (1528) 
36069

>  <target_id>  (1528) 
1

>  <reference_id>  (1528) 
45

>  <inspiration_ids>  (1528) 
[45, 54]

>  <energy_score>  (1528) 
117.32156444329974

>  <distance_score>  (1528) 
3.3848569420395958

>  <path>  (1528) 
/opt/xchem-fragalysis-2/maxwin/BulkDock/SCRATCH/511013/C36069-P45/C36069-P45.minimised.mol

>  <scratch_subdir>  (1528) 
/opt/xchem-fragalysis-2/maxwin/BulkDock/SCRATCH/511013/C36069-P45

>  <fragmenstein_runtime>  (1528) 
15.774152517318726

>  <fragmenstein_outcome>  (1528) 
too moved

>  <fragmenstein_mode>  (1528) 
expansion

>  <fragmenstein_error>  (1528) 


$$$$
C36069-P54
     RDKit          3D

 44 47  0  0  0  0  0  0  0  0999 V2000
  -11.4717  -26.4651   32.0794 O   0  0  0  0  0  0  0  0  0  0  0  0
  -11.6723  -25.9119   31.0609 C   0  0  0  0  0  0  0  0  0  0  0  0
  -12.3850  -26.3413   29.8849 N   0  0  0  0  0  0  0  0  0  0  0  0
  -12.9865  -27.6067   29.5554 C   0  0  0  0  0  0  0  0  0  0  0  0
  -12.0354  -28.2433   28.5638 C   0  0  0  0  0  0  0  0  0  0  0  0
  -11.6923  -29.5457   28.6854 C   0  0  0  0  0  0  0  0  0  0  0  0
  -10.4336  -30.0471   28.1460 C   0  0  0  0  0  0  0  0  0  0  0  0
   -9.5190  -29.1535   27.7306 C   0  0  0  0  0  0  0  0  0  0  0  0
   -9.9518  -27.8739   27.4509 N   0  0  0  0  0  0  0  0  0  0  0  0
   -9.2818  -26.8066   26.9355 C   0  0  0  0  0  0  0  0  0  0  0  0
  -10.2500  -25.8804   26.6414 C   0  0  0  0  0  0  0  0  0  0  0  0
  -11.4753  -26.3000   27.0749 N   0  0  0  0  0  0  0  0  0  0  0  0
  -11.2464  -27.4534   27.6621 C   0  0  0  0  0  0  0  0  0  0  0  0
  -11.3582  -24.5560   30.6483 N   0  0  0  0  0  0  0  0  0  0  0  0
  -10.7817  -23.4003   31.4248 C   0  0  0  0  0  0  0  0  0  0  0  0
  -11.0494  -22.0913   30.6228 C   0  0  0  0  0  0  0  0  0  0  0  0
  -10.5224  -22.2195   29.2552 N   0  0  0  0  0  0  0  0  0  0  0  0
  -11.4632  -22.5962   28.2760 C   0  0  0  0  0  0  0  0  0  0  0  0
  -11.1565  -22.2668   27.0189 N   0  0  0  0  0  0  0  0  0  0  0  0
  -11.9714  -22.6963   26.0387 C   0  0  0  0  0  0  0  0  0  0  0  0
  -13.0307  -23.5375   26.2422 C   0  0  0  0  0  0  0  0  0  0  0  0
  -13.2450  -23.8759   27.5462 C   0  0  0  0  0  0  0  0  0  0  0  0
  -12.5180  -23.3791   28.5683 N   0  0  0  0  0  0  0  0  0  0  0  0
   -9.5019  -23.2631   29.2278 C   0  0  0  0  0  0  0  0  0  0  0  0
   -9.9902  -24.5134   29.9936 C   0  0  0  0  0  0  0  0  0  0  0  0
  -12.4291  -25.5697   29.2227 H   0  0  0  0  0  0  0  0  0  0  0  0
  -13.1058  -28.1974   30.4683 H   0  0  0  0  0  0  0  0  0  0  0  0
  -13.9595  -27.4153   29.0948 H   0  0  0  0  0  0  0  0  0  0  0  0
  -12.2061  -30.1928   29.3936 H   0  0  0  0  0  0  0  0  0  0  0  0
  -10.2061  -31.0991   28.2686 H   0  0  0  0  0  0  0  0  0  0  0  0
   -8.4901  -29.3865   27.4856 H   0  0  0  0  0  0  0  0  0  0  0  0
   -8.2093  -26.8259   26.8457 H   0  0  0  0  0  0  0  0  0  0  0  0
  -10.1375  -24.9084   26.1862 H   0  0  0  0  0  0  0  0  0  0  0  0
  -11.3911  -23.2627   32.3065 H   0  0  0  0  0  0  0  0  0  0  0  0
   -9.7795  -23.5024   31.8769 H   0  0  0  0  0  0  0  0  0  0  0  0
  -12.1172  -21.8386   30.6191 H   0  0  0  0  0  0  0  0  0  0  0  0
  -10.5444  -21.2655   31.1318 H   0  0  0  0  0  0  0  0  0  0  0  0
  -11.7305  -22.3286   25.0463 H   0  0  0  0  0  0  0  0  0  0  0  0
  -13.6578  -23.8919   25.4417 H   0  0  0  0  0  0  0  0  0  0  0  0
  -14.0600  -24.5350   27.8281 H   0  0  0  0  0  0  0  0  0  0  0  0
   -9.1757  -23.5236   28.2149 H   0  0  0  0  0  0  0  0  0  0  0  0
   -8.5970  -22.9085   29.7324 H   0  0  0  0  0  0  0  0  0  0  0  0
   -9.2102  -24.9099   30.6579 H   0  0  0  0  0  0  0  0  0  0  0  0
  -10.0715  -25.2764   29.2223 H   0  0  0  0  0  0  0  0  0  0  0  0
  1  2  2  0
  2  3  1  0
  3  4  1  0
  4  5  1  0
  5  6  2  0
  6  7  1  0
  7  8  2  0
  8  9  1  0
  9 10  1  0
 10 11  2  0
 11 12  1  0
 12 13  2  0
  2 14  1  0
 14 15  1  0
 15 16  1  0
 16 17  1  0
 17 18  1  0
 18 19  2  0
 19 20  1  0
 20 21  2  0
 21 22  1  0
 22 23  2  0
 17 24  1  0
 24 25  1  0
 13  5  1  0
 25 14  1  0
 13  9  1  0
 23 18  1  0
  3 26  1  0
  4 27  1  0
  4 28  1  0
  6 29  1  0
  7 30  1  0
  8 31  1  0
 10 32  1  0
 11 33  1  0
 15 34  1  0
 15 35  1  0
 16 36  1  0
 16 37  1  0
 20 38  1  0
 21 39  1  0
 22 40  1  0
 24 41  1  0
 24 42  1  0
 25 43  1  0
 25 44  1  0
M  END
>  <Energy>  (1529) 
23.994392234164074

>  <compound_id>  (1529) 
36069

>  <target_id>  (1529) 
1

>  <reference_id>  (1529) 
54

>  <inspiration_ids>  (1529) 
[45, 54]

>  <energy_score>  (1529) 
63.298474394583934

>  <distance_score>  (1529) 
3.5711486021859415

>  <path>  (1529) 
/opt/xchem-fragalysis-2/maxwin/BulkDock/SCRATCH/511013/C36069-P54/C36069-P54.minimised.mol

>  <scratch_subdir>  (1529) 
/opt/xchem-fragalysis-2/maxwin/BulkDock/SCRATCH/511013/C36069-P54

>  <fragmenstein_runtime>  (1529) 
10.099563360214233

>  <fragmenstein_outcome>  (1529) 
too moved

>  <fragmenstein_mode>  (1529) 
expansion

>  <fragmenstein_error>  (1529) 


$$$$
C36070-P45
     RDKit          3D

 45 48  0  0  0  0  0  0  0  0999 V2000
  -11.4515  -29.6051   28.1511 O   0  0  0  0  0  0  0  0  0  0  0  0
  -10.9576  -28.5283   28.3319 C   0  0  0  0  0  0  0  0  0  0  0  0
   -9.8994  -27.8636   27.6504 N   0  0  0  0  0  0  0  0  0  0  0  0
   -9.0377  -28.3038   26.6065 C   0  0  0  0  0  0  0  0  0  0  0  0
   -7.7085  -27.5806   26.7174 C   0  0  0  0  0  0  0  0  0  0  0  0
   -6.5810  -28.3015   26.5145 C   0  0  0  0  0  0  0  0  0  0  0  0
   -5.2501  -27.7341   26.6161 C   0  0  0  0  0  0  0  0  0  0  0  0
   -5.0989  -26.4316   26.8730 C   0  0  0  0  0  0  0  0  0  0  0  0
   -6.2313  -25.6664   27.0602 N   0  0  0  0  0  0  0  0  0  0  0  0
   -6.3177  -24.3428   27.3961 C   0  0  0  0  0  0  0  0  0  0  0  0
   -7.6532  -24.1147   27.5925 C   0  0  0  0  0  0  0  0  0  0  0  0
   -8.3955  -25.2420   27.3530 N   0  0  0  0  0  0  0  0  0  0  0  0
   -7.5296  -26.1778   27.0239 C   0  0  0  0  0  0  0  0  0  0  0  0
  -11.4148  -27.6932   29.5450 C   0  0  0  0  0  0  0  0  0  0  0  0
  -10.2396  -27.1440   30.4236 C   0  0  0  0  0  0  0  0  0  0  0  0
   -9.9173  -25.6368   30.4196 C   0  0  0  0  0  0  0  0  0  0  0  0
  -10.7836  -24.7517   29.5413 C   0  0  0  0  0  0  0  0  0  0  0  0
  -11.4774  -25.5588   28.5781 N   0  0  0  0  0  0  0  0  0  0  0  0
  -11.8103  -24.9526   27.4087 C   0  0  0  0  0  0  0  0  0  0  0  0
  -11.5983  -23.6515   27.3205 N   0  0  0  0  0  0  0  0  0  0  0  0
  -11.9056  -23.1051   26.1590 C   0  0  0  0  0  0  0  0  0  0  0  0
  -12.3899  -23.7743   25.0731 C   0  0  0  0  0  0  0  0  0  0  0  0
  -12.5921  -25.1064   25.2724 C   0  0  0  0  0  0  0  0  0  0  0  0
  -12.3406  -25.7082   26.4340 N   0  0  0  0  0  0  0  0  0  0  0  0
  -12.3301  -26.6396   28.9816 C   0  0  0  0  0  0  0  0  0  0  0  0
   -9.8036  -26.9190   28.0264 H   0  0  0  0  0  0  0  0  0  0  0  0
   -8.9292  -29.3907   26.6947 H   0  0  0  0  0  0  0  0  0  0  0  0
   -9.5561  -28.1129   25.6706 H   0  0  0  0  0  0  0  0  0  0  0  0
   -6.6497  -29.3491   26.2316 H   0  0  0  0  0  0  0  0  0  0  0  0
   -4.3819  -28.3452   26.4413 H   0  0  0  0  0  0  0  0  0  0  0  0
   -4.1301  -25.9514   26.9334 H   0  0  0  0  0  0  0  0  0  0  0  0
   -5.4476  -23.7157   27.5141 H   0  0  0  0  0  0  0  0  0  0  0  0
   -8.1184  -23.1949   27.9121 H   0  0  0  0  0  0  0  0  0  0  0  0
  -11.9984  -28.3910   30.1609 H   0  0  0  0  0  0  0  0  0  0  0  0
   -9.3169  -27.6420   30.1441 H   0  0  0  0  0  0  0  0  0  0  0  0
  -10.3775  -27.4713   31.4608 H   0  0  0  0  0  0  0  0  0  0  0  0
   -9.8967  -25.2489   31.4459 H   0  0  0  0  0  0  0  0  0  0  0  0
   -8.8886  -25.5042   30.0753 H   0  0  0  0  0  0  0  0  0  0  0  0
  -10.1114  -24.0472   29.0480 H   0  0  0  0  0  0  0  0  0  0  0  0
  -11.4768  -24.1271   30.1163 H   0  0  0  0  0  0  0  0  0  0  0  0
  -11.7420  -22.0388   26.1429 H   0  0  0  0  0  0  0  0  0  0  0  0
  -12.6294  -23.2380   24.1691 H   0  0  0  0  0  0  0  0  0  0  0  0
  -13.0185  -25.7574   24.5235 H   0  0  0  0  0  0  0  0  0  0  0  0
  -12.9180  -27.0849   28.1670 H   0  0  0  0  0  0  0  0  0  0  0  0
  -13.0991  -26.2877   29.6683 H   0  0  0  0  0  0  0  0  0  0  0  0
  1  2  2  0
  2  3  1  0
  3  4  1  0
  4  5  1  0
  5  6  2  0
  6  7  1  0
  7  8  2  0
  8  9  1  0
  9 10  1  0
 10 11  2  0
 11 12  1  0
 12 13  2  0
  2 14  1  0
 14 15  1  0
 15 16  1  0
 16 17  1  0
 17 18  1  0
 18 19  1  0
 19 20  2  0
 20 21  1  0
 21 22  2  0
 22 23  1  0
 23 24  2  0
 18 25  1  0
 13  5  1  0
 25 14  1  0
 13  9  1  0
 24 19  1  0
  3 26  1  0
  4 27  1  0
  4 28  1  0
  6 29  1  0
  7 30  1  0
  8 31  1  0
 10 32  1  0
 11 33  1  0
 14 34  1  0
 15 35  1  0
 15 36  1  0
 16 37  1  0
 16 38  1  0
 17 39  1  0
 17 40  1  0
 21 41  1  0
 22 42  1  0
 23 43  1  0
 25 44  1  0
 25 45  1  0
M  END
>  <Energy>  (1530) 
-45.464866501915417

>  <compound_id>  (1530) 
36070

>  <target_id>  (1530) 
1

>  <reference_id>  (1530) 
45

>  <inspiration_ids>  (1530) 
[45, 54]

>  <energy_score>  (1530) 
-11.714583756375134

>  <distance_score>  (1530) 
3.118201447213215

>  <path>  (1530) 
/opt/xchem-fragalysis-2/maxwin/BulkDock/SCRATCH/511013/C36070-P45/C36070-P45.minimised.mol

>  <scratch_subdir>  (1530) 
/opt/xchem-fragalysis-2/maxwin/BulkDock/SCRATCH/511013/C36070-P45

>  <fragmenstein_runtime>  (1530) 
13.69992709159851

>  <fragmenstein_outcome>  (1530) 
too moved

>  <fragmenstein_mode>  (1530) 
expansion

>  <fragmenstein_error>  (1530) 


$$$$
C36070-P54
     RDKit          3D

 45 48  0  0  0  0  0  0  0  0999 V2000
  -10.6444  -26.2159   32.8272 O   0  0  0  0  0  0  0  0  0  0  0  0
  -10.5527  -25.6011   31.8365 C   0  0  0  0  0  0  0  0  0  0  0  0
  -11.1836  -25.8420   30.4475 N   0  0  0  0  0  0  0  0  0  0  0  0
  -11.9947  -26.9562   29.9505 C   0  0  0  0  0  0  0  0  0  0  0  0
  -11.2611  -27.5840   28.7598 C   0  0  0  0  0  0  0  0  0  0  0  0
  -11.0189  -28.9114   28.6844 C   0  0  0  0  0  0  0  0  0  0  0  0
   -9.8922  -29.4528   27.9289 C   0  0  0  0  0  0  0  0  0  0  0  0
   -9.0395  -28.6090   27.3294 C   0  0  0  0  0  0  0  0  0  0  0  0
   -9.3749  -27.2795   27.3276 N   0  0  0  0  0  0  0  0  0  0  0  0
   -8.5690  -26.2047   27.2110 C   0  0  0  0  0  0  0  0  0  0  0  0
   -9.3478  -25.1085   27.4807 C   0  0  0  0  0  0  0  0  0  0  0  0
  -10.6194  -25.4771   27.6903 N   0  0  0  0  0  0  0  0  0  0  0  0
  -10.5455  -26.7705   27.8395 C   0  0  0  0  0  0  0  0  0  0  0  0
   -9.5424  -24.3685   31.8502 C   0  0  0  0  0  0  0  0  0  0  0  0
   -9.4805  -23.5158   33.1434 C   0  0  0  0  0  0  0  0  0  0  0  0
  -10.0341  -22.0944   32.9794 C   0  0  0  0  0  0  0  0  0  0  0  0
  -10.9718  -21.9862   31.7836 C   0  0  0  0  0  0  0  0  0  0  0  0
  -10.2875  -22.3687   30.5567 N   0  0  0  0  0  0  0  0  0  0  0  0
  -11.1453  -22.5646   29.4802 C   0  0  0  0  0  0  0  0  0  0  0  0
  -10.8199  -21.9825   28.3251 N   0  0  0  0  0  0  0  0  0  0  0  0
  -11.5181  -22.3567   27.2362 C   0  0  0  0  0  0  0  0  0  0  0  0
  -12.4930  -23.3132   27.2279 C   0  0  0  0  0  0  0  0  0  0  0  0
  -12.7837  -23.8239   28.4576 C   0  0  0  0  0  0  0  0  0  0  0  0
  -12.1341  -23.4664   29.5827 N   0  0  0  0  0  0  0  0  0  0  0  0
   -9.3315  -23.4621   30.6575 C   0  0  0  0  0  0  0  0  0  0  0  0
  -10.9590  -25.0635   29.8332 H   0  0  0  0  0  0  0  0  0  0  0  0
  -12.9668  -26.5659   29.6418 H   0  0  0  0  0  0  0  0  0  0  0  0
  -12.1337  -27.6683   30.7696 H   0  0  0  0  0  0  0  0  0  0  0  0
  -11.5288  -29.5890   29.3641 H   0  0  0  0  0  0  0  0  0  0  0  0
   -9.7135  -30.5181   27.9916 H   0  0  0  0  0  0  0  0  0  0  0  0
   -8.1054  -28.8915   26.8668 H   0  0  0  0  0  0  0  0  0  0  0  0
   -7.5162  -26.3620   27.0910 H   0  0  0  0  0  0  0  0  0  0  0  0
   -9.0815  -24.0656   27.5801 H   0  0  0  0  0  0  0  0  0  0  0  0
   -8.6046  -24.9343   31.9033 H   0  0  0  0  0  0  0  0  0  0  0  0
   -8.4300  -23.4207   33.4529 H   0  0  0  0  0  0  0  0  0  0  0  0
   -9.9636  -24.0136   33.9783 H   0  0  0  0  0  0  0  0  0  0  0  0
  -10.5504  -21.7907   33.8971 H   0  0  0  0  0  0  0  0  0  0  0  0
   -9.1954  -21.3990   32.8497 H   0  0  0  0  0  0  0  0  0  0  0  0
  -11.3530  -20.9621   31.6990 H   0  0  0  0  0  0  0  0  0  0  0  0
  -11.8062  -22.6495   31.9531 H   0  0  0  0  0  0  0  0  0  0  0  0
  -11.2749  -21.8481   26.3174 H   0  0  0  0  0  0  0  0  0  0  0  0
  -13.0169  -23.6010   26.3304 H   0  0  0  0  0  0  0  0  0  0  0  0
  -13.5679  -24.5620   28.5799 H   0  0  0  0  0  0  0  0  0  0  0  0
   -8.3529  -22.9805   30.7693 H   0  0  0  0  0  0  0  0  0  0  0  0
   -9.2276  -24.0400   29.7440 H   0  0  0  0  0  0  0  0  0  0  0  0
  1  2  2  0
  2  3  1  0
  3  4  1  0
  4  5  1  0
  5  6  2  0
  6  7  1  0
  7  8  2  0
  8  9  1  0
  9 10  1  0
 10 11  2  0
 11 12  1  0
 12 13  2  0
  2 14  1  0
 14 15  1  0
 15 16  1  0
 16 17  1  0
 17 18  1  0
 18 19  1  0
 19 20  2  0
 20 21  1  0
 21 22  2  0
 22 23  1  0
 23 24  2  0
 18 25  1  0
 13  5  1  0
 25 14  1  0
 13  9  1  0
 24 19  1  0
  3 26  1  0
  4 27  1  0
  4 28  1  0
  6 29  1  0
  7 30  1  0
  8 31  1  0
 10 32  1  0
 11 33  1  0
 14 34  1  0
 15 35  1  0
 15 36  1  0
 16 37  1  0
 16 38  1  0
 17 39  1  0
 17 40  1  0
 21 41  1  0
 22 42  1  0
 23 43  1  0
 25 44  1  0
 25 45  1  0
M  END
>  <Energy>  (1531) 
-4.2417933470307743

>  <compound_id>  (1531) 
36070

>  <target_id>  (1531) 
1

>  <reference_id>  (1531) 
54

>  <inspiration_ids>  (1531) 
[45, 54]

>  <energy_score>  (1531) 
15.879202875746955

>  <distance_score>  (1531) 
2.615315331412952

>  <path>  (1531) 
/opt/xchem-fragalysis-2/maxwin/BulkDock/SCRATCH/511013/C36070-P54/C36070-P54.minimised.mol

>  <scratch_subdir>  (1531) 
/opt/xchem-fragalysis-2/maxwin/BulkDock/SCRATCH/511013/C36070-P54

>  <fragmenstein_runtime>  (1531) 
10.495521306991577

>  <fragmenstein_outcome>  (1531) 
too moved

>  <fragmenstein_mode>  (1531) 
expansion

>  <fragmenstein_error>  (1531) 


$$$$
C36071-P45
     RDKit          3D

 47 50  0  0  0  0  0  0  0  0999 V2000
   -8.4558  -24.9531   32.6713 C   0  0  0  0  0  0  0  0  0  0  0  0
   -9.8170  -25.1909   32.0506 C   0  0  0  0  0  0  0  0  0  0  0  0
  -10.7243  -23.9267   31.6501 C   0  0  0  0  0  0  0  0  0  0  0  0
  -11.1129  -23.8067   30.2094 N   0  0  0  0  0  0  0  0  0  0  0  0
  -11.8515  -24.7088   29.3447 C   0  0  0  0  0  0  0  0  0  0  0  0
  -12.4064  -25.7412   29.5840 O   0  0  0  0  0  0  0  0  0  0  0  0
  -11.8551  -24.3854   27.9240 C   0  0  0  0  0  0  0  0  0  0  0  0
  -11.6570  -23.1112   27.6386 N   0  0  0  0  0  0  0  0  0  0  0  0
  -11.7919  -22.8879   26.3391 C   0  0  0  0  0  0  0  0  0  0  0  0
  -12.0066  -23.8195   25.3433 C   0  0  0  0  0  0  0  0  0  0  0  0
  -12.1183  -25.1067   25.7630 C   0  0  0  0  0  0  0  0  0  0  0  0
  -12.0837  -25.4163   27.0563 N   0  0  0  0  0  0  0  0  0  0  0  0
   -9.5260  -25.7919   30.7453 N   0  0  0  0  0  0  0  0  0  0  0  0
  -10.0586  -26.9611   30.1018 C   0  0  0  0  0  0  0  0  0  0  0  0
  -10.8219  -27.7950   30.5007 O   0  0  0  0  0  0  0  0  0  0  0  0
   -9.5539  -27.0066   28.6266 C   0  0  0  0  0  0  0  0  0  0  0  0
   -9.8423  -28.0751   27.8475 C   0  0  0  0  0  0  0  0  0  0  0  0
   -8.9245  -28.4956   26.7906 C   0  0  0  0  0  0  0  0  0  0  0  0
   -7.8313  -27.7537   26.5480 C   0  0  0  0  0  0  0  0  0  0  0  0
   -7.7187  -26.5092   27.1495 N   0  0  0  0  0  0  0  0  0  0  0  0
   -6.7807  -25.5198   26.9912 C   0  0  0  0  0  0  0  0  0  0  0  0
   -7.2414  -24.4457   27.7127 C   0  0  0  0  0  0  0  0  0  0  0  0
   -8.3558  -24.7937   28.4315 N   0  0  0  0  0  0  0  0  0  0  0  0
   -8.6141  -26.0501   28.1031 C   0  0  0  0  0  0  0  0  0  0  0  0
  -10.4865  -25.9323   33.1636 C   0  0  0  0  0  0  0  0  0  0  0  0
  -10.1776  -25.8954   34.6348 C   0  0  0  0  0  0  0  0  0  0  0  0
  -11.2640  -25.0499   34.1791 C   0  0  0  0  0  0  0  0  0  0  0  0
   -8.4700  -24.0634   33.2996 H   0  0  0  0  0  0  0  0  0  0  0  0
   -7.6569  -25.0115   31.9572 H   0  0  0  0  0  0  0  0  0  0  0  0
   -8.1240  -25.7804   33.3044 H   0  0  0  0  0  0  0  0  0  0  0  0
  -10.3701  -23.0006   32.0564 H   0  0  0  0  0  0  0  0  0  0  0  0
  -11.6511  -23.9159   32.1804 H   0  0  0  0  0  0  0  0  0  0  0  0
  -10.8492  -22.9804   29.6789 H   0  0  0  0  0  0  0  0  0  0  0  0
  -11.7087  -21.8384   26.0934 H   0  0  0  0  0  0  0  0  0  0  0  0
  -12.0791  -23.5125   24.3119 H   0  0  0  0  0  0  0  0  0  0  0  0
  -12.2817  -25.9303   25.0804 H   0  0  0  0  0  0  0  0  0  0  0  0
   -8.9707  -25.2690   30.0754 H   0  0  0  0  0  0  0  0  0  0  0  0
  -10.6013  -28.7950   28.1429 H   0  0  0  0  0  0  0  0  0  0  0  0
   -9.0663  -29.4691   26.3298 H   0  0  0  0  0  0  0  0  0  0  0  0
   -7.0495  -28.0617   25.8678 H   0  0  0  0  0  0  0  0  0  0  0  0
   -5.8984  -25.6561   26.3862 H   0  0  0  0  0  0  0  0  0  0  0  0
   -6.7968  -23.4616   27.7970 H   0  0  0  0  0  0  0  0  0  0  0  0
  -10.6657  -26.9626   32.8929 H   0  0  0  0  0  0  0  0  0  0  0  0
   -9.2429  -25.4943   34.9713 H   0  0  0  0  0  0  0  0  0  0  0  0
  -10.5534  -26.7434   35.1710 H   0  0  0  0  0  0  0  0  0  0  0  0
  -11.1503  -23.9764   34.2018 H   0  0  0  0  0  0  0  0  0  0  0  0
  -12.2507  -25.3198   34.5236 H   0  0  0  0  0  0  0  0  0  0  0  0
  1  2  1  0
  2  3  1  0
  3  4  1  0
  4  5  1  0
  5  6  2  0
  5  7  1  0
  7  8  2  0
  8  9  1  0
  9 10  2  0
 10 11  1  0
 11 12  2  0
  2 13  1  0
 13 14  1  0
 14 15  2  0
 14 16  1  0
 16 17  2  0
 17 18  1  0
 18 19  2  0
 19 20  1  0
 20 21  1  0
 21 22  2  0
 22 23  1  0
 23 24  2  0
  2 25  1  0
 25 26  1  0
 26 27  1  0
 12  7  1  0
 24 16  1  0
 27 25  1  0
 24 20  1  0
  1 28  1  0
  1 29  1  0
  1 30  1  0
  3 31  1  0
  3 32  1  0
  4 33  1  0
  9 34  1  0
 10 35  1  0
 11 36  1  0
 13 37  1  0
 17 38  1  0
 18 39  1  0
 19 40  1  0
 21 41  1  0
 22 42  1  0
 25 43  1  0
 26 44  1  0
 26 45  1  0
 27 46  1  0
 27 47  1  0
M  END
>  <Energy>  (1532) 
183.69224538641845

>  <compound_id>  (1532) 
36071

>  <target_id>  (1532) 
1

>  <reference_id>  (1532) 
45

>  <inspiration_ids>  (1532) 
[45, 54]

>  <energy_score>  (1532) 
-0.8991469691866314

>  <distance_score>  (1532) 
2.4915888719362527

>  <path>  (1532) 
/opt/xchem-fragalysis-2/maxwin/BulkDock/SCRATCH/511013/C36071-P45/C36071-P45.minimised.mol

>  <scratch_subdir>  (1532) 
/opt/xchem-fragalysis-2/maxwin/BulkDock/SCRATCH/511013/C36071-P45

>  <fragmenstein_runtime>  (1532) 
13.189650058746338

>  <fragmenstein_outcome>  (1532) 
too moved

>  <fragmenstein_mode>  (1532) 
expansion

>  <fragmenstein_error>  (1532) 


$$$$
C36071-P54
     RDKit          3D

 47 50  0  0  0  0  0  0  0  0999 V2000
   -8.9602  -23.9972   29.9119 C   0  0  0  0  0  0  0  0  0  0  0  0
  -10.2943  -23.8051   29.1782 C   0  0  0  0  0  0  0  0  0  0  0  0
  -10.0691  -22.8873   27.9658 C   0  0  0  0  0  0  0  0  0  0  0  0
  -11.0621  -22.9118   26.9198 N   0  0  0  0  0  0  0  0  0  0  0  0
  -12.4442  -23.2947   26.9415 C   0  0  0  0  0  0  0  0  0  0  0  0
  -13.1120  -23.7689   27.8176 O   0  0  0  0  0  0  0  0  0  0  0  0
  -13.0779  -22.8958   25.6067 C   0  0  0  0  0  0  0  0  0  0  0  0
  -14.4226  -22.8699   25.5142 N   0  0  0  0  0  0  0  0  0  0  0  0
  -14.9002  -22.0829   24.5323 C   0  0  0  0  0  0  0  0  0  0  0  0
  -14.1124  -21.4636   23.5839 C   0  0  0  0  0  0  0  0  0  0  0  0
  -12.7573  -21.6519   23.7081 C   0  0  0  0  0  0  0  0  0  0  0  0
  -12.2067  -22.3442   24.7161 N   0  0  0  0  0  0  0  0  0  0  0  0
  -10.7733  -25.1091   28.6986 N   0  0  0  0  0  0  0  0  0  0  0  0
  -10.2066  -26.0313   27.7584 C   0  0  0  0  0  0  0  0  0  0  0  0
   -9.1611  -26.0145   27.1820 O   0  0  0  0  0  0  0  0  0  0  0  0
  -11.0807  -27.2196   27.6008 C   0  0  0  0  0  0  0  0  0  0  0  0
  -10.7095  -28.4045   28.1343 C   0  0  0  0  0  0  0  0  0  0  0  0
  -11.6170  -29.5396   28.1630 C   0  0  0  0  0  0  0  0  0  0  0  0
  -12.8409  -29.3920   27.6332 C   0  0  0  0  0  0  0  0  0  0  0  0
  -13.1718  -28.1871   27.0191 N   0  0  0  0  0  0  0  0  0  0  0  0
  -14.3207  -27.8326   26.3697 C   0  0  0  0  0  0  0  0  0  0  0  0
  -14.0970  -26.5635   25.8931 C   0  0  0  0  0  0  0  0  0  0  0  0
  -12.8405  -26.1373   26.2062 N   0  0  0  0  0  0  0  0  0  0  0  0
  -12.3207  -27.0978   26.9361 C   0  0  0  0  0  0  0  0  0  0  0  0
  -11.3050  -23.2444   30.1713 C   0  0  0  0  0  0  0  0  0  0  0  0
  -10.9460  -22.1810   31.1934 C   0  0  0  0  0  0  0  0  0  0  0  0
  -11.8957  -21.8459   30.0898 C   0  0  0  0  0  0  0  0  0  0  0  0
   -9.0950  -24.6025   30.8141 H   0  0  0  0  0  0  0  0  0  0  0  0
   -8.2211  -24.4837   29.2699 H   0  0  0  0  0  0  0  0  0  0  0  0
   -8.5212  -23.0466   30.2228 H   0  0  0  0  0  0  0  0  0  0  0  0
   -9.1632  -23.1959   27.4581 H   0  0  0  0  0  0  0  0  0  0  0  0
   -9.9068  -21.8454   28.2521 H   0  0  0  0  0  0  0  0  0  0  0  0
  -10.8562  -22.4658   26.0278 H   0  0  0  0  0  0  0  0  0  0  0  0
  -15.9800  -21.9553   24.5264 H   0  0  0  0  0  0  0  0  0  0  0  0
  -14.5317  -20.8408   22.8058 H   0  0  0  0  0  0  0  0  0  0  0  0
  -12.0576  -21.2051   23.0065 H   0  0  0  0  0  0  0  0  0  0  0  0
  -11.7192  -25.4010   28.9194 H   0  0  0  0  0  0  0  0  0  0  0  0
   -9.7410  -28.5497   28.5968 H   0  0  0  0  0  0  0  0  0  0  0  0
  -11.3042  -30.4685   28.6239 H   0  0  0  0  0  0  0  0  0  0  0  0
  -13.5852  -30.1782   27.6289 H   0  0  0  0  0  0  0  0  0  0  0  0
  -15.1793  -28.4847   26.3088 H   0  0  0  0  0  0  0  0  0  0  0  0
  -14.7825  -25.9374   25.3394 H   0  0  0  0  0  0  0  0  0  0  0  0
  -11.9314  -24.0345   30.5597 H   0  0  0  0  0  0  0  0  0  0  0  0
  -11.3497  -22.2695   32.1953 H   0  0  0  0  0  0  0  0  0  0  0  0
   -9.9729  -21.7174   31.1793 H   0  0  0  0  0  0  0  0  0  0  0  0
  -12.9402  -21.7249   30.3424 H   0  0  0  0  0  0  0  0  0  0  0  0
  -11.5638  -21.1294   29.3505 H   0  0  0  0  0  0  0  0  0  0  0  0
  1  2  1  0
  2  3  1  0
  3  4  1  0
  4  5  1  0
  5  6  2  0
  5  7  1  0
  7  8  2  0
  8  9  1  0
  9 10  2  0
 10 11  1  0
 11 12  2  0
  2 13  1  0
 13 14  1  0
 14 15  2  0
 14 16  1  0
 16 17  2  0
 17 18  1  0
 18 19  2  0
 19 20  1  0
 20 21  1  0
 21 22  2  0
 22 23  1  0
 23 24  2  0
  2 25  1  0
 25 26  1  0
 26 27  1  0
 12  7  1  0
 24 16  1  0
 27 25  1  0
 24 20  1  0
  1 28  1  0
  1 29  1  0
  1 30  1  0
  3 31  1  0
  3 32  1  0
  4 33  1  0
  9 34  1  0
 10 35  1  0
 11 36  1  0
 13 37  1  0
 17 38  1  0
 18 39  1  0
 19 40  1  0
 21 41  1  0
 22 42  1  0
 25 43  1  0
 26 44  1  0
 26 45  1  0
 27 46  1  0
 27 47  1  0
M  END
>  <Energy>  (1533) 
126.19179187032682

>  <compound_id>  (1533) 
36071

>  <target_id>  (1533) 
1

>  <reference_id>  (1533) 
54

>  <inspiration_ids>  (1533) 
[45, 54]

>  <energy_score>  (1533) 
-58.39960048527712

>  <distance_score>  (1533) 
5.728301374986275

>  <path>  (1533) 
/opt/xchem-fragalysis-2/maxwin/BulkDock/SCRATCH/511013/C36071-P54/C36071-P54.minimised.mol

>  <scratch_subdir>  (1533) 
/opt/xchem-fragalysis-2/maxwin/BulkDock/SCRATCH/511013/C36071-P54

>  <fragmenstein_runtime>  (1533) 
22.772250652313232

>  <fragmenstein_outcome>  (1533) 
too moved

>  <fragmenstein_mode>  (1533) 
expansion

>  <fragmenstein_error>  (1533) 


$$$$
C36072-P45
     RDKit          3D

 44 46  0  0  0  0  0  0  0  0999 V2000
   -9.4999  -25.1330   31.4424 C   0  0  0  0  0  0  0  0  0  0  0  0
  -10.0477  -25.2589   30.1055 N   0  0  0  0  0  0  0  0  0  0  0  0
  -11.0176  -24.3076   29.5424 C   0  0  0  0  0  0  0  0  0  0  0  0
  -11.9159  -24.8844   28.4588 C   0  0  0  0  0  0  0  0  0  0  0  0
  -11.9075  -24.0172   27.1893 C   0  0  0  0  0  0  0  0  0  0  0  0
  -12.6819  -24.6587   26.1216 N   0  0  0  0  0  0  0  0  0  0  0  0
  -12.1822  -25.8855   25.5508 C   0  0  0  0  0  0  0  0  0  0  0  0
  -12.9344  -23.7611   25.0597 C   0  0  0  0  0  0  0  0  0  0  0  0
  -14.2037  -23.6305   24.6325 N   0  0  0  0  0  0  0  0  0  0  0  0
  -14.4832  -22.6527   23.7475 C   0  0  0  0  0  0  0  0  0  0  0  0
  -13.5219  -21.8793   23.1605 C   0  0  0  0  0  0  0  0  0  0  0  0
  -12.2437  -22.1868   23.5386 C   0  0  0  0  0  0  0  0  0  0  0  0
  -11.9298  -23.1268   24.4612 N   0  0  0  0  0  0  0  0  0  0  0  0
   -9.6326  -26.3251   29.3360 C   0  0  0  0  0  0  0  0  0  0  0  0
  -10.2557  -27.3846   29.3867 O   0  0  0  0  0  0  0  0  0  0  0  0
   -8.5126  -26.0905   28.3997 C   0  0  0  0  0  0  0  0  0  0  0  0
   -8.6499  -25.1248   27.4133 C   0  0  0  0  0  0  0  0  0  0  0  0
   -9.4064  -25.7516   26.4352 N   0  0  0  0  0  0  0  0  0  0  0  0
   -9.2086  -27.0485   26.6567 C   0  0  0  0  0  0  0  0  0  0  0  0
   -9.5700  -28.2848   26.0776 C   0  0  0  0  0  0  0  0  0  0  0  0
   -8.5959  -29.2025   25.9155 C   0  0  0  0  0  0  0  0  0  0  0  0
   -7.2288  -28.8857   26.3116 C   0  0  0  0  0  0  0  0  0  0  0  0
   -7.0255  -27.8531   27.1500 C   0  0  0  0  0  0  0  0  0  0  0  0
   -8.1395  -27.0995   27.5103 N   0  0  0  0  0  0  0  0  0  0  0  0
   -8.4167  -25.2043   31.4194 H   0  0  0  0  0  0  0  0  0  0  0  0
   -9.8475  -24.2216   31.9294 H   0  0  0  0  0  0  0  0  0  0  0  0
   -9.8446  -25.9890   32.0314 H   0  0  0  0  0  0  0  0  0  0  0  0
  -11.6079  -23.8516   30.3427 H   0  0  0  0  0  0  0  0  0  0  0  0
  -10.4408  -23.4911   29.1039 H   0  0  0  0  0  0  0  0  0  0  0  0
  -11.6434  -25.9000   28.1846 H   0  0  0  0  0  0  0  0  0  0  0  0
  -12.9159  -25.0168   28.8625 H   0  0  0  0  0  0  0  0  0  0  0  0
  -12.3417  -23.0460   27.4518 H   0  0  0  0  0  0  0  0  0  0  0  0
  -10.8926  -23.8146   26.8496 H   0  0  0  0  0  0  0  0  0  0  0  0
  -12.9029  -26.2991   24.8328 H   0  0  0  0  0  0  0  0  0  0  0  0
  -11.2428  -25.7401   25.0210 H   0  0  0  0  0  0  0  0  0  0  0  0
  -12.0707  -26.6611   26.3099 H   0  0  0  0  0  0  0  0  0  0  0  0
  -15.5356  -22.5180   23.5235 H   0  0  0  0  0  0  0  0  0  0  0  0
  -13.7460  -21.1030   22.4455 H   0  0  0  0  0  0  0  0  0  0  0  0
  -11.3978  -21.6737   23.0897 H   0  0  0  0  0  0  0  0  0  0  0  0
   -8.6443  -24.0489   27.5084 H   0  0  0  0  0  0  0  0  0  0  0  0
  -10.5839  -28.4253   25.7553 H   0  0  0  0  0  0  0  0  0  0  0  0
   -8.7817  -30.1669   25.4556 H   0  0  0  0  0  0  0  0  0  0  0  0
   -6.4278  -29.4916   25.9142 H   0  0  0  0  0  0  0  0  0  0  0  0
   -6.0450  -27.5588   27.4904 H   0  0  0  0  0  0  0  0  0  0  0  0
  1  2  1  0
  2  3  1  0
  3  4  1  0
  4  5  1  0
  5  6  1  0
  6  7  1  0
  6  8  1  0
  8  9  2  0
  9 10  1  0
 10 11  2  0
 11 12  1  0
 12 13  2  0
  2 14  1  0
 14 15  2  0
 14 16  1  0
 16 17  2  0
 17 18  1  0
 18 19  2  0
 19 20  1  0
 20 21  2  0
 21 22  1  0
 22 23  2  0
 23 24  1  0
 13  8  1  0
 24 16  1  0
 24 19  1  0
  1 25  1  0
  1 26  1  0
  1 27  1  0
  3 28  1  0
  3 29  1  0
  4 30  1  0
  4 31  1  0
  5 32  1  0
  5 33  1  0
  7 34  1  0
  7 35  1  0
  7 36  1  0
 10 37  1  0
 11 38  1  0
 12 39  1  0
 17 40  1  0
 20 41  1  0
 21 42  1  0
 22 43  1  0
 23 44  1  0
M  END
>  <Energy>  (1534) 
41.657910707429494

>  <compound_id>  (1534) 
36072

>  <target_id>  (1534) 
1

>  <reference_id>  (1534) 
45

>  <inspiration_ids>  (1534) 
[45, 54]

>  <energy_score>  (1534) 
71.37121259582204

>  <distance_score>  (1534) 
4.454663978590583

>  <path>  (1534) 
/opt/xchem-fragalysis-2/maxwin/BulkDock/SCRATCH/511013/C36072-P45/C36072-P45.minimised.mol

>  <scratch_subdir>  (1534) 
/opt/xchem-fragalysis-2/maxwin/BulkDock/SCRATCH/511013/C36072-P45

>  <fragmenstein_runtime>  (1534) 
9.355591535568237

>  <fragmenstein_outcome>  (1534) 
too moved

>  <fragmenstein_mode>  (1534) 
expansion

>  <fragmenstein_error>  (1534) 


$$$$
C36072-P54
     RDKit          3D

 44 46  0  0  0  0  0  0  0  0999 V2000
   -7.8149  -23.2180   33.3708 C   0  0  0  0  0  0  0  0  0  0  0  0
   -9.2096  -23.4339   33.1276 N   0  0  0  0  0  0  0  0  0  0  0  0
  -10.1583  -22.5342   33.7452 C   0  0  0  0  0  0  0  0  0  0  0  0
  -10.0400  -21.0735   33.4468 C   0  0  0  0  0  0  0  0  0  0  0  0
  -10.4412  -20.7923   32.0349 C   0  0  0  0  0  0  0  0  0  0  0  0
  -11.8201  -21.0868   31.7198 N   0  0  0  0  0  0  0  0  0  0  0  0
  -12.6690  -19.9605   32.0725 C   0  0  0  0  0  0  0  0  0  0  0  0
  -11.8914  -21.3636   30.3465 C   0  0  0  0  0  0  0  0  0  0  0  0
  -11.2892  -20.5398   29.4868 N   0  0  0  0  0  0  0  0  0  0  0  0
  -11.1637  -20.9671   28.2212 C   0  0  0  0  0  0  0  0  0  0  0  0
  -11.6512  -22.1498   27.7449 C   0  0  0  0  0  0  0  0  0  0  0  0
  -12.3190  -22.8895   28.6751 C   0  0  0  0  0  0  0  0  0  0  0  0
  -12.4527  -22.5183   29.9591 N   0  0  0  0  0  0  0  0  0  0  0  0
   -9.6287  -24.4804   32.3220 C   0  0  0  0  0  0  0  0  0  0  0  0
   -9.8522  -25.5631   32.8669 O   0  0  0  0  0  0  0  0  0  0  0  0
   -9.6854  -24.3081   30.8889 C   0  0  0  0  0  0  0  0  0  0  0  0
   -8.9166  -23.5025   30.0731 C   0  0  0  0  0  0  0  0  0  0  0  0
   -9.0617  -23.7814   28.7433 N   0  0  0  0  0  0  0  0  0  0  0  0
   -9.9147  -24.7755   28.7057 C   0  0  0  0  0  0  0  0  0  0  0  0
  -10.3873  -25.5557   27.6078 C   0  0  0  0  0  0  0  0  0  0  0  0
  -11.2754  -26.5438   27.8189 C   0  0  0  0  0  0  0  0  0  0  0  0
  -11.7844  -26.8239   29.1501 C   0  0  0  0  0  0  0  0  0  0  0  0
  -11.3438  -26.0951   30.1910 C   0  0  0  0  0  0  0  0  0  0  0  0
  -10.3948  -25.0865   29.9848 N   0  0  0  0  0  0  0  0  0  0  0  0
   -7.4214  -22.5785   32.5870 H   0  0  0  0  0  0  0  0  0  0  0  0
   -7.6939  -22.7000   34.3205 H   0  0  0  0  0  0  0  0  0  0  0  0
   -7.3032  -24.1803   33.3761 H   0  0  0  0  0  0  0  0  0  0  0  0
  -11.1453  -22.8471   33.4619 H   0  0  0  0  0  0  0  0  0  0  0  0
  -10.0327  -22.6658   34.8237 H   0  0  0  0  0  0  0  0  0  0  0  0
   -9.0034  -20.7514   33.5622 H   0  0  0  0  0  0  0  0  0  0  0  0
  -10.6694  -20.5050   34.1399 H   0  0  0  0  0  0  0  0  0  0  0  0
  -10.2626  -19.7233   31.8792 H   0  0  0  0  0  0  0  0  0  0  0  0
   -9.7902  -21.4085   31.4173 H   0  0  0  0  0  0  0  0  0  0  0  0
  -12.9267  -20.0067   33.1365 H   0  0  0  0  0  0  0  0  0  0  0  0
  -13.5917  -19.9096   31.4876 H   0  0  0  0  0  0  0  0  0  0  0  0
  -12.1537  -19.0082   31.9376 H   0  0  0  0  0  0  0  0  0  0  0  0
  -10.6537  -20.2817   27.5693 H   0  0  0  0  0  0  0  0  0  0  0  0
  -11.5451  -22.4481   26.7137 H   0  0  0  0  0  0  0  0  0  0  0  0
  -12.7975  -23.8260   28.4107 H   0  0  0  0  0  0  0  0  0  0  0  0
   -8.1918  -22.7804   30.4040 H   0  0  0  0  0  0  0  0  0  0  0  0
  -10.0046  -25.3436   26.6188 H   0  0  0  0  0  0  0  0  0  0  0  0
  -11.6326  -27.1541   26.9955 H   0  0  0  0  0  0  0  0  0  0  0  0
  -12.5029  -27.6264   29.2807 H   0  0  0  0  0  0  0  0  0  0  0  0
  -11.6668  -26.2715   31.2080 H   0  0  0  0  0  0  0  0  0  0  0  0
  1  2  1  0
  2  3  1  0
  3  4  1  0
  4  5  1  0
  5  6  1  0
  6  7  1  0
  6  8  1  0
  8  9  2  0
  9 10  1  0
 10 11  2  0
 11 12  1  0
 12 13  2  0
  2 14  1  0
 14 15  2  0
 14 16  1  0
 16 17  2  0
 17 18  1  0
 18 19  2  0
 19 20  1  0
 20 21  2  0
 21 22  1  0
 22 23  2  0
 23 24  1  0
 13  8  1  0
 24 16  1  0
 24 19  1  0
  1 25  1  0
  1 26  1  0
  1 27  1  0
  3 28  1  0
  3 29  1  0
  4 30  1  0
  4 31  1  0
  5 32  1  0
  5 33  1  0
  7 34  1  0
  7 35  1  0
  7 36  1  0
 10 37  1  0
 11 38  1  0
 12 39  1  0
 17 40  1  0
 20 41  1  0
 21 42  1  0
 22 43  1  0
 23 44  1  0
M  END
>  <Energy>  (1535) 
-44.68969553427646

>  <compound_id>  (1535) 
36072

>  <target_id>  (1535) 
1

>  <reference_id>  (1535) 
54

>  <inspiration_ids>  (1535) 
[45, 54]

>  <energy_score>  (1535) 
-14.976393645883093

>  <distance_score>  (1535) 
3.4899885305444767

>  <path>  (1535) 
/opt/xchem-fragalysis-2/maxwin/BulkDock/SCRATCH/511013/C36072-P54/C36072-P54.minimised.mol

>  <scratch_subdir>  (1535) 
/opt/xchem-fragalysis-2/maxwin/BulkDock/SCRATCH/511013/C36072-P54

>  <fragmenstein_runtime>  (1535) 
9.876858472824097

>  <fragmenstein_outcome>  (1535) 
too moved

>  <fragmenstein_mode>  (1535) 
expansion

>  <fragmenstein_error>  (1535) 


$$$$
C36074-P45
     RDKit          3D

 39 42  0  0  0  0  0  0  0  0999 V2000
   -9.1092  -23.1771   28.0515 O   0  0  0  0  0  0  0  0  0  0  0  0
   -9.1756  -24.1305   28.6983 C   0  0  0  0  0  0  0  0  0  0  0  0
   -8.4443  -25.3719   28.6010 N   0  0  0  0  0  0  0  0  0  0  0  0
   -7.5417  -25.8048   27.6622 C   0  0  0  0  0  0  0  0  0  0  0  0
   -7.8855  -25.2438   26.4489 C   0  0  0  0  0  0  0  0  0  0  0  0
   -9.0962  -25.9009   26.1872 N   0  0  0  0  0  0  0  0  0  0  0  0
   -8.8637  -27.1359   26.6405 C   0  0  0  0  0  0  0  0  0  0  0  0
   -9.3988  -28.4085   26.3384 C   0  0  0  0  0  0  0  0  0  0  0  0
   -8.5144  -29.3974   26.1127 C   0  0  0  0  0  0  0  0  0  0  0  0
   -7.0818  -29.1479   26.2231 C   0  0  0  0  0  0  0  0  0  0  0  0
   -6.6358  -28.0491   26.8530 C   0  0  0  0  0  0  0  0  0  0  0  0
   -7.5866  -27.1040   27.1916 N   0  0  0  0  0  0  0  0  0  0  0  0
  -10.1002  -24.4544   29.7832 N   0  0  0  0  0  0  0  0  0  0  0  0
  -11.2681  -23.7241   30.2990 C   0  0  0  0  0  0  0  0  0  0  0  0
  -12.2787  -24.3717   29.2164 C   0  0  0  0  0  0  0  0  0  0  0  0
  -12.2058  -23.6745   28.0478 N   0  0  0  0  0  0  0  0  0  0  0  0
  -12.0509  -24.3561   26.9004 C   0  0  0  0  0  0  0  0  0  0  0  0
  -12.0857  -25.7248   26.8467 C   0  0  0  0  0  0  0  0  0  0  0  0
  -12.2759  -26.3632   28.0499 C   0  0  0  0  0  0  0  0  0  0  0  0
  -12.3537  -25.7281   29.2374 N   0  0  0  0  0  0  0  0  0  0  0  0
  -11.4019  -22.1463   30.2086 C   0  0  0  0  0  0  0  0  0  0  0  0
  -11.6114  -22.0669   31.7190 C   0  0  0  0  0  0  0  0  0  0  0  0
  -11.1131  -23.5114   31.8385 C   0  0  0  0  0  0  0  0  0  0  0  0
   -8.8066  -26.0186   29.2674 H   0  0  0  0  0  0  0  0  0  0  0  0
   -7.7091  -24.2309   26.1263 H   0  0  0  0  0  0  0  0  0  0  0  0
  -10.4613  -28.5302   26.2040 H   0  0  0  0  0  0  0  0  0  0  0  0
   -8.8294  -30.3924   25.8156 H   0  0  0  0  0  0  0  0  0  0  0  0
   -6.4082  -29.8514   25.7631 H   0  0  0  0  0  0  0  0  0  0  0  0
   -5.5915  -27.7999   26.9895 H   0  0  0  0  0  0  0  0  0  0  0  0
   -9.9412  -25.3955   30.0797 H   0  0  0  0  0  0  0  0  0  0  0  0
  -11.9089  -23.7460   26.0131 H   0  0  0  0  0  0  0  0  0  0  0  0
  -11.9599  -26.2560   25.9148 H   0  0  0  0  0  0  0  0  0  0  0  0
  -12.3361  -27.4458   28.1039 H   0  0  0  0  0  0  0  0  0  0  0  0
  -10.5731  -21.5826   29.7944 H   0  0  0  0  0  0  0  0  0  0  0  0
  -12.2850  -21.7701   29.6769 H   0  0  0  0  0  0  0  0  0  0  0  0
  -12.6589  -21.9148   31.9982 H   0  0  0  0  0  0  0  0  0  0  0  0
  -11.0316  -21.3071   32.2484 H   0  0  0  0  0  0  0  0  0  0  0  0
  -10.0757  -23.6107   32.1813 H   0  0  0  0  0  0  0  0  0  0  0  0
  -11.5916  -24.0856   32.6213 H   0  0  0  0  0  0  0  0  0  0  0  0
  1  2  2  0
  2  3  1  0
  3  4  1  0
  4  5  2  0
  5  6  1  0
  6  7  2  0
  7  8  1  0
  8  9  2  0
  9 10  1  0
 10 11  2  0
 11 12  1  0
  2 13  1  0
 13 14  1  0
 14 15  1  0
 15 16  2  0
 16 17  1  0
 17 18  2  0
 18 19  1  0
 19 20  2  0
 14 21  1  0
 21 22  1  0
 22 23  1  0
 12  4  1  0
 23 14  1  0
 12  7  1  0
 20 15  1  0
  3 24  1  0
  5 25  1  0
  8 26  1  0
  9 27  1  0
 10 28  1  0
 11 29  1  0
 13 30  1  0
 17 31  1  0
 18 32  1  0
 19 33  1  0
 21 34  1  0
 21 35  1  0
 22 36  1  0
 22 37  1  0
 23 38  1  0
 23 39  1  0
M  END
>  <Energy>  (1536) 
177.15610643757424

>  <compound_id>  (1536) 
36074

>  <target_id>  (1536) 
1

>  <reference_id>  (1536) 
45

>  <inspiration_ids>  (1536) 
[45, 54]

>  <energy_score>  (1536) 
101.91712713318759

>  <distance_score>  (1536) 
2.0495402441518005

>  <path>  (1536) 
/opt/xchem-fragalysis-2/maxwin/BulkDock/SCRATCH/511013/C36074-P45/C36074-P45.minimised.mol

>  <scratch_subdir>  (1536) 
/opt/xchem-fragalysis-2/maxwin/BulkDock/SCRATCH/511013/C36074-P45

>  <fragmenstein_runtime>  (1536) 
7.907803773880005

>  <fragmenstein_outcome>  (1536) 
too moved

>  <fragmenstein_mode>  (1536) 
expansion

>  <fragmenstein_error>  (1536) 


$$$$
C36074-P54
     RDKit          3D

 39 42  0  0  0  0  0  0  0  0999 V2000
  -11.4908  -25.6027   30.9519 O   0  0  0  0  0  0  0  0  0  0  0  0
  -10.6683  -25.0221   30.3492 C   0  0  0  0  0  0  0  0  0  0  0  0
  -10.2364  -25.1622   28.9331 N   0  0  0  0  0  0  0  0  0  0  0  0
  -10.7308  -25.9292   27.9286 C   0  0  0  0  0  0  0  0  0  0  0  0
  -10.7115  -25.6415   26.5869 C   0  0  0  0  0  0  0  0  0  0  0  0
  -11.5463  -26.4706   25.8987 N   0  0  0  0  0  0  0  0  0  0  0  0
  -12.0606  -27.2687   26.8084 C   0  0  0  0  0  0  0  0  0  0  0  0
  -13.0517  -28.2839   26.7130 C   0  0  0  0  0  0  0  0  0  0  0  0
  -13.2166  -29.1508   27.7299 C   0  0  0  0  0  0  0  0  0  0  0  0
  -12.4427  -29.0349   28.9530 C   0  0  0  0  0  0  0  0  0  0  0  0
  -11.6164  -27.9875   29.0983 C   0  0  0  0  0  0  0  0  0  0  0  0
  -11.4602  -27.0864   28.0483 N   0  0  0  0  0  0  0  0  0  0  0  0
   -9.8344  -23.8775   30.7401 N   0  0  0  0  0  0  0  0  0  0  0  0
   -9.8470  -23.0532   31.9520 C   0  0  0  0  0  0  0  0  0  0  0  0
  -10.9832  -21.9534   31.6372 C   0  0  0  0  0  0  0  0  0  0  0  0
  -10.8920  -20.7778   32.2676 N   0  0  0  0  0  0  0  0  0  0  0  0
  -11.1678  -19.7077   31.5071 C   0  0  0  0  0  0  0  0  0  0  0  0
  -11.4551  -19.7847   30.1597 C   0  0  0  0  0  0  0  0  0  0  0  0
  -11.6521  -21.0257   29.6411 C   0  0  0  0  0  0  0  0  0  0  0  0
  -11.4965  -22.1128   30.3784 N   0  0  0  0  0  0  0  0  0  0  0  0
   -9.7402  -23.7762   33.2903 C   0  0  0  0  0  0  0  0  0  0  0  0
   -8.2744  -23.4230   33.4085 C   0  0  0  0  0  0  0  0  0  0  0  0
   -8.4556  -22.4645   32.2546 C   0  0  0  0  0  0  0  0  0  0  0  0
   -9.5644  -24.4503   28.7194 H   0  0  0  0  0  0  0  0  0  0  0  0
  -10.2411  -24.8032   26.0977 H   0  0  0  0  0  0  0  0  0  0  0  0
  -13.6353  -28.3509   25.8032 H   0  0  0  0  0  0  0  0  0  0  0  0
  -13.9588  -29.9412   27.6729 H   0  0  0  0  0  0  0  0  0  0  0  0
  -12.5897  -29.7615   29.7448 H   0  0  0  0  0  0  0  0  0  0  0  0
  -11.0535  -27.8197   30.0030 H   0  0  0  0  0  0  0  0  0  0  0  0
   -9.1786  -23.6842   30.0124 H   0  0  0  0  0  0  0  0  0  0  0  0
  -11.0358  -18.7485   32.0003 H   0  0  0  0  0  0  0  0  0  0  0  0
  -11.5066  -18.9156   29.5283 H   0  0  0  0  0  0  0  0  0  0  0  0
  -11.8987  -21.1846   28.5982 H   0  0  0  0  0  0  0  0  0  0  0  0
  -10.3137  -23.2936   34.0784 H   0  0  0  0  0  0  0  0  0  0  0  0
   -9.8896  -24.8555   33.2620 H   0  0  0  0  0  0  0  0  0  0  0  0
   -7.6068  -24.2672   33.2307 H   0  0  0  0  0  0  0  0  0  0  0  0
   -8.0074  -22.9197   34.3371 H   0  0  0  0  0  0  0  0  0  0  0  0
   -8.4501  -21.4288   32.6046 H   0  0  0  0  0  0  0  0  0  0  0  0
   -7.7631  -22.5895   31.4314 H   0  0  0  0  0  0  0  0  0  0  0  0
  1  2  2  0
  2  3  1  0
  3  4  1  0
  4  5  2  0
  5  6  1  0
  6  7  2  0
  7  8  1  0
  8  9  2  0
  9 10  1  0
 10 11  2  0
 11 12  1  0
  2 13  1  0
 13 14  1  0
 14 15  1  0
 15 16  2  0
 16 17  1  0
 17 18  2  0
 18 19  1  0
 19 20  2  0
 14 21  1  0
 21 22  1  0
 22 23  1  0
 12  4  1  0
 23 14  1  0
 12  7  1  0
 20 15  1  0
  3 24  1  0
  5 25  1  0
  8 26  1  0
  9 27  1  0
 10 28  1  0
 11 29  1  0
 13 30  1  0
 17 31  1  0
 18 32  1  0
 19 33  1  0
 21 34  1  0
 21 35  1  0
 22 36  1  0
 22 37  1  0
 23 38  1  0
 23 39  1  0
M  END
>  <Energy>  (1537) 
60.916338623398573

>  <compound_id>  (1537) 
36074

>  <target_id>  (1537) 
1

>  <reference_id>  (1537) 
54

>  <inspiration_ids>  (1537) 
[45, 54]

>  <energy_score>  (1537) 
-14.322640680985273

>  <distance_score>  (1537) 
4.450052659739054

>  <path>  (1537) 
/opt/xchem-fragalysis-2/maxwin/BulkDock/SCRATCH/511013/C36074-P54/C36074-P54.minimised.mol

>  <scratch_subdir>  (1537) 
/opt/xchem-fragalysis-2/maxwin/BulkDock/SCRATCH/511013/C36074-P54

>  <fragmenstein_runtime>  (1537) 
8.33993649482727

>  <fragmenstein_outcome>  (1537) 
too moved

>  <fragmenstein_mode>  (1537) 
expansion

>  <fragmenstein_error>  (1537) 


$$$$
C36075-P45
     RDKit          3D

 45 48  0  0  0  0  0  0  0  0999 V2000
   -7.3740  -21.7499   27.6467 O   0  0  0  0  0  0  0  0  0  0  0  0
   -7.6833  -22.8438   27.8948 C   0  0  0  0  0  0  0  0  0  0  0  0
   -6.5343  -23.7852   27.9818 C   0  0  0  0  0  0  0  0  0  0  0  0
   -6.7395  -25.0912   27.4199 C   0  0  0  0  0  0  0  0  0  0  0  0
   -5.7451  -25.9228   26.9756 C   0  0  0  0  0  0  0  0  0  0  0  0
   -6.3866  -27.0905   26.7276 N   0  0  0  0  0  0  0  0  0  0  0  0
   -5.8747  -28.2394   26.1892 C   0  0  0  0  0  0  0  0  0  0  0  0
   -6.7289  -29.2219   25.8754 C   0  0  0  0  0  0  0  0  0  0  0  0
   -8.1164  -29.1327   26.2626 C   0  0  0  0  0  0  0  0  0  0  0  0
   -8.5871  -28.0177   26.8362 C   0  0  0  0  0  0  0  0  0  0  0  0
   -7.7242  -26.9185   27.0421 C   0  0  0  0  0  0  0  0  0  0  0  0
   -7.9522  -25.7175   27.5020 N   0  0  0  0  0  0  0  0  0  0  0  0
   -9.0659  -23.4379   28.2435 N   0  0  0  0  0  0  0  0  0  0  0  0
  -10.3786  -22.7696   28.4584 C   0  0  0  0  0  0  0  0  0  0  0  0
  -11.1822  -23.1111   29.7760 C   0  0  0  0  0  0  0  0  0  0  0  0
  -11.0149  -24.5094   30.2251 N   0  0  0  0  0  0  0  0  0  0  0  0
  -11.3864  -25.3609   29.1516 C   0  0  0  0  0  0  0  0  0  0  0  0
  -11.8644  -24.8119   28.0209 N   0  0  0  0  0  0  0  0  0  0  0  0
  -12.0951  -25.5727   26.9583 C   0  0  0  0  0  0  0  0  0  0  0  0
  -12.1059  -26.9257   27.0550 C   0  0  0  0  0  0  0  0  0  0  0  0
  -11.7371  -27.4260   28.2822 C   0  0  0  0  0  0  0  0  0  0  0  0
  -11.3023  -26.6785   29.3080 N   0  0  0  0  0  0  0  0  0  0  0  0
   -9.8193  -24.8577   31.0535 C   0  0  0  0  0  0  0  0  0  0  0  0
   -9.6141  -25.8624   32.1387 C   0  0  0  0  0  0  0  0  0  0  0  0
   -9.8583  -24.4555   32.5258 C   0  0  0  0  0  0  0  0  0  0  0  0
   -6.2348  -23.8846   29.0191 H   0  0  0  0  0  0  0  0  0  0  0  0
   -5.6830  -23.3137   27.4738 H   0  0  0  0  0  0  0  0  0  0  0  0
   -4.6792  -25.7960   26.8380 H   0  0  0  0  0  0  0  0  0  0  0  0
   -4.8241  -28.2235   25.9397 H   0  0  0  0  0  0  0  0  0  0  0  0
   -6.4215  -30.0749   25.2910 H   0  0  0  0  0  0  0  0  0  0  0  0
   -8.7491  -29.9963   26.0865 H   0  0  0  0  0  0  0  0  0  0  0  0
   -9.6115  -27.9408   27.1346 H   0  0  0  0  0  0  0  0  0  0  0  0
   -8.9906  -24.4545   28.3230 H   0  0  0  0  0  0  0  0  0  0  0  0
  -10.9729  -22.8930   27.5499 H   0  0  0  0  0  0  0  0  0  0  0  0
  -10.2017  -21.6996   28.4826 H   0  0  0  0  0  0  0  0  0  0  0  0
  -12.2451  -22.8979   29.5932 H   0  0  0  0  0  0  0  0  0  0  0  0
  -10.9475  -22.4195   30.5904 H   0  0  0  0  0  0  0  0  0  0  0  0
  -12.3264  -25.0468   26.0376 H   0  0  0  0  0  0  0  0  0  0  0  0
  -12.3633  -27.5681   26.2258 H   0  0  0  0  0  0  0  0  0  0  0  0
  -11.7265  -28.4972   28.4649 H   0  0  0  0  0  0  0  0  0  0  0  0
   -8.9167  -24.8408   30.4542 H   0  0  0  0  0  0  0  0  0  0  0  0
  -10.3349  -26.6229   32.3743 H   0  0  0  0  0  0  0  0  0  0  0  0
   -8.6009  -26.2297   32.2673 H   0  0  0  0  0  0  0  0  0  0  0  0
  -10.8157  -24.2225   32.9790 H   0  0  0  0  0  0  0  0  0  0  0  0
   -9.0293  -23.9500   32.9943 H   0  0  0  0  0  0  0  0  0  0  0  0
  1  2  2  0
  2  3  1  0
  3  4  1  0
  4  5  2  0
  5  6  1  0
  6  7  1  0
  7  8  2  0
  8  9  1  0
  9 10  2  0
 10 11  1  0
 11 12  2  0
  2 13  1  0
 13 14  1  0
 14 15  1  0
 15 16  1  0
 16 17  1  0
 17 18  2  0
 18 19  1  0
 19 20  2  0
 20 21  1  0
 21 22  2  0
 16 23  1  0
 23 24  1  0
 24 25  1  0
 12  4  1  0
 22 17  1  0
 25 23  1  0
 11  6  1  0
  3 26  1  0
  3 27  1  0
  5 28  1  0
  7 29  1  0
  8 30  1  0
  9 31  1  0
 10 32  1  0
 13 33  1  0
 14 34  1  0
 14 35  1  0
 15 36  1  0
 15 37  1  0
 19 38  1  0
 20 39  1  0
 21 40  1  0
 23 41  1  0
 24 42  1  0
 24 43  1  0
 25 44  1  0
 25 45  1  0
M  END
>  <Energy>  (1538) 
40.808830484002328

>  <compound_id>  (1538) 
36075

>  <target_id>  (1538) 
1

>  <reference_id>  (1538) 
45

>  <inspiration_ids>  (1538) 
[45, 54]

>  <energy_score>  (1538) 
-12.656956220128961

>  <distance_score>  (1538) 
2.580785690627276

>  <path>  (1538) 
/opt/xchem-fragalysis-2/maxwin/BulkDock/SCRATCH/511013/C36075-P45/C36075-P45.minimised.mol

>  <scratch_subdir>  (1538) 
/opt/xchem-fragalysis-2/maxwin/BulkDock/SCRATCH/511013/C36075-P45

>  <fragmenstein_runtime>  (1538) 
8.704198837280273

>  <fragmenstein_outcome>  (1538) 
too moved

>  <fragmenstein_mode>  (1538) 
expansion

>  <fragmenstein_error>  (1538) 


$$$$
C36075-P54
     RDKit          3D

 45 48  0  0  0  0  0  0  0  0999 V2000
  -10.1495  -24.8307   26.4102 O   0  0  0  0  0  0  0  0  0  0  0  0
  -10.1539  -25.3520   27.4566 C   0  0  0  0  0  0  0  0  0  0  0  0
  -10.6142  -26.8026   27.6474 C   0  0  0  0  0  0  0  0  0  0  0  0
   -9.4283  -27.6843   27.3755 C   0  0  0  0  0  0  0  0  0  0  0  0
   -8.1657  -27.3300   26.9672 C   0  0  0  0  0  0  0  0  0  0  0  0
   -7.6516  -28.4576   26.3912 N   0  0  0  0  0  0  0  0  0  0  0  0
   -6.6432  -28.7144   25.4180 C   0  0  0  0  0  0  0  0  0  0  0  0
   -6.3525  -29.9534   24.9986 C   0  0  0  0  0  0  0  0  0  0  0  0
   -6.9906  -31.0380   25.7022 C   0  0  0  0  0  0  0  0  0  0  0  0
   -7.7836  -30.8189   26.7912 C   0  0  0  0  0  0  0  0  0  0  0  0
   -8.2698  -29.4641   27.1105 C   0  0  0  0  0  0  0  0  0  0  0  0
   -9.4064  -29.0303   27.6476 N   0  0  0  0  0  0  0  0  0  0  0  0
   -9.6445  -24.8468   28.8357 N   0  0  0  0  0  0  0  0  0  0  0  0
   -8.9406  -23.6377   29.1890 C   0  0  0  0  0  0  0  0  0  0  0  0
   -9.2149  -23.2219   30.6499 C   0  0  0  0  0  0  0  0  0  0  0  0
  -10.3274  -22.3016   30.8450 N   0  0  0  0  0  0  0  0  0  0  0  0
  -11.3277  -22.5854   29.8915 C   0  0  0  0  0  0  0  0  0  0  0  0
  -11.2739  -21.8371   28.7767 N   0  0  0  0  0  0  0  0  0  0  0  0
  -11.8334  -22.3363   27.6627 C   0  0  0  0  0  0  0  0  0  0  0  0
  -12.5600  -23.4990   27.6370 C   0  0  0  0  0  0  0  0  0  0  0  0
  -12.6544  -24.1496   28.8378 C   0  0  0  0  0  0  0  0  0  0  0  0
  -12.0124  -23.7497   29.9548 N   0  0  0  0  0  0  0  0  0  0  0  0
  -10.7119  -22.2159   32.2518 C   0  0  0  0  0  0  0  0  0  0  0  0
   -9.7260  -21.8692   33.3360 C   0  0  0  0  0  0  0  0  0  0  0  0
  -10.8185  -20.9037   32.9675 C   0  0  0  0  0  0  0  0  0  0  0  0
  -11.0241  -26.9769   28.6460 H   0  0  0  0  0  0  0  0  0  0  0  0
  -11.4092  -27.0103   26.9231 H   0  0  0  0  0  0  0  0  0  0  0  0
   -7.7002  -26.3759   26.9165 H   0  0  0  0  0  0  0  0  0  0  0  0
   -5.9353  -27.9462   25.2073 H   0  0  0  0  0  0  0  0  0  0  0  0
   -5.5101  -30.1706   24.3528 H   0  0  0  0  0  0  0  0  0  0  0  0
   -6.7499  -32.0458   25.3756 H   0  0  0  0  0  0  0  0  0  0  0  0
   -8.2909  -31.6789   27.2096 H   0  0  0  0  0  0  0  0  0  0  0  0
   -9.8774  -25.5195   29.5477 H   0  0  0  0  0  0  0  0  0  0  0  0
   -9.0898  -22.8626   28.4372 H   0  0  0  0  0  0  0  0  0  0  0  0
   -7.8902  -23.9310   29.1383 H   0  0  0  0  0  0  0  0  0  0  0  0
   -8.3139  -22.7290   31.0261 H   0  0  0  0  0  0  0  0  0  0  0  0
   -9.3476  -24.1229   31.2664 H   0  0  0  0  0  0  0  0  0  0  0  0
  -11.6830  -21.7492   26.7627 H   0  0  0  0  0  0  0  0  0  0  0  0
  -13.0243  -23.8605   26.7313 H   0  0  0  0  0  0  0  0  0  0  0  0
  -13.2281  -25.0659   28.9322 H   0  0  0  0  0  0  0  0  0  0  0  0
  -11.4236  -22.9744   32.5007 H   0  0  0  0  0  0  0  0  0  0  0  0
   -9.8143  -22.3782   34.2873 H   0  0  0  0  0  0  0  0  0  0  0  0
   -8.7155  -21.5844   33.0714 H   0  0  0  0  0  0  0  0  0  0  0  0
  -10.5545  -20.0035   32.4259 H   0  0  0  0  0  0  0  0  0  0  0  0
  -11.6430  -20.7729   33.6591 H   0  0  0  0  0  0  0  0  0  0  0  0
  1  2  2  0
  2  3  1  0
  3  4  1  0
  4  5  2  0
  5  6  1  0
  6  7  1  0
  7  8  2  0
  8  9  1  0
  9 10  2  0
 10 11  1  0
 11 12  2  0
  2 13  1  0
 13 14  1  0
 14 15  1  0
 15 16  1  0
 16 17  1  0
 17 18  2  0
 18 19  1  0
 19 20  2  0
 20 21  1  0
 21 22  2  0
 16 23  1  0
 23 24  1  0
 24 25  1  0
 12  4  1  0
 22 17  1  0
 25 23  1  0
 11  6  1  0
  3 26  1  0
  3 27  1  0
  5 28  1  0
  7 29  1  0
  8 30  1  0
  9 31  1  0
 10 32  1  0
 13 33  1  0
 14 34  1  0
 14 35  1  0
 15 36  1  0
 15 37  1  0
 19 38  1  0
 20 39  1  0
 21 40  1  0
 23 41  1  0
 24 42  1  0
 24 43  1  0
 25 44  1  0
 25 45  1  0
M  END
>  <Energy>  (1539) 
58.186636298001702

>  <compound_id>  (1539) 
36075

>  <target_id>  (1539) 
1

>  <reference_id>  (1539) 
54

>  <inspiration_ids>  (1539) 
[45, 54]

>  <energy_score>  (1539) 
4.720849593871492

>  <distance_score>  (1539) 
2.9621310351739427

>  <path>  (1539) 
/opt/xchem-fragalysis-2/maxwin/BulkDock/SCRATCH/511013/C36075-P54/C36075-P54.minimised.mol

>  <scratch_subdir>  (1539) 
/opt/xchem-fragalysis-2/maxwin/BulkDock/SCRATCH/511013/C36075-P54

>  <fragmenstein_runtime>  (1539) 
12.458146810531616

>  <fragmenstein_outcome>  (1539) 
too moved

>  <fragmenstein_mode>  (1539) 
expansion

>  <fragmenstein_error>  (1539) 


$$$$
C36076-P45
     RDKit          3D

 47 50  0  0  0  0  0  0  0  0999 V2000
   -8.4745  -25.5511   31.8630 C   0  0  0  0  0  0  0  0  0  0  0  0
   -9.4272  -24.9855   30.8687 N   0  0  0  0  0  0  0  0  0  0  0  0
   -9.9041  -26.0195   29.9935 C   0  0  0  0  0  0  0  0  0  0  0  0
  -10.8693  -26.7400   30.0841 O   0  0  0  0  0  0  0  0  0  0  0  0
   -9.1080  -26.1523   28.6861 C   0  0  0  0  0  0  0  0  0  0  0  0
   -9.2486  -27.3379   28.0383 C   0  0  0  0  0  0  0  0  0  0  0  0
   -8.3054  -27.8060   27.0391 C   0  0  0  0  0  0  0  0  0  0  0  0
   -7.2703  -27.0153   26.7316 C   0  0  0  0  0  0  0  0  0  0  0  0
   -7.2241  -25.7268   27.2474 N   0  0  0  0  0  0  0  0  0  0  0  0
   -6.2911  -24.7472   27.0293 C   0  0  0  0  0  0  0  0  0  0  0  0
   -6.7389  -23.6560   27.7250 C   0  0  0  0  0  0  0  0  0  0  0  0
   -7.8754  -23.9595   28.4225 N   0  0  0  0  0  0  0  0  0  0  0  0
   -8.1441  -25.2230   28.1734 C   0  0  0  0  0  0  0  0  0  0  0  0
  -10.0509  -24.3742   32.1525 C   0  0  0  0  0  0  0  0  0  0  0  0
  -11.1858  -23.3436   31.6610 C   0  0  0  0  0  0  0  0  0  0  0  0
  -11.6427  -23.6325   30.3061 N   0  0  0  0  0  0  0  0  0  0  0  0
  -11.4056  -22.9559   29.0793 C   0  0  0  0  0  0  0  0  0  0  0  0
  -10.8403  -21.9323   28.8528 O   0  0  0  0  0  0  0  0  0  0  0  0
  -11.9007  -23.7953   27.9046 C   0  0  0  0  0  0  0  0  0  0  0  0
  -11.6987  -23.3358   26.6678 N   0  0  0  0  0  0  0  0  0  0  0  0
  -11.8007  -24.2290   25.6714 C   0  0  0  0  0  0  0  0  0  0  0  0
  -12.0288  -25.5697   25.8691 C   0  0  0  0  0  0  0  0  0  0  0  0
  -12.2174  -25.9510   27.1718 C   0  0  0  0  0  0  0  0  0  0  0  0
  -12.2056  -25.0855   28.1975 N   0  0  0  0  0  0  0  0  0  0  0  0
  -10.5762  -25.3737   33.1460 C   0  0  0  0  0  0  0  0  0  0  0  0
  -10.0936  -25.6484   34.5222 C   0  0  0  0  0  0  0  0  0  0  0  0
  -11.3164  -24.8258   34.3257 C   0  0  0  0  0  0  0  0  0  0  0  0
   -8.1532  -25.0646   32.7939 H   0  0  0  0  0  0  0  0  0  0  0  0
   -7.5437  -25.4645   31.3456 H   0  0  0  0  0  0  0  0  0  0  0  0
   -8.6548  -26.6177   31.9998 H   0  0  0  0  0  0  0  0  0  0  0  0
   -9.9971  -28.0589   28.3462 H   0  0  0  0  0  0  0  0  0  0  0  0
   -8.3899  -28.8173   26.6514 H   0  0  0  0  0  0  0  0  0  0  0  0
   -6.4652  -27.3299   26.0814 H   0  0  0  0  0  0  0  0  0  0  0  0
   -5.4245  -24.9053   26.4069 H   0  0  0  0  0  0  0  0  0  0  0  0
   -6.2932  -22.6728   27.7791 H   0  0  0  0  0  0  0  0  0  0  0  0
   -9.3745  -23.6994   32.6943 H   0  0  0  0  0  0  0  0  0  0  0  0
  -11.9204  -23.1637   32.4301 H   0  0  0  0  0  0  0  0  0  0  0  0
  -10.8138  -22.3284   31.5677 H   0  0  0  0  0  0  0  0  0  0  0  0
  -12.2339  -24.4412   30.1270 H   0  0  0  0  0  0  0  0  0  0  0  0
  -11.6630  -23.8160   24.6766 H   0  0  0  0  0  0  0  0  0  0  0  0
  -12.0693  -26.2772   25.0567 H   0  0  0  0  0  0  0  0  0  0  0  0
  -12.4033  -26.9865   27.4427 H   0  0  0  0  0  0  0  0  0  0  0  0
  -10.6746  -26.3602   32.7168 H   0  0  0  0  0  0  0  0  0  0  0  0
   -9.0894  -25.3219   34.7245 H   0  0  0  0  0  0  0  0  0  0  0  0
  -10.3247  -26.6443   34.8608 H   0  0  0  0  0  0  0  0  0  0  0  0
  -11.3449  -23.7585   34.4849 H   0  0  0  0  0  0  0  0  0  0  0  0
  -12.2660  -25.2660   34.5891 H   0  0  0  0  0  0  0  0  0  0  0  0
  1  2  1  0
  2  3  1  0
  3  4  2  0
  3  5  1  0
  5  6  2  0
  6  7  1  0
  7  8  2  0
  8  9  1  0
  9 10  1  0
 10 11  2  0
 11 12  1  0
 12 13  2  0
  2 14  1  0
 14 15  1  0
 15 16  1  0
 16 17  1  0
 17 18  2  0
 17 19  1  0
 19 20  2  0
 20 21  1  0
 21 22  2  0
 22 23  1  0
 23 24  2  0
 14 25  1  0
 25 26  1  0
 26 27  1  0
 13  5  1  0
 24 19  1  0
 27 25  1  0
 13  9  1  0
  1 28  1  0
  1 29  1  0
  1 30  1  0
  6 31  1  0
  7 32  1  0
  8 33  1  0
 10 34  1  0
 11 35  1  0
 14 36  1  0
 15 37  1  0
 15 38  1  0
 16 39  1  0
 21 40  1  0
 22 41  1  0
 23 42  1  0
 25 43  1  0
 26 44  1  0
 26 45  1  0
 27 46  1  0
 27 47  1  0
M  END
>  <Energy>  (1540) 
232.26534285908343

>  <compound_id>  (1540) 
36076

>  <target_id>  (1540) 
1

>  <reference_id>  (1540) 
45

>  <inspiration_ids>  (1540) 
[45, 54]

>  <energy_score>  (1540) 
62.979117625765525

>  <distance_score>  (1540) 
2.3971952143064494

>  <path>  (1540) 
/opt/xchem-fragalysis-2/maxwin/BulkDock/SCRATCH/511013/C36076-P45/C36076-P45.minimised.mol

>  <scratch_subdir>  (1540) 
/opt/xchem-fragalysis-2/maxwin/BulkDock/SCRATCH/511013/C36076-P45

>  <fragmenstein_runtime>  (1540) 
15.648304224014282

>  <fragmenstein_outcome>  (1540) 
too moved

>  <fragmenstein_mode>  (1540) 
expansion

>  <fragmenstein_error>  (1540) 


$$$$
C36076-P54
     RDKit          3D

 47 50  0  0  0  0  0  0  0  0999 V2000
  -12.1245  -25.9129   29.7971 C   0  0  0  0  0  0  0  0  0  0  0  0
  -11.4330  -25.6968   28.4932 N   0  0  0  0  0  0  0  0  0  0  0  0
  -12.1683  -26.3335   27.4340 C   0  0  0  0  0  0  0  0  0  0  0  0
  -13.0357  -25.9124   26.7191 O   0  0  0  0  0  0  0  0  0  0  0  0
  -11.7455  -27.7221   27.4067 C   0  0  0  0  0  0  0  0  0  0  0  0
  -12.6109  -28.7007   27.7423 C   0  0  0  0  0  0  0  0  0  0  0  0
  -12.1227  -30.0335   28.0539 C   0  0  0  0  0  0  0  0  0  0  0  0
  -10.7953  -30.2342   28.0623 C   0  0  0  0  0  0  0  0  0  0  0  0
   -9.9428  -29.1807   27.7325 N   0  0  0  0  0  0  0  0  0  0  0  0
   -8.6041  -29.1725   27.5519 C   0  0  0  0  0  0  0  0  0  0  0  0
   -8.2809  -27.9420   27.0460 C   0  0  0  0  0  0  0  0  0  0  0  0
   -9.3834  -27.1689   26.9135 N   0  0  0  0  0  0  0  0  0  0  0  0
  -10.3637  -27.9404   27.3294 C   0  0  0  0  0  0  0  0  0  0  0  0
  -11.4361  -24.2611   28.9703 C   0  0  0  0  0  0  0  0  0  0  0  0
  -12.6818  -23.3695   28.7231 C   0  0  0  0  0  0  0  0  0  0  0  0
  -13.8211  -23.9643   28.0638 N   0  0  0  0  0  0  0  0  0  0  0  0
  -14.8343  -24.8610   28.5533 C   0  0  0  0  0  0  0  0  0  0  0  0
  -15.0391  -25.2834   29.6565 O   0  0  0  0  0  0  0  0  0  0  0  0
  -15.7660  -25.2830   27.4495 C   0  0  0  0  0  0  0  0  0  0  0  0
  -15.9742  -24.3742   26.4649 N   0  0  0  0  0  0  0  0  0  0  0  0
  -16.8911  -24.7330   25.5596 C   0  0  0  0  0  0  0  0  0  0  0  0
  -17.4917  -25.9704   25.5378 C   0  0  0  0  0  0  0  0  0  0  0  0
  -17.1454  -26.8366   26.5509 C   0  0  0  0  0  0  0  0  0  0  0  0
  -16.2957  -26.5212   27.5356 N   0  0  0  0  0  0  0  0  0  0  0  0
  -10.6934  -23.8441   30.2387 C   0  0  0  0  0  0  0  0  0  0  0  0
  -10.0513  -22.4887   30.2753 C   0  0  0  0  0  0  0  0  0  0  0  0
   -9.2007  -23.7275   30.2875 C   0  0  0  0  0  0  0  0  0  0  0  0
  -11.3743  -26.1328   30.5704 H   0  0  0  0  0  0  0  0  0  0  0  0
  -12.6754  -26.8615   29.7412 H   0  0  0  0  0  0  0  0  0  0  0  0
  -12.8783  -25.2314   30.1458 H   0  0  0  0  0  0  0  0  0  0  0  0
  -13.6673  -28.4896   27.8930 H   0  0  0  0  0  0  0  0  0  0  0  0
  -12.8324  -30.8177   28.2946 H   0  0  0  0  0  0  0  0  0  0  0  0
  -10.3516  -31.1979   28.2699 H   0  0  0  0  0  0  0  0  0  0  0  0
   -8.0132  -30.0560   27.6664 H   0  0  0  0  0  0  0  0  0  0  0  0
   -7.2973  -27.5982   26.7649 H   0  0  0  0  0  0  0  0  0  0  0  0
  -10.7674  -23.8834   28.1767 H   0  0  0  0  0  0  0  0  0  0  0  0
  -13.0214  -22.9101   29.6520 H   0  0  0  0  0  0  0  0  0  0  0  0
  -12.3528  -22.5370   28.0877 H   0  0  0  0  0  0  0  0  0  0  0  0
  -13.9028  -23.8931   27.0479 H   0  0  0  0  0  0  0  0  0  0  0  0
  -17.1466  -23.9774   24.8218 H   0  0  0  0  0  0  0  0  0  0  0  0
  -18.2103  -26.2411   24.7757 H   0  0  0  0  0  0  0  0  0  0  0  0
  -17.5783  -27.8309   26.6088 H   0  0  0  0  0  0  0  0  0  0  0  0
  -11.2213  -24.0762   31.1567 H   0  0  0  0  0  0  0  0  0  0  0  0
  -10.1370  -21.9193   31.1949 H   0  0  0  0  0  0  0  0  0  0  0  0
  -10.0827  -21.8868   29.3744 H   0  0  0  0  0  0  0  0  0  0  0  0
   -8.7325  -24.0064   31.2225 H   0  0  0  0  0  0  0  0  0  0  0  0
   -8.6305  -23.9728   29.3993 H   0  0  0  0  0  0  0  0  0  0  0  0
  1  2  1  0
  2  3  1  0
  3  4  2  0
  3  5  1  0
  5  6  2  0
  6  7  1  0
  7  8  2  0
  8  9  1  0
  9 10  1  0
 10 11  2  0
 11 12  1  0
 12 13  2  0
  2 14  1  0
 14 15  1  0
 15 16  1  0
 16 17  1  0
 17 18  2  0
 17 19  1  0
 19 20  2  0
 20 21  1  0
 21 22  2  0
 22 23  1  0
 23 24  2  0
 14 25  1  0
 25 26  1  0
 26 27  1  0
 13  5  1  0
 24 19  1  0
 27 25  1  0
 13  9  1  0
  1 28  1  0
  1 29  1  0
  1 30  1  0
  6 31  1  0
  7 32  1  0
  8 33  1  0
 10 34  1  0
 11 35  1  0
 14 36  1  0
 15 37  1  0
 15 38  1  0
 16 39  1  0
 21 40  1  0
 22 41  1  0
 23 42  1  0
 25 43  1  0
 26 44  1  0
 26 45  1  0
 27 46  1  0
 27 47  1  0
M  END
>  <Energy>  (1541) 
218.59894291045737

>  <compound_id>  (1541) 
36076

>  <target_id>  (1541) 
1

>  <reference_id>  (1541) 
54

>  <inspiration_ids>  (1541) 
[45, 54]

>  <energy_score>  (1541) 
49.312717677149806

>  <distance_score>  (1541) 
5.628767838304915

>  <path>  (1541) 
/opt/xchem-fragalysis-2/maxwin/BulkDock/SCRATCH/511013/C36076-P54/C36076-P54.minimised.mol

>  <scratch_subdir>  (1541) 
/opt/xchem-fragalysis-2/maxwin/BulkDock/SCRATCH/511013/C36076-P54

>  <fragmenstein_runtime>  (1541) 
14.616051197052002

>  <fragmenstein_outcome>  (1541) 
too moved

>  <fragmenstein_mode>  (1541) 
expansion

>  <fragmenstein_error>  (1541) 


$$$$
C36078-P45
     RDKit          3D

 47 50  0  0  0  0  0  0  0  0999 V2000
   -9.4101  -25.9631   31.0770 C   0  0  0  0  0  0  0  0  0  0  0  0
   -9.5562  -25.7059   29.6698 N   0  0  0  0  0  0  0  0  0  0  0  0
   -8.6595  -25.0987   28.7305 C   0  0  0  0  0  0  0  0  0  0  0  0
   -7.5975  -24.5681   28.8962 O   0  0  0  0  0  0  0  0  0  0  0  0
   -9.1616  -25.3005   27.4158 C   0  0  0  0  0  0  0  0  0  0  0  0
  -10.3140  -25.0252   26.7246 C   0  0  0  0  0  0  0  0  0  0  0  0
  -10.8275  -26.2119   26.2188 N   0  0  0  0  0  0  0  0  0  0  0  0
   -9.9075  -27.1194   26.5055 C   0  0  0  0  0  0  0  0  0  0  0  0
   -9.8366  -28.5318   26.4383 C   0  0  0  0  0  0  0  0  0  0  0  0
   -8.6397  -29.1496   26.4170 C   0  0  0  0  0  0  0  0  0  0  0  0
   -7.4021  -28.3985   26.5386 C   0  0  0  0  0  0  0  0  0  0  0  0
   -7.4791  -27.0948   26.8459 C   0  0  0  0  0  0  0  0  0  0  0  0
   -8.7347  -26.4865   26.8647 N   0  0  0  0  0  0  0  0  0  0  0  0
  -10.5905  -24.6350   30.2039 C   0  0  0  0  0  0  0  0  0  0  0  0
  -11.9540  -24.5567   29.4498 C   0  0  0  0  0  0  0  0  0  0  0  0
  -12.3922  -25.6843   28.6962 N   0  0  0  0  0  0  0  0  0  0  0  0
  -12.3566  -27.0846   28.9906 C   0  0  0  0  0  0  0  0  0  0  0  0
  -11.8769  -27.6788   29.9131 O   0  0  0  0  0  0  0  0  0  0  0  0
  -13.1717  -27.8159   27.9416 C   0  0  0  0  0  0  0  0  0  0  0  0
  -13.8768  -27.0124   27.0839 N   0  0  0  0  0  0  0  0  0  0  0  0
  -14.6925  -27.6634   26.2395 C   0  0  0  0  0  0  0  0  0  0  0  0
  -14.8526  -29.0281   26.2495 C   0  0  0  0  0  0  0  0  0  0  0  0
  -14.0939  -29.7303   27.1610 C   0  0  0  0  0  0  0  0  0  0  0  0
  -13.2330  -29.1561   28.0124 N   0  0  0  0  0  0  0  0  0  0  0  0
  -10.6154  -23.8051   31.6317 C   0  0  0  0  0  0  0  0  0  0  0  0
  -11.0935  -24.0978   33.0715 C   0  0  0  0  0  0  0  0  0  0  0  0
   -9.6513  -23.9951   32.8448 C   0  0  0  0  0  0  0  0  0  0  0  0
   -9.1114  -27.0224   31.0810 H   0  0  0  0  0  0  0  0  0  0  0  0
   -8.5138  -25.4720   31.4563 H   0  0  0  0  0  0  0  0  0  0  0  0
  -10.2549  -26.1488   31.7307 H   0  0  0  0  0  0  0  0  0  0  0  0
  -10.9290  -24.1362   26.7499 H   0  0  0  0  0  0  0  0  0  0  0  0
  -10.7528  -29.0898   26.4601 H   0  0  0  0  0  0  0  0  0  0  0  0
   -8.5689  -30.2331   26.3799 H   0  0  0  0  0  0  0  0  0  0  0  0
   -6.4573  -28.9154   26.4406 H   0  0  0  0  0  0  0  0  0  0  0  0
   -6.6136  -26.4740   27.0409 H   0  0  0  0  0  0  0  0  0  0  0  0
  -10.2240  -23.8072   29.6026 H   0  0  0  0  0  0  0  0  0  0  0  0
  -11.9304  -23.7254   28.7299 H   0  0  0  0  0  0  0  0  0  0  0  0
  -12.7585  -24.2551   30.1164 H   0  0  0  0  0  0  0  0  0  0  0  0
  -12.8114  -25.5501   27.7855 H   0  0  0  0  0  0  0  0  0  0  0  0
  -15.2503  -27.0431   25.5422 H   0  0  0  0  0  0  0  0  0  0  0  0
  -15.5374  -29.5282   25.5768 H   0  0  0  0  0  0  0  0  0  0  0  0
  -14.1640  -30.8133   27.2316 H   0  0  0  0  0  0  0  0  0  0  0  0
  -10.9565  -22.7969   31.3740 H   0  0  0  0  0  0  0  0  0  0  0  0
  -11.5812  -23.2931   33.6184 H   0  0  0  0  0  0  0  0  0  0  0  0
  -11.3469  -25.0583   33.5031 H   0  0  0  0  0  0  0  0  0  0  0  0
   -9.1309  -24.8929   33.1695 H   0  0  0  0  0  0  0  0  0  0  0  0
   -9.1232  -23.1650   33.2650 H   0  0  0  0  0  0  0  0  0  0  0  0
  1  2  1  0
  2  3  1  0
  3  4  2  0
  3  5  1  0
  5  6  2  0
  6  7  1  0
  7  8  2  0
  8  9  1  0
  9 10  2  0
 10 11  1  0
 11 12  2  0
 12 13  1  0
  2 14  1  0
 14 15  1  0
 15 16  1  0
 16 17  1  0
 17 18  2  0
 17 19  1  0
 19 20  2  0
 20 21  1  0
 21 22  2  0
 22 23  1  0
 23 24  2  0
 14 25  1  0
 25 26  1  0
 26 27  1  0
 13  5  1  0
 24 19  1  0
 27 25  1  0
 13  8  1  0
  1 28  1  0
  1 29  1  0
  1 30  1  0
  6 31  1  0
  9 32  1  0
 10 33  1  0
 11 34  1  0
 12 35  1  0
 14 36  1  0
 15 37  1  0
 15 38  1  0
 16 39  1  0
 21 40  1  0
 22 41  1  0
 23 42  1  0
 25 43  1  0
 26 44  1  0
 26 45  1  0
 27 46  1  0
 27 47  1  0
M  END
>  <Energy>  (1542) 
253.71536769176882

>  <compound_id>  (1542) 
36078

>  <target_id>  (1542) 
1

>  <reference_id>  (1542) 
45

>  <inspiration_ids>  (1542) 
[45, 54]

>  <energy_score>  (1542) 
132.89336213904767

>  <distance_score>  (1542) 
4.54334756786762

>  <path>  (1542) 
/opt/xchem-fragalysis-2/maxwin/BulkDock/SCRATCH/511013/C36078-P45/C36078-P45.minimised.mol

>  <scratch_subdir>  (1542) 
/opt/xchem-fragalysis-2/maxwin/BulkDock/SCRATCH/511013/C36078-P45

>  <fragmenstein_runtime>  (1542) 
14.704059362411499

>  <fragmenstein_outcome>  (1542) 
too moved

>  <fragmenstein_mode>  (1542) 
expansion

>  <fragmenstein_error>  (1542) 


$$$$
C36078-P54
     RDKit          3D

 47 50  0  0  0  0  0  0  0  0999 V2000
   -9.2017  -24.0660   31.9402 C   0  0  0  0  0  0  0  0  0  0  0  0
   -9.6350  -23.9063   30.5555 N   0  0  0  0  0  0  0  0  0  0  0  0
   -8.9028  -23.5977   29.3948 C   0  0  0  0  0  0  0  0  0  0  0  0
   -7.7593  -23.2997   29.2600 O   0  0  0  0  0  0  0  0  0  0  0  0
   -9.7149  -23.6978   28.2088 C   0  0  0  0  0  0  0  0  0  0  0  0
  -10.3906  -22.7019   27.5323 C   0  0  0  0  0  0  0  0  0  0  0  0
  -11.3293  -23.2270   26.6844 N   0  0  0  0  0  0  0  0  0  0  0  0
  -11.1279  -24.5219   26.7428 C   0  0  0  0  0  0  0  0  0  0  0  0
  -11.8414  -25.6140   26.1983 C   0  0  0  0  0  0  0  0  0  0  0  0
  -11.3012  -26.8406   26.2140 C   0  0  0  0  0  0  0  0  0  0  0  0
   -9.9657  -27.0675   26.7233 C   0  0  0  0  0  0  0  0  0  0  0  0
   -9.3553  -26.0505   27.3484 C   0  0  0  0  0  0  0  0  0  0  0  0
   -9.9934  -24.8249   27.4743 N   0  0  0  0  0  0  0  0  0  0  0  0
  -10.2954  -22.5868   31.1485 C   0  0  0  0  0  0  0  0  0  0  0  0
  -11.6358  -22.3097   30.3760 C   0  0  0  0  0  0  0  0  0  0  0  0
  -12.2738  -23.3935   29.6494 N   0  0  0  0  0  0  0  0  0  0  0  0
  -12.3726  -24.8038   29.9446 C   0  0  0  0  0  0  0  0  0  0  0  0
  -11.8853  -25.4564   30.8259 O   0  0  0  0  0  0  0  0  0  0  0  0
  -13.3435  -25.4792   29.0005 C   0  0  0  0  0  0  0  0  0  0  0  0
  -14.1353  -24.6326   28.2977 N   0  0  0  0  0  0  0  0  0  0  0  0
  -15.1126  -25.2079   27.5828 C   0  0  0  0  0  0  0  0  0  0  0  0
  -15.3065  -26.5683   27.5364 C   0  0  0  0  0  0  0  0  0  0  0  0
  -14.4430  -27.3322   28.2916 C   0  0  0  0  0  0  0  0  0  0  0  0
  -13.4571  -26.8190   29.0436 N   0  0  0  0  0  0  0  0  0  0  0  0
  -10.5664  -22.1803   32.6013 C   0  0  0  0  0  0  0  0  0  0  0  0
  -10.7587  -20.7306   32.9964 C   0  0  0  0  0  0  0  0  0  0  0  0
   -9.5546  -21.4864   33.4722 C   0  0  0  0  0  0  0  0  0  0  0  0
   -8.5830  -24.9653   31.8966 H   0  0  0  0  0  0  0  0  0  0  0  0
   -9.9673  -24.4052   32.6391 H   0  0  0  0  0  0  0  0  0  0  0  0
   -8.4480  -23.3448   32.2782 H   0  0  0  0  0  0  0  0  0  0  0  0
  -10.3520  -21.6379   27.7209 H   0  0  0  0  0  0  0  0  0  0  0  0
  -12.8288  -25.4382   25.7925 H   0  0  0  0  0  0  0  0  0  0  0  0
  -11.8848  -27.6530   25.8152 H   0  0  0  0  0  0  0  0  0  0  0  0
   -9.4734  -28.0231   26.5842 H   0  0  0  0  0  0  0  0  0  0  0  0
   -8.3404  -26.1050   27.7076 H   0  0  0  0  0  0  0  0  0  0  0  0
   -9.6261  -21.8067   30.7919 H   0  0  0  0  0  0  0  0  0  0  0  0
  -11.4560  -21.5155   29.6436 H   0  0  0  0  0  0  0  0  0  0  0  0
  -12.3944  -21.8716   31.0255 H   0  0  0  0  0  0  0  0  0  0  0  0
  -12.7556  -23.2032   28.7699 H   0  0  0  0  0  0  0  0  0  0  0  0
  -15.7615  -24.5247   27.0413 H   0  0  0  0  0  0  0  0  0  0  0  0
  -16.1058  -27.0112   26.9574 H   0  0  0  0  0  0  0  0  0  0  0  0
  -14.5347  -28.4143   28.3247 H   0  0  0  0  0  0  0  0  0  0  0  0
  -11.2487  -22.8475   33.0780 H   0  0  0  0  0  0  0  0  0  0  0  0
  -11.5338  -20.5050   33.7227 H   0  0  0  0  0  0  0  0  0  0  0  0
  -10.6174  -19.9510   32.2579 H   0  0  0  0  0  0  0  0  0  0  0  0
   -8.5939  -21.2011   33.0621 H   0  0  0  0  0  0  0  0  0  0  0  0
   -9.5209  -21.8299   34.4993 H   0  0  0  0  0  0  0  0  0  0  0  0
  1  2  1  0
  2  3  1  0
  3  4  2  0
  3  5  1  0
  5  6  2  0
  6  7  1  0
  7  8  2  0
  8  9  1  0
  9 10  2  0
 10 11  1  0
 11 12  2  0
 12 13  1  0
  2 14  1  0
 14 15  1  0
 15 16  1  0
 16 17  1  0
 17 18  2  0
 17 19  1  0
 19 20  2  0
 20 21  1  0
 21 22  2  0
 22 23  1  0
 23 24  2  0
 14 25  1  0
 25 26  1  0
 26 27  1  0
 13  5  1  0
 24 19  1  0
 27 25  1  0
 13  8  1  0
  1 28  1  0
  1 29  1  0
  1 30  1  0
  6 31  1  0
  9 32  1  0
 10 33  1  0
 11 34  1  0
 12 35  1  0
 14 36  1  0
 15 37  1  0
 15 38  1  0
 16 39  1  0
 21 40  1  0
 22 41  1  0
 23 42  1  0
 25 43  1  0
 26 44  1  0
 26 45  1  0
 27 46  1  0
 27 47  1  0
M  END
>  <Energy>  (1543) 
198.61679798677682

>  <compound_id>  (1543) 
36078

>  <target_id>  (1543) 
1

>  <reference_id>  (1543) 
54

>  <inspiration_ids>  (1543) 
[45, 54]

>  <energy_score>  (1543) 
77.7947924340657

>  <distance_score>  (1543) 
3.9534709489652067

>  <path>  (1543) 
/opt/xchem-fragalysis-2/maxwin/BulkDock/SCRATCH/511013/C36078-P54/C36078-P54.minimised.mol

>  <scratch_subdir>  (1543) 
/opt/xchem-fragalysis-2/maxwin/BulkDock/SCRATCH/511013/C36078-P54

>  <fragmenstein_runtime>  (1543) 
15.341975450515747

>  <fragmenstein_outcome>  (1543) 
too moved

>  <fragmenstein_mode>  (1543) 
expansion

>  <fragmenstein_error>  (1543) 


$$$$
C36071-P45
     RDKit          3D

 47 50  0  0  0  0  0  0  0  0999 V2000
   -8.4558  -24.9531   32.6713 C   0  0  0  0  0  0  0  0  0  0  0  0
   -9.8170  -25.1909   32.0506 C   0  0  0  0  0  0  0  0  0  0  0  0
  -10.7243  -23.9267   31.6501 C   0  0  0  0  0  0  0  0  0  0  0  0
  -11.1129  -23.8067   30.2094 N   0  0  0  0  0  0  0  0  0  0  0  0
  -11.8515  -24.7088   29.3447 C   0  0  0  0  0  0  0  0  0  0  0  0
  -12.4064  -25.7412   29.5840 O   0  0  0  0  0  0  0  0  0  0  0  0
  -11.8551  -24.3854   27.9240 C   0  0  0  0  0  0  0  0  0  0  0  0
  -11.6570  -23.1112   27.6386 N   0  0  0  0  0  0  0  0  0  0  0  0
  -11.7919  -22.8879   26.3391 C   0  0  0  0  0  0  0  0  0  0  0  0
  -12.0066  -23.8195   25.3433 C   0  0  0  0  0  0  0  0  0  0  0  0
  -12.1183  -25.1067   25.7630 C   0  0  0  0  0  0  0  0  0  0  0  0
  -12.0837  -25.4163   27.0563 N   0  0  0  0  0  0  0  0  0  0  0  0
   -9.5260  -25.7919   30.7453 N   0  0  0  0  0  0  0  0  0  0  0  0
  -10.0586  -26.9611   30.1018 C   0  0  0  0  0  0  0  0  0  0  0  0
  -10.8219  -27.7950   30.5007 O   0  0  0  0  0  0  0  0  0  0  0  0
   -9.5539  -27.0066   28.6266 C   0  0  0  0  0  0  0  0  0  0  0  0
   -9.8423  -28.0751   27.8475 C   0  0  0  0  0  0  0  0  0  0  0  0
   -8.9245  -28.4956   26.7906 C   0  0  0  0  0  0  0  0  0  0  0  0
   -7.8313  -27.7537   26.5480 C   0  0  0  0  0  0  0  0  0  0  0  0
   -7.7187  -26.5092   27.1495 N   0  0  0  0  0  0  0  0  0  0  0  0
   -6.7807  -25.5198   26.9912 C   0  0  0  0  0  0  0  0  0  0  0  0
   -7.2414  -24.4457   27.7127 C   0  0  0  0  0  0  0  0  0  0  0  0
   -8.3558  -24.7937   28.4315 N   0  0  0  0  0  0  0  0  0  0  0  0
   -8.6141  -26.0501   28.1031 C   0  0  0  0  0  0  0  0  0  0  0  0
  -10.4865  -25.9323   33.1636 C   0  0  0  0  0  0  0  0  0  0  0  0
  -10.1776  -25.8954   34.6348 C   0  0  0  0  0  0  0  0  0  0  0  0
  -11.2640  -25.0499   34.1791 C   0  0  0  0  0  0  0  0  0  0  0  0
   -8.4700  -24.0634   33.2996 H   0  0  0  0  0  0  0  0  0  0  0  0
   -7.6569  -25.0115   31.9572 H   0  0  0  0  0  0  0  0  0  0  0  0
   -8.1240  -25.7804   33.3044 H   0  0  0  0  0  0  0  0  0  0  0  0
  -10.3701  -23.0006   32.0564 H   0  0  0  0  0  0  0  0  0  0  0  0
  -11.6511  -23.9159   32.1804 H   0  0  0  0  0  0  0  0  0  0  0  0
  -10.8492  -22.9804   29.6789 H   0  0  0  0  0  0  0  0  0  0  0  0
  -11.7087  -21.8384   26.0934 H   0  0  0  0  0  0  0  0  0  0  0  0
  -12.0791  -23.5125   24.3119 H   0  0  0  0  0  0  0  0  0  0  0  0
  -12.2817  -25.9303   25.0804 H   0  0  0  0  0  0  0  0  0  0  0  0
   -8.9707  -25.2690   30.0754 H   0  0  0  0  0  0  0  0  0  0  0  0
  -10.6013  -28.7950   28.1429 H   0  0  0  0  0  0  0  0  0  0  0  0
   -9.0663  -29.4691   26.3298 H   0  0  0  0  0  0  0  0  0  0  0  0
   -7.0495  -28.0617   25.8678 H   0  0  0  0  0  0  0  0  0  0  0  0
   -5.8984  -25.6561   26.3862 H   0  0  0  0  0  0  0  0  0  0  0  0
   -6.7968  -23.4616   27.7970 H   0  0  0  0  0  0  0  0  0  0  0  0
  -10.6657  -26.9626   32.8929 H   0  0  0  0  0  0  0  0  0  0  0  0
   -9.2429  -25.4943   34.9713 H   0  0  0  0  0  0  0  0  0  0  0  0
  -10.5534  -26.7434   35.1710 H   0  0  0  0  0  0  0  0  0  0  0  0
  -11.1503  -23.9764   34.2018 H   0  0  0  0  0  0  0  0  0  0  0  0
  -12.2507  -25.3198   34.5236 H   0  0  0  0  0  0  0  0  0  0  0  0
  1  2  1  0
  2  3  1  0
  3  4  1  0
  4  5  1  0
  5  6  2  0
  5  7  1  0
  7  8  2  0
  8  9  1  0
  9 10  2  0
 10 11  1  0
 11 12  2  0
  2 13  1  0
 13 14  1  0
 14 15  2  0
 14 16  1  0
 16 17  2  0
 17 18  1  0
 18 19  2  0
 19 20  1  0
 20 21  1  0
 21 22  2  0
 22 23  1  0
 23 24  2  0
  2 25  1  0
 25 26  1  0
 26 27  1  0
 12  7  1  0
 24 16  1  0
 27 25  1  0
 24 20  1  0
  1 28  1  0
  1 29  1  0
  1 30  1  0
  3 31  1  0
  3 32  1  0
  4 33  1  0
  9 34  1  0
 10 35  1  0
 11 36  1  0
 13 37  1  0
 17 38  1  0
 18 39  1  0
 19 40  1  0
 21 41  1  0
 22 42  1  0
 25 43  1  0
 26 44  1  0
 26 45  1  0
 27 46  1  0
 27 47  1  0
M  END
>  <Energy>  (1544) 
183.69224538641845

>  <compound_id>  (1544) 
36071

>  <target_id>  (1544) 
1

>  <reference_id>  (1544) 
45

>  <inspiration_ids>  (1544) 
[45, 54]

>  <energy_score>  (1544) 
-0.8991469691866314

>  <distance_score>  (1544) 
2.4915888719362527

>  <path>  (1544) 
/opt/xchem-fragalysis-2/maxwin/BulkDock/SCRATCH/511013/C36071-P45/C36071-P45.minimised.mol

>  <scratch_subdir>  (1544) 
/opt/xchem-fragalysis-2/maxwin/BulkDock/SCRATCH/511013/C36071-P45

>  <fragmenstein_runtime>  (1544) 
12.978688716888428

>  <fragmenstein_outcome>  (1544) 
too moved

>  <fragmenstein_mode>  (1544) 
expansion

>  <fragmenstein_error>  (1544) 


$$$$
C36071-P54
     RDKit          3D

 47 50  0  0  0  0  0  0  0  0999 V2000
   -8.9602  -23.9972   29.9119 C   0  0  0  0  0  0  0  0  0  0  0  0
  -10.2943  -23.8051   29.1782 C   0  0  0  0  0  0  0  0  0  0  0  0
  -10.0691  -22.8873   27.9658 C   0  0  0  0  0  0  0  0  0  0  0  0
  -11.0621  -22.9118   26.9198 N   0  0  0  0  0  0  0  0  0  0  0  0
  -12.4442  -23.2947   26.9415 C   0  0  0  0  0  0  0  0  0  0  0  0
  -13.1120  -23.7689   27.8176 O   0  0  0  0  0  0  0  0  0  0  0  0
  -13.0779  -22.8958   25.6067 C   0  0  0  0  0  0  0  0  0  0  0  0
  -14.4226  -22.8699   25.5142 N   0  0  0  0  0  0  0  0  0  0  0  0
  -14.9002  -22.0829   24.5323 C   0  0  0  0  0  0  0  0  0  0  0  0
  -14.1124  -21.4636   23.5839 C   0  0  0  0  0  0  0  0  0  0  0  0
  -12.7573  -21.6519   23.7081 C   0  0  0  0  0  0  0  0  0  0  0  0
  -12.2067  -22.3442   24.7161 N   0  0  0  0  0  0  0  0  0  0  0  0
  -10.7733  -25.1091   28.6986 N   0  0  0  0  0  0  0  0  0  0  0  0
  -10.2066  -26.0313   27.7584 C   0  0  0  0  0  0  0  0  0  0  0  0
   -9.1611  -26.0145   27.1820 O   0  0  0  0  0  0  0  0  0  0  0  0
  -11.0807  -27.2196   27.6008 C   0  0  0  0  0  0  0  0  0  0  0  0
  -10.7095  -28.4045   28.1343 C   0  0  0  0  0  0  0  0  0  0  0  0
  -11.6170  -29.5396   28.1630 C   0  0  0  0  0  0  0  0  0  0  0  0
  -12.8409  -29.3920   27.6332 C   0  0  0  0  0  0  0  0  0  0  0  0
  -13.1718  -28.1871   27.0191 N   0  0  0  0  0  0  0  0  0  0  0  0
  -14.3207  -27.8326   26.3697 C   0  0  0  0  0  0  0  0  0  0  0  0
  -14.0970  -26.5635   25.8931 C   0  0  0  0  0  0  0  0  0  0  0  0
  -12.8405  -26.1373   26.2062 N   0  0  0  0  0  0  0  0  0  0  0  0
  -12.3207  -27.0978   26.9361 C   0  0  0  0  0  0  0  0  0  0  0  0
  -11.3050  -23.2444   30.1713 C   0  0  0  0  0  0  0  0  0  0  0  0
  -10.9460  -22.1810   31.1934 C   0  0  0  0  0  0  0  0  0  0  0  0
  -11.8957  -21.8459   30.0898 C   0  0  0  0  0  0  0  0  0  0  0  0
   -9.0950  -24.6025   30.8141 H   0  0  0  0  0  0  0  0  0  0  0  0
   -8.2211  -24.4837   29.2699 H   0  0  0  0  0  0  0  0  0  0  0  0
   -8.5212  -23.0466   30.2228 H   0  0  0  0  0  0  0  0  0  0  0  0
   -9.1632  -23.1959   27.4581 H   0  0  0  0  0  0  0  0  0  0  0  0
   -9.9068  -21.8454   28.2521 H   0  0  0  0  0  0  0  0  0  0  0  0
  -10.8562  -22.4658   26.0278 H   0  0  0  0  0  0  0  0  0  0  0  0
  -15.9800  -21.9553   24.5264 H   0  0  0  0  0  0  0  0  0  0  0  0
  -14.5317  -20.8408   22.8058 H   0  0  0  0  0  0  0  0  0  0  0  0
  -12.0576  -21.2051   23.0065 H   0  0  0  0  0  0  0  0  0  0  0  0
  -11.7192  -25.4010   28.9194 H   0  0  0  0  0  0  0  0  0  0  0  0
   -9.7410  -28.5497   28.5968 H   0  0  0  0  0  0  0  0  0  0  0  0
  -11.3042  -30.4685   28.6239 H   0  0  0  0  0  0  0  0  0  0  0  0
  -13.5852  -30.1782   27.6289 H   0  0  0  0  0  0  0  0  0  0  0  0
  -15.1793  -28.4847   26.3088 H   0  0  0  0  0  0  0  0  0  0  0  0
  -14.7825  -25.9374   25.3394 H   0  0  0  0  0  0  0  0  0  0  0  0
  -11.9314  -24.0345   30.5597 H   0  0  0  0  0  0  0  0  0  0  0  0
  -11.3497  -22.2695   32.1953 H   0  0  0  0  0  0  0  0  0  0  0  0
   -9.9729  -21.7174   31.1793 H   0  0  0  0  0  0  0  0  0  0  0  0
  -12.9402  -21.7249   30.3424 H   0  0  0  0  0  0  0  0  0  0  0  0
  -11.5638  -21.1294   29.3505 H   0  0  0  0  0  0  0  0  0  0  0  0
  1  2  1  0
  2  3  1  0
  3  4  1  0
  4  5  1  0
  5  6  2  0
  5  7  1  0
  7  8  2  0
  8  9  1  0
  9 10  2  0
 10 11  1  0
 11 12  2  0
  2 13  1  0
 13 14  1  0
 14 15  2  0
 14 16  1  0
 16 17  2  0
 17 18  1  0
 18 19  2  0
 19 20  1  0
 20 21  1  0
 21 22  2  0
 22 23  1  0
 23 24  2  0
  2 25  1  0
 25 26  1  0
 26 27  1  0
 12  7  1  0
 24 16  1  0
 27 25  1  0
 24 20  1  0
  1 28  1  0
  1 29  1  0
  1 30  1  0
  3 31  1  0
  3 32  1  0
  4 33  1  0
  9 34  1  0
 10 35  1  0
 11 36  1  0
 13 37  1  0
 17 38  1  0
 18 39  1  0
 19 40  1  0
 21 41  1  0
 22 42  1  0
 25 43  1  0
 26 44  1  0
 26 45  1  0
 27 46  1  0
 27 47  1  0
M  END
>  <Energy>  (1545) 
126.19179187032682

>  <compound_id>  (1545) 
36071

>  <target_id>  (1545) 
1

>  <reference_id>  (1545) 
54

>  <inspiration_ids>  (1545) 
[45, 54]

>  <energy_score>  (1545) 
-58.39960048527712

>  <distance_score>  (1545) 
5.728301374986275

>  <path>  (1545) 
/opt/xchem-fragalysis-2/maxwin/BulkDock/SCRATCH/511013/C36071-P54/C36071-P54.minimised.mol

>  <scratch_subdir>  (1545) 
/opt/xchem-fragalysis-2/maxwin/BulkDock/SCRATCH/511013/C36071-P54

>  <fragmenstein_runtime>  (1545) 
22.301764011383057

>  <fragmenstein_outcome>  (1545) 
too moved

>  <fragmenstein_mode>  (1545) 
expansion

>  <fragmenstein_error>  (1545) 


$$$$
C36080-P45
     RDKit          3D

 45 48  0  0  0  0  0  0  0  0999 V2000
   -8.6203  -24.8014   30.3723 O   0  0  0  0  0  0  0  0  0  0  0  0
   -9.4434  -25.4529   30.8531 C   0  0  0  0  0  0  0  0  0  0  0  0
   -9.8490  -26.6985   30.0938 C   0  0  0  0  0  0  0  0  0  0  0  0
   -9.2901  -26.6702   28.6593 C   0  0  0  0  0  0  0  0  0  0  0  0
   -8.3680  -25.8521   27.9958 C   0  0  0  0  0  0  0  0  0  0  0  0
   -7.6840  -26.7532   27.2235 N   0  0  0  0  0  0  0  0  0  0  0  0
   -6.3449  -26.7670   26.8551 C   0  0  0  0  0  0  0  0  0  0  0  0
   -5.8509  -27.8937   26.3237 C   0  0  0  0  0  0  0  0  0  0  0  0
   -6.7762  -28.9644   25.9895 C   0  0  0  0  0  0  0  0  0  0  0  0
   -8.0745  -28.9263   26.3230 C   0  0  0  0  0  0  0  0  0  0  0  0
   -8.5372  -27.8328   27.0776 C   0  0  0  0  0  0  0  0  0  0  0  0
   -9.5831  -27.7333   27.8600 N   0  0  0  0  0  0  0  0  0  0  0  0
  -10.2829  -25.2198   32.1019 N   0  0  0  0  0  0  0  0  0  0  0  0
  -10.3564  -24.0819   32.9813 C   0  0  0  0  0  0  0  0  0  0  0  0
  -11.2462  -22.8203   32.5922 C   0  0  0  0  0  0  0  0  0  0  0  0
  -12.0753  -22.8430   31.3899 N   0  0  0  0  0  0  0  0  0  0  0  0
  -11.6683  -23.1962   30.1294 C   0  0  0  0  0  0  0  0  0  0  0  0
  -11.5100  -22.1840   29.2804 N   0  0  0  0  0  0  0  0  0  0  0  0
  -11.4604  -22.5184   27.9747 C   0  0  0  0  0  0  0  0  0  0  0  0
  -11.5915  -23.7832   27.4736 C   0  0  0  0  0  0  0  0  0  0  0  0
  -11.7846  -24.7342   28.4238 C   0  0  0  0  0  0  0  0  0  0  0  0
  -11.8102  -24.4686   29.7449 N   0  0  0  0  0  0  0  0  0  0  0  0
  -12.1525  -22.3968   33.7663 C   0  0  0  0  0  0  0  0  0  0  0  0
  -13.4595  -21.6245   33.6198 C   0  0  0  0  0  0  0  0  0  0  0  0
  -12.2512  -20.9263   34.1441 C   0  0  0  0  0  0  0  0  0  0  0  0
   -9.4519  -27.5566   30.6411 H   0  0  0  0  0  0  0  0  0  0  0  0
  -10.9269  -26.8331   30.0362 H   0  0  0  0  0  0  0  0  0  0  0  0
   -7.9204  -24.9009   28.2453 H   0  0  0  0  0  0  0  0  0  0  0  0
   -5.7379  -25.9018   27.0862 H   0  0  0  0  0  0  0  0  0  0  0  0
   -4.8009  -27.9827   26.0689 H   0  0  0  0  0  0  0  0  0  0  0  0
   -6.4077  -29.7987   25.4079 H   0  0  0  0  0  0  0  0  0  0  0  0
   -8.7478  -29.7391   26.0799 H   0  0  0  0  0  0  0  0  0  0  0  0
  -10.8545  -26.0348   32.2812 H   0  0  0  0  0  0  0  0  0  0  0  0
  -10.7187  -24.5099   33.9191 H   0  0  0  0  0  0  0  0  0  0  0  0
   -9.3283  -23.7537   33.1485 H   0  0  0  0  0  0  0  0  0  0  0  0
  -10.6174  -21.9467   32.5021 H   0  0  0  0  0  0  0  0  0  0  0  0
  -12.3324  -21.8763   31.2083 H   0  0  0  0  0  0  0  0  0  0  0  0
  -11.3426  -21.6977   27.2854 H   0  0  0  0  0  0  0  0  0  0  0  0
  -11.5708  -23.9962   26.4159 H   0  0  0  0  0  0  0  0  0  0  0  0
  -11.9393  -25.7730   28.1501 H   0  0  0  0  0  0  0  0  0  0  0  0
  -12.1724  -23.1476   34.5476 H   0  0  0  0  0  0  0  0  0  0  0  0
  -14.2534  -21.8928   34.3107 H   0  0  0  0  0  0  0  0  0  0  0  0
  -13.8371  -21.3972   32.6346 H   0  0  0  0  0  0  0  0  0  0  0  0
  -12.2309  -20.6624   35.1943 H   0  0  0  0  0  0  0  0  0  0  0  0
  -11.7529  -20.1978   33.5160 H   0  0  0  0  0  0  0  0  0  0  0  0
  1  2  2  0
  2  3  1  0
  3  4  1  0
  4  5  2  0
  5  6  1  0
  6  7  1  0
  7  8  2  0
  8  9  1  0
  9 10  2  0
 10 11  1  0
 11 12  2  0
  2 13  1  0
 13 14  1  0
 14 15  1  0
 15 16  1  0
 16 17  1  0
 17 18  2  0
 18 19  1  0
 19 20  2  0
 20 21  1  0
 21 22  2  0
 15 23  1  0
 23 24  1  0
 24 25  1  0
 12  4  1  0
 22 17  1  0
 25 23  1  0
 11  6  1  0
  3 26  1  0
  3 27  1  0
  5 28  1  0
  7 29  1  0
  8 30  1  0
  9 31  1  0
 10 32  1  0
 13 33  1  0
 14 34  1  0
 14 35  1  0
 15 36  1  0
 16 37  1  0
 19 38  1  0
 20 39  1  0
 21 40  1  0
 23 41  1  0
 24 42  1  0
 24 43  1  0
 25 44  1  0
 25 45  1  0
M  END
>  <Energy>  (1546) 
46.25438834985686

>  <compound_id>  (1546) 
36080

>  <target_id>  (1546) 
1

>  <reference_id>  (1546) 
45

>  <inspiration_ids>  (1546) 
[45, 54]

>  <energy_score>  (1546) 
-0.6436205075857515

>  <distance_score>  (1546) 
2.028037341843978

>  <path>  (1546) 
/opt/xchem-fragalysis-2/maxwin/BulkDock/SCRATCH/511013/C36080-P45/C36080-P45.minimised.mol

>  <scratch_subdir>  (1546) 
/opt/xchem-fragalysis-2/maxwin/BulkDock/SCRATCH/511013/C36080-P45

>  <fragmenstein_runtime>  (1546) 
7.040709018707275

>  <fragmenstein_outcome>  (1546) 
too moved

>  <fragmenstein_mode>  (1546) 
expansion

>  <fragmenstein_error>  (1546) 


$$$$
C36080-P54
     RDKit          3D

 45 48  0  0  0  0  0  0  0  0999 V2000
  -10.3136  -24.9237   31.1346 O   0  0  0  0  0  0  0  0  0  0  0  0
   -9.6533  -24.0349   30.7658 C   0  0  0  0  0  0  0  0  0  0  0  0
   -8.9915  -23.8619   29.3906 C   0  0  0  0  0  0  0  0  0  0  0  0
   -9.3095  -24.8685   28.3655 C   0  0  0  0  0  0  0  0  0  0  0  0
   -8.3657  -25.5899   27.7040 C   0  0  0  0  0  0  0  0  0  0  0  0
   -8.9497  -26.7135   27.2261 N   0  0  0  0  0  0  0  0  0  0  0  0
   -8.2748  -27.8964   27.0174 C   0  0  0  0  0  0  0  0  0  0  0  0
   -8.8565  -29.0160   27.4501 C   0  0  0  0  0  0  0  0  0  0  0  0
  -10.2565  -28.9802   27.8264 C   0  0  0  0  0  0  0  0  0  0  0  0
  -10.9637  -27.8327   27.8035 C   0  0  0  0  0  0  0  0  0  0  0  0
  -10.2724  -26.6091   27.6063 C   0  0  0  0  0  0  0  0  0  0  0  0
  -10.5307  -25.4156   28.1025 N   0  0  0  0  0  0  0  0  0  0  0  0
   -9.2947  -22.6909   31.4606 N   0  0  0  0  0  0  0  0  0  0  0  0
   -9.7527  -22.1312   32.7043 C   0  0  0  0  0  0  0  0  0  0  0  0
  -10.8752  -21.1343   32.2827 C   0  0  0  0  0  0  0  0  0  0  0  0
  -11.8496  -21.8353   31.4750 N   0  0  0  0  0  0  0  0  0  0  0  0
  -11.8011  -21.9765   30.1175 C   0  0  0  0  0  0  0  0  0  0  0  0
  -11.2393  -21.0541   29.3410 N   0  0  0  0  0  0  0  0  0  0  0  0
  -11.2474  -21.3145   28.0192 C   0  0  0  0  0  0  0  0  0  0  0  0
  -11.7291  -22.4639   27.4438 C   0  0  0  0  0  0  0  0  0  0  0  0
  -12.2938  -23.3402   28.3231 C   0  0  0  0  0  0  0  0  0  0  0  0
  -12.3482  -23.1057   29.6430 N   0  0  0  0  0  0  0  0  0  0  0  0
  -11.5384  -20.4396   33.4472 C   0  0  0  0  0  0  0  0  0  0  0  0
  -11.5184  -18.9226   33.5106 C   0  0  0  0  0  0  0  0  0  0  0  0
  -12.8020  -19.6232   33.2471 C   0  0  0  0  0  0  0  0  0  0  0  0
   -7.9133  -23.8392   29.5527 H   0  0  0  0  0  0  0  0  0  0  0  0
   -9.2503  -22.8881   28.9732 H   0  0  0  0  0  0  0  0  0  0  0  0
   -7.3018  -25.5279   27.7989 H   0  0  0  0  0  0  0  0  0  0  0  0
   -7.2384  -27.8316   26.7302 H   0  0  0  0  0  0  0  0  0  0  0  0
   -8.3011  -29.9419   27.4994 H   0  0  0  0  0  0  0  0  0  0  0  0
  -10.7368  -29.9184   28.0858 H   0  0  0  0  0  0  0  0  0  0  0  0
  -12.0083  -27.8007   28.0892 H   0  0  0  0  0  0  0  0  0  0  0  0
   -8.7713  -22.1182   30.8307 H   0  0  0  0  0  0  0  0  0  0  0  0
   -8.9246  -21.6167   33.1988 H   0  0  0  0  0  0  0  0  0  0  0  0
  -10.1367  -22.9322   33.3415 H   0  0  0  0  0  0  0  0  0  0  0  0
  -10.4512  -20.3408   31.6729 H   0  0  0  0  0  0  0  0  0  0  0  0
  -12.0817  -22.7551   31.8310 H   0  0  0  0  0  0  0  0  0  0  0  0
  -10.8605  -20.5121   27.4082 H   0  0  0  0  0  0  0  0  0  0  0  0
  -11.7124  -22.6333   26.3778 H   0  0  0  0  0  0  0  0  0  0  0  0
  -12.7413  -24.2716   27.9931 H   0  0  0  0  0  0  0  0  0  0  0  0
  -11.4664  -20.9961   34.3737 H   0  0  0  0  0  0  0  0  0  0  0  0
  -11.0689  -18.3682   32.6945 H   0  0  0  0  0  0  0  0  0  0  0  0
  -11.4154  -18.4373   34.4707 H   0  0  0  0  0  0  0  0  0  0  0  0
  -13.5441  -19.6655   34.0362 H   0  0  0  0  0  0  0  0  0  0  0  0
  -13.2223  -19.5800   32.2504 H   0  0  0  0  0  0  0  0  0  0  0  0
  1  2  2  0
  2  3  1  0
  3  4  1  0
  4  5  2  0
  5  6  1  0
  6  7  1  0
  7  8  2  0
  8  9  1  0
  9 10  2  0
 10 11  1  0
 11 12  2  0
  2 13  1  0
 13 14  1  0
 14 15  1  0
 15 16  1  0
 16 17  1  0
 17 18  2  0
 18 19  1  0
 19 20  2  0
 20 21  1  0
 21 22  2  0
 15 23  1  0
 23 24  1  0
 24 25  1  0
 12  4  1  0
 22 17  1  0
 25 23  1  0
 11  6  1  0
  3 26  1  0
  3 27  1  0
  5 28  1  0
  7 29  1  0
  8 30  1  0
  9 31  1  0
 10 32  1  0
 13 33  1  0
 14 34  1  0
 14 35  1  0
 15 36  1  0
 16 37  1  0
 19 38  1  0
 20 39  1  0
 21 40  1  0
 23 41  1  0
 24 42  1  0
 24 43  1  0
 25 44  1  0
 25 45  1  0
M  END
>  <Energy>  (1547) 
38.331454071322057

>  <compound_id>  (1547) 
36080

>  <target_id>  (1547) 
1

>  <reference_id>  (1547) 
54

>  <inspiration_ids>  (1547) 
[45, 54]

>  <energy_score>  (1547) 
-8.566554786121202

>  <distance_score>  (1547) 
2.3839682026858635

>  <path>  (1547) 
/opt/xchem-fragalysis-2/maxwin/BulkDock/SCRATCH/511013/C36080-P54/C36080-P54.minimised.mol

>  <scratch_subdir>  (1547) 
/opt/xchem-fragalysis-2/maxwin/BulkDock/SCRATCH/511013/C36080-P54

>  <fragmenstein_runtime>  (1547) 
4.797512054443359

>  <fragmenstein_outcome>  (1547) 
too moved

>  <fragmenstein_mode>  (1547) 
expansion

>  <fragmenstein_error>  (1547) 


$$$$
C36082-P45
     RDKit          3D

 36 38  0  0  0  0  0  0  0  0999 V2000
  -12.3749  -25.9506   25.3021 C   0  0  0  0  0  0  0  0  0  0  0  0
  -12.0546  -26.2974   26.7572 C   0  0  0  0  0  0  0  0  0  0  0  0
  -12.9688  -27.4665   27.1883 C   0  0  0  0  0  0  0  0  0  0  0  0
  -10.5604  -26.7596   26.8476 C   0  0  0  0  0  0  0  0  0  0  0  0
  -10.2603  -27.9093   26.9908 O   0  0  0  0  0  0  0  0  0  0  0  0
   -9.7429  -25.5648   26.8243 N   0  0  0  0  0  0  0  0  0  0  0  0
   -8.4465  -25.3922   27.0429 C   0  0  0  0  0  0  0  0  0  0  0  0
   -8.1152  -24.0894   27.5824 C   0  0  0  0  0  0  0  0  0  0  0  0
   -6.8513  -23.6901   27.7340 C   0  0  0  0  0  0  0  0  0  0  0  0
   -5.8348  -24.6126   27.4504 C   0  0  0  0  0  0  0  0  0  0  0  0
   -4.5464  -24.5111   27.6130 N   0  0  0  0  0  0  0  0  0  0  0  0
   -4.0447  -25.6949   27.1500 C   0  0  0  0  0  0  0  0  0  0  0  0
   -5.0490  -26.5616   26.8853 C   0  0  0  0  0  0  0  0  0  0  0  0
   -5.1023  -28.1608   26.4499 Cl  0  0  0  0  0  0  0  0  0  0  0  0
   -6.2029  -25.8861   27.0346 N   0  0  0  0  0  0  0  0  0  0  0  0
   -7.5048  -26.3040   26.8584 C   0  0  0  0  0  0  0  0  0  0  0  0
  -12.1579  -25.1080   27.7329 C   0  0  0  0  0  0  0  0  0  0  0  0
  -12.1905  -23.7663   27.3700 C   0  0  0  0  0  0  0  0  0  0  0  0
  -11.9631  -22.7466   28.2209 N   0  0  0  0  0  0  0  0  0  0  0  0
  -11.7067  -23.0720   29.4893 C   0  0  0  0  0  0  0  0  0  0  0  0
  -11.5877  -24.3209   29.9545 N   0  0  0  0  0  0  0  0  0  0  0  0
  -11.8220  -25.3020   29.0565 C   0  0  0  0  0  0  0  0  0  0  0  0
  -13.3977  -25.5842   25.1786 H   0  0  0  0  0  0  0  0  0  0  0  0
  -11.6995  -25.1876   24.9035 H   0  0  0  0  0  0  0  0  0  0  0  0
  -12.2755  -26.8420   24.6745 H   0  0  0  0  0  0  0  0  0  0  0  0
  -12.7019  -27.8616   28.1748 H   0  0  0  0  0  0  0  0  0  0  0  0
  -12.8899  -28.3048   26.4878 H   0  0  0  0  0  0  0  0  0  0  0  0
  -14.0227  -27.1789   27.2287 H   0  0  0  0  0  0  0  0  0  0  0  0
  -10.3374  -24.7614   26.7651 H   0  0  0  0  0  0  0  0  0  0  0  0
   -8.9172  -23.4414   27.9162 H   0  0  0  0  0  0  0  0  0  0  0  0
   -6.5866  -22.7174   28.1185 H   0  0  0  0  0  0  0  0  0  0  0  0
   -2.9848  -25.8612   27.0819 H   0  0  0  0  0  0  0  0  0  0  0  0
   -7.6930  -27.3109   26.5071 H   0  0  0  0  0  0  0  0  0  0  0  0
  -12.3596  -23.4431   26.3441 H   0  0  0  0  0  0  0  0  0  0  0  0
  -11.5655  -22.2558   30.1894 H   0  0  0  0  0  0  0  0  0  0  0  0
  -11.6415  -26.3075   29.4331 H   0  0  0  0  0  0  0  0  0  0  0  0
  1  2  1  0
  2  3  1  0
  2  4  1  0
  4  5  2  0
  4  6  1  0
  6  7  1  0
  7  8  1  0
  8  9  2  0
  9 10  1  0
 10 11  2  0
 11 12  1  0
 12 13  2  0
 13 14  1  0
 13 15  1  0
 15 16  1  0
  2 17  1  0
 17 18  2  0
 18 19  1  0
 19 20  2  0
 20 21  1  0
 21 22  2  0
 16  7  2  0
 22 17  1  0
 15 10  1  0
  1 23  1  0
  1 24  1  0
  1 25  1  0
  3 26  1  0
  3 27  1  0
  3 28  1  0
  6 29  1  0
  8 30  1  0
  9 31  1  0
 12 32  1  0
 16 33  1  0
 18 34  1  0
 20 35  1  0
 22 36  1  0
M  END
>  <Energy>  (1548) 
53.291909609119578

>  <compound_id>  (1548) 
36082

>  <target_id>  (1548) 
1

>  <reference_id>  (1548) 
45

>  <inspiration_ids>  (1548) 
[45, 54]

>  <energy_score>  (1548) 
-39.68842452208594

>  <distance_score>  (1548) 
2.761135127108406

>  <path>  (1548) 
/opt/xchem-fragalysis-2/maxwin/BulkDock/SCRATCH/511013/C36082-P45/C36082-P45.minimised.mol

>  <scratch_subdir>  (1548) 
/opt/xchem-fragalysis-2/maxwin/BulkDock/SCRATCH/511013/C36082-P45

>  <fragmenstein_runtime>  (1548) 
7.925343990325928

>  <fragmenstein_outcome>  (1548) 
too moved

>  <fragmenstein_mode>  (1548) 
expansion

>  <fragmenstein_error>  (1548) 


$$$$
C36082-P54
     RDKit          3D

 36 38  0  0  0  0  0  0  0  0999 V2000
  -14.6653  -26.1792   25.7319 C   0  0  0  0  0  0  0  0  0  0  0  0
  -14.5890  -25.6344   27.1556 C   0  0  0  0  0  0  0  0  0  0  0  0
  -16.0192  -25.3566   27.6355 C   0  0  0  0  0  0  0  0  0  0  0  0
  -13.9228  -26.6786   28.1156 C   0  0  0  0  0  0  0  0  0  0  0  0
  -14.4497  -27.2192   29.0073 O   0  0  0  0  0  0  0  0  0  0  0  0
  -12.4346  -26.7111   27.6523 N   0  0  0  0  0  0  0  0  0  0  0  0
  -11.3521  -27.2994   28.2137 C   0  0  0  0  0  0  0  0  0  0  0  0
  -10.2488  -27.3812   27.2592 C   0  0  0  0  0  0  0  0  0  0  0  0
   -9.4183  -26.3420   27.1078 C   0  0  0  0  0  0  0  0  0  0  0  0
   -9.5110  -25.2283   27.9799 C   0  0  0  0  0  0  0  0  0  0  0  0
   -8.8668  -24.0917   28.0173 N   0  0  0  0  0  0  0  0  0  0  0  0
   -8.8916  -23.6854   29.3062 C   0  0  0  0  0  0  0  0  0  0  0  0
   -9.7340  -24.4783   30.0162 C   0  0  0  0  0  0  0  0  0  0  0  0
  -10.0893  -24.4446   31.6608 Cl  0  0  0  0  0  0  0  0  0  0  0  0
  -10.2178  -25.4352   29.1581 N   0  0  0  0  0  0  0  0  0  0  0  0
  -11.0659  -26.5664   29.3268 C   0  0  0  0  0  0  0  0  0  0  0  0
  -13.6968  -24.3688   27.3421 C   0  0  0  0  0  0  0  0  0  0  0  0
  -13.0936  -23.6278   26.3556 C   0  0  0  0  0  0  0  0  0  0  0  0
  -12.0760  -22.7655   26.5797 N   0  0  0  0  0  0  0  0  0  0  0  0
  -11.7102  -22.5482   27.8482 C   0  0  0  0  0  0  0  0  0  0  0  0
  -12.2606  -23.1504   28.9024 N   0  0  0  0  0  0  0  0  0  0  0  0
  -13.2148  -24.0517   28.6091 C   0  0  0  0  0  0  0  0  0  0  0  0
  -13.6824  -26.3525   25.2940 H   0  0  0  0  0  0  0  0  0  0  0  0
  -15.1967  -27.1376   25.7162 H   0  0  0  0  0  0  0  0  0  0  0  0
  -15.2013  -25.4889   25.0757 H   0  0  0  0  0  0  0  0  0  0  0  0
  -16.0476  -25.1128   28.7025 H   0  0  0  0  0  0  0  0  0  0  0  0
  -16.6584  -26.2375   27.5017 H   0  0  0  0  0  0  0  0  0  0  0  0
  -16.4700  -24.5277   27.0788 H   0  0  0  0  0  0  0  0  0  0  0  0
  -12.3366  -26.1894   26.7901 H   0  0  0  0  0  0  0  0  0  0  0  0
  -10.0506  -28.3168   26.7602 H   0  0  0  0  0  0  0  0  0  0  0  0
   -8.5305  -26.4425   26.5287 H   0  0  0  0  0  0  0  0  0  0  0  0
   -8.3011  -22.8655   29.6682 H   0  0  0  0  0  0  0  0  0  0  0  0
  -11.7403  -26.4791   30.1713 H   0  0  0  0  0  0  0  0  0  0  0  0
  -13.3807  -23.7137   25.3127 H   0  0  0  0  0  0  0  0  0  0  0  0
  -10.9205  -21.8259   28.0206 H   0  0  0  0  0  0  0  0  0  0  0  0
  -13.5568  -24.6114   29.4685 H   0  0  0  0  0  0  0  0  0  0  0  0
  1  2  1  0
  2  3  1  0
  2  4  1  0
  4  5  2  0
  4  6  1  0
  6  7  1  0
  7  8  1  0
  8  9  2  0
  9 10  1  0
 10 11  2  0
 11 12  1  0
 12 13  2  0
 13 14  1  0
 13 15  1  0
 15 16  1  0
  2 17  1  0
 17 18  2  0
 18 19  1  0
 19 20  2  0
 20 21  1  0
 21 22  2  0
 16  7  2  0
 22 17  1  0
 15 10  1  0
  1 23  1  0
  1 24  1  0
  1 25  1  0
  3 26  1  0
  3 27  1  0
  3 28  1  0
  6 29  1  0
  8 30  1  0
  9 31  1  0
 12 32  1  0
 16 33  1  0
 18 34  1  0
 20 35  1  0
 22 36  1  0
M  END
>  <Energy>  (1549) 
115.05014530479455

>  <compound_id>  (1549) 
36082

>  <target_id>  (1549) 
1

>  <reference_id>  (1549) 
54

>  <inspiration_ids>  (1549) 
[45, 54]

>  <energy_score>  (1549) 
31.608713320958543

>  <distance_score>  (1549) 
3.408293392064205

>  <path>  (1549) 
/opt/xchem-fragalysis-2/maxwin/BulkDock/SCRATCH/511013/C36082-P54/C36082-P54.minimised.mol

>  <scratch_subdir>  (1549) 
/opt/xchem-fragalysis-2/maxwin/BulkDock/SCRATCH/511013/C36082-P54

>  <fragmenstein_runtime>  (1549) 
4.463061094284058

>  <fragmenstein_outcome>  (1549) 
too moved

>  <fragmenstein_mode>  (1549) 
expansion

>  <fragmenstein_error>  (1549) 


$$$$
C36083-P45
     RDKit          3D

 33 35  0  0  0  0  0  0  0  0999 V2000
  -10.2595  -21.8164   28.3312 O   0  0  0  0  0  0  0  0  0  0  0  0
  -10.3322  -22.9164   27.9800 C   0  0  0  0  0  0  0  0  0  0  0  0
  -11.6405  -23.6637   27.9199 C   0  0  0  0  0  0  0  0  0  0  0  0
  -11.6707  -23.9808   29.3729 C   0  0  0  0  0  0  0  0  0  0  0  0
  -12.0646  -22.9785   30.2435 C   0  0  0  0  0  0  0  0  0  0  0  0
  -11.6511  -22.9010   31.5168 N   0  0  0  0  0  0  0  0  0  0  0  0
  -10.7714  -23.8327   31.9058 C   0  0  0  0  0  0  0  0  0  0  0  0
  -10.3184  -24.8524   31.1415 N   0  0  0  0  0  0  0  0  0  0  0  0
  -10.7653  -24.9026   29.8708 C   0  0  0  0  0  0  0  0  0  0  0  0
   -9.2368  -23.9095   27.6063 N   0  0  0  0  0  0  0  0  0  0  0  0
   -7.8013  -23.7919   27.6754 C   0  0  0  0  0  0  0  0  0  0  0  0
   -7.4580  -25.2016   27.4485 C   0  0  0  0  0  0  0  0  0  0  0  0
   -8.5171  -26.0997   27.5208 N   0  0  0  0  0  0  0  0  0  0  0  0
   -8.0527  -27.2222   27.0731 C   0  0  0  0  0  0  0  0  0  0  0  0
   -8.7584  -28.4048   26.7718 C   0  0  0  0  0  0  0  0  0  0  0  0
   -8.1056  -29.3918   26.1529 C   0  0  0  0  0  0  0  0  0  0  0  0
   -6.6995  -29.2599   25.8482 C   0  0  0  0  0  0  0  0  0  0  0  0
   -5.9948  -28.1904   26.2479 C   0  0  0  0  0  0  0  0  0  0  0  0
   -6.6890  -27.1429   26.8129 N   0  0  0  0  0  0  0  0  0  0  0  0
   -6.3135  -25.8635   27.1229 C   0  0  0  0  0  0  0  0  0  0  0  0
   -4.7069  -25.3838   27.0835 Cl  0  0  0  0  0  0  0  0  0  0  0  0
  -12.4361  -22.9953   27.5965 H   0  0  0  0  0  0  0  0  0  0  0  0
  -11.6379  -24.5522   27.2851 H   0  0  0  0  0  0  0  0  0  0  0  0
  -12.6456  -22.1264   29.9081 H   0  0  0  0  0  0  0  0  0  0  0  0
  -10.4229  -23.7890   32.9310 H   0  0  0  0  0  0  0  0  0  0  0  0
  -10.3230  -25.6873   29.2661 H   0  0  0  0  0  0  0  0  0  0  0  0
   -9.6599  -24.7677   27.2619 H   0  0  0  0  0  0  0  0  0  0  0  0
   -7.4038  -23.1446   26.8984 H   0  0  0  0  0  0  0  0  0  0  0  0
   -7.4928  -23.4360   28.6512 H   0  0  0  0  0  0  0  0  0  0  0  0
   -9.8117  -28.4805   27.0075 H   0  0  0  0  0  0  0  0  0  0  0  0
   -8.6031  -30.3160   25.8773 H   0  0  0  0  0  0  0  0  0  0  0  0
   -6.2678  -30.0460   25.2489 H   0  0  0  0  0  0  0  0  0  0  0  0
   -4.9429  -28.0478   26.0364 H   0  0  0  0  0  0  0  0  0  0  0  0
  1  2  2  0
  2  3  1  0
  3  4  1  0
  4  5  2  0
  5  6  1  0
  6  7  2  0
  7  8  1  0
  8  9  2  0
  2 10  1  0
 10 11  1  0
 11 12  1  0
 12 13  1  0
 13 14  2  0
 14 15  1  0
 15 16  2  0
 16 17  1  0
 17 18  2  0
 18 19  1  0
 19 20  1  0
 20 21  1  0
  9  4  1  0
 20 12  2  0
 19 14  1  0
  3 22  1  0
  3 23  1  0
  5 24  1  0
  7 25  1  0
  9 26  1  0
 10 27  1  0
 11 28  1  0
 11 29  1  0
 15 30  1  0
 16 31  1  0
 17 32  1  0
 18 33  1  0
M  END
>  <Energy>  (1550) 
69.195951987110149

>  <compound_id>  (1550) 
36083

>  <target_id>  (1550) 
1

>  <reference_id>  (1550) 
45

>  <inspiration_ids>  (1550) 
[45, 54]

>  <energy_score>  (1550) 
19.414912282960017

>  <distance_score>  (1550) 
1.595523506889686

>  <path>  (1550) 
/opt/xchem-fragalysis-2/maxwin/BulkDock/SCRATCH/511013/C36083-P45/C36083-P45.minimised.mol

>  <scratch_subdir>  (1550) 
/opt/xchem-fragalysis-2/maxwin/BulkDock/SCRATCH/511013/C36083-P45

>  <fragmenstein_runtime>  (1550) 
3.3622164726257324

>  <fragmenstein_outcome>  (1550) 
too moved

>  <fragmenstein_mode>  (1550) 
expansion

>  <fragmenstein_error>  (1550) 


$$$$
C36083-P54
     RDKit          3D

 33 35  0  0  0  0  0  0  0  0999 V2000
  -13.5423  -25.1444   26.5764 O   0  0  0  0  0  0  0  0  0  0  0  0
  -13.0276  -24.4169   27.3317 C   0  0  0  0  0  0  0  0  0  0  0  0
  -13.5008  -24.2446   28.7468 C   0  0  0  0  0  0  0  0  0  0  0  0
  -12.3483  -24.0670   29.7010 C   0  0  0  0  0  0  0  0  0  0  0  0
  -11.9133  -22.8137   30.1293 C   0  0  0  0  0  0  0  0  0  0  0  0
  -10.8386  -22.6243   30.9032 N   0  0  0  0  0  0  0  0  0  0  0  0
  -10.2463  -23.7439   31.3353 C   0  0  0  0  0  0  0  0  0  0  0  0
  -10.5987  -25.0051   31.0172 N   0  0  0  0  0  0  0  0  0  0  0  0
  -11.6183  -25.1398   30.1581 C   0  0  0  0  0  0  0  0  0  0  0  0
  -11.7436  -23.5542   27.1833 N   0  0  0  0  0  0  0  0  0  0  0  0
  -10.8113  -23.4876   26.1462 C   0  0  0  0  0  0  0  0  0  0  0  0
  -10.2290  -24.8477   26.3797 C   0  0  0  0  0  0  0  0  0  0  0  0
  -10.9387  -25.9725   26.0001 N   0  0  0  0  0  0  0  0  0  0  0  0
  -10.4791  -26.9050   26.7981 C   0  0  0  0  0  0  0  0  0  0  0  0
  -10.9793  -28.0946   27.3639 C   0  0  0  0  0  0  0  0  0  0  0  0
  -10.0902  -29.0223   27.7605 C   0  0  0  0  0  0  0  0  0  0  0  0
   -8.6783  -28.8269   27.4911 C   0  0  0  0  0  0  0  0  0  0  0  0
   -8.2376  -27.5912   27.2096 C   0  0  0  0  0  0  0  0  0  0  0  0
   -9.1823  -26.5920   27.1136 N   0  0  0  0  0  0  0  0  0  0  0  0
   -9.2947  -25.2494   27.3186 C   0  0  0  0  0  0  0  0  0  0  0  0
   -8.6342  -24.4190   28.6431 Cl  0  0  0  0  0  0  0  0  0  0  0  0
  -14.2119  -23.4459   28.8194 H   0  0  0  0  0  0  0  0  0  0  0  0
  -14.0422  -25.1580   29.0274 H   0  0  0  0  0  0  0  0  0  0  0  0
  -12.4236  -21.8992   29.8394 H   0  0  0  0  0  0  0  0  0  0  0  0
   -9.3958  -23.6279   31.9988 H   0  0  0  0  0  0  0  0  0  0  0  0
  -11.8465  -26.1600   29.8648 H   0  0  0  0  0  0  0  0  0  0  0  0
  -11.5396  -23.1087   28.0498 H   0  0  0  0  0  0  0  0  0  0  0  0
  -11.2873  -23.2736   25.2023 H   0  0  0  0  0  0  0  0  0  0  0  0
  -10.0941  -22.7155   26.4028 H   0  0  0  0  0  0  0  0  0  0  0  0
  -12.0494  -28.2271   27.4667 H   0  0  0  0  0  0  0  0  0  0  0  0
  -10.4102  -29.9583   28.2051 H   0  0  0  0  0  0  0  0  0  0  0  0
   -8.0391  -29.6902   27.5501 H   0  0  0  0  0  0  0  0  0  0  0  0
   -7.2045  -27.3434   27.0368 H   0  0  0  0  0  0  0  0  0  0  0  0
  1  2  2  0
  2  3  1  0
  3  4  1  0
  4  5  2  0
  5  6  1  0
  6  7  2  0
  7  8  1  0
  8  9  2  0
  2 10  1  0
 10 11  1  0
 11 12  1  0
 12 13  1  0
 13 14  2  0
 14 15  1  0
 15 16  2  0
 16 17  1  0
 17 18  2  0
 18 19  1  0
 19 20  1  0
 20 21  1  0
  9  4  1  0
 20 12  2  0
 19 14  1  0
  3 22  1  0
  3 23  1  0
  5 24  1  0
  7 25  1  0
  9 26  1  0
 10 27  1  0
 11 28  1  0
 11 29  1  0
 15 30  1  0
 16 31  1  0
 17 32  1  0
 18 33  1  0
M  END
>  <Energy>  (1551) 
98.59682244106591

>  <compound_id>  (1551) 
36083

>  <target_id>  (1551) 
1

>  <reference_id>  (1551) 
54

>  <inspiration_ids>  (1551) 
[45, 54]

>  <energy_score>  (1551) 
48.81578273691321

>  <distance_score>  (1551) 
2.79668947004798

>  <path>  (1551) 
/opt/xchem-fragalysis-2/maxwin/BulkDock/SCRATCH/511013/C36083-P54/C36083-P54.minimised.mol

>  <scratch_subdir>  (1551) 
/opt/xchem-fragalysis-2/maxwin/BulkDock/SCRATCH/511013/C36083-P54

>  <fragmenstein_runtime>  (1551) 
4.179691553115845

>  <fragmenstein_outcome>  (1551) 
too moved

>  <fragmenstein_mode>  (1551) 
expansion

>  <fragmenstein_error>  (1551) 


$$$$
C36084-P45
     RDKit          3D

 29 31  0  0  0  0  0  0  0  0999 V2000
   -8.7181  -23.5645   27.9010 O   0  0  0  0  0  0  0  0  0  0  0  0
   -9.2973  -24.4647   27.3196 C   0  0  0  0  0  0  0  0  0  0  0  0
  -10.5475  -24.4512   26.7716 O   0  0  0  0  0  0  0  0  0  0  0  0
  -11.5139  -23.4649   27.1653 C   0  0  0  0  0  0  0  0  0  0  0  0
  -11.5619  -23.3063   28.6317 C   0  0  0  0  0  0  0  0  0  0  0  0
  -11.7730  -22.0963   29.2372 C   0  0  0  0  0  0  0  0  0  0  0  0
  -11.7179  -21.8927   30.5607 N   0  0  0  0  0  0  0  0  0  0  0  0
  -11.3854  -22.9513   31.2897 C   0  0  0  0  0  0  0  0  0  0  0  0
  -11.1804  -24.1870   30.8129 N   0  0  0  0  0  0  0  0  0  0  0  0
  -11.3280  -24.3435   29.4891 C   0  0  0  0  0  0  0  0  0  0  0  0
   -8.8052  -25.7766   27.1797 C   0  0  0  0  0  0  0  0  0  0  0  0
   -9.5613  -26.9226   27.1966 C   0  0  0  0  0  0  0  0  0  0  0  0
   -8.8065  -28.0167   27.0039 N   0  0  0  0  0  0  0  0  0  0  0  0
   -7.5914  -27.5582   26.8374 C   0  0  0  0  0  0  0  0  0  0  0  0
   -6.4041  -28.2187   26.4974 C   0  0  0  0  0  0  0  0  0  0  0  0
   -6.4890  -29.4614   25.9995 F   0  0  0  0  0  0  0  0  0  0  0  0
   -5.2288  -27.5901   26.5898 C   0  0  0  0  0  0  0  0  0  0  0  0
   -5.1513  -26.1854   26.9287 C   0  0  0  0  0  0  0  0  0  0  0  0
   -6.2947  -25.4985   27.0870 C   0  0  0  0  0  0  0  0  0  0  0  0
   -7.5061  -26.1903   27.0456 N   0  0  0  0  0  0  0  0  0  0  0  0
  -11.3369  -22.5167   26.6676 H   0  0  0  0  0  0  0  0  0  0  0  0
  -12.4777  -23.8285   26.8071 H   0  0  0  0  0  0  0  0  0  0  0  0
  -11.9907  -21.2116   28.6644 H   0  0  0  0  0  0  0  0  0  0  0  0
  -11.2872  -22.8091   32.3614 H   0  0  0  0  0  0  0  0  0  0  0  0
  -11.2045  -25.3639   29.1428 H   0  0  0  0  0  0  0  0  0  0  0  0
  -10.6336  -27.0108   27.3168 H   0  0  0  0  0  0  0  0  0  0  0  0
   -4.3173  -28.0824   26.2884 H   0  0  0  0  0  0  0  0  0  0  0  0
   -4.1732  -25.7160   26.9704 H   0  0  0  0  0  0  0  0  0  0  0  0
   -6.3180  -24.4341   27.2887 H   0  0  0  0  0  0  0  0  0  0  0  0
  1  2  2  0
  2  3  1  0
  3  4  1  0
  4  5  1  0
  5  6  2  0
  6  7  1  0
  7  8  2  0
  8  9  1  0
  9 10  2  0
  2 11  1  0
 11 12  2  0
 12 13  1  0
 13 14  2  0
 14 15  1  0
 15 16  1  0
 15 17  2  0
 17 18  1  0
 18 19  2  0
 19 20  1  0
 10  5  1  0
 20 11  1  0
 20 14  1  0
  4 21  1  0
  4 22  1  0
  6 23  1  0
  8 24  1  0
 10 25  1  0
 12 26  1  0
 17 27  1  0
 18 28  1  0
 19 29  1  0
M  END
>  <Energy>  (1552) 
6.8759505828051166

>  <compound_id>  (1552) 
36084

>  <target_id>  (1552) 
1

>  <reference_id>  (1552) 
45

>  <inspiration_ids>  (1552) 
[45, 54]

>  <energy_score>  (1552) 
-7.009364577033068

>  <distance_score>  (1552) 
2.3634618408613486

>  <path>  (1552) 
/opt/xchem-fragalysis-2/maxwin/BulkDock/SCRATCH/511013/C36084-P45/C36084-P45.minimised.mol

>  <scratch_subdir>  (1552) 
/opt/xchem-fragalysis-2/maxwin/BulkDock/SCRATCH/511013/C36084-P45

>  <fragmenstein_runtime>  (1552) 
2.481492042541504

>  <fragmenstein_outcome>  (1552) 
too moved

>  <fragmenstein_mode>  (1552) 
expansion

>  <fragmenstein_error>  (1552) 


$$$$
C36084-P54
     RDKit          3D

 29 31  0  0  0  0  0  0  0  0999 V2000
  -10.1857  -23.5092   25.4679 O   0  0  0  0  0  0  0  0  0  0  0  0
  -10.5668  -24.3873   26.2230 C   0  0  0  0  0  0  0  0  0  0  0  0
  -11.8855  -24.6934   26.3886 O   0  0  0  0  0  0  0  0  0  0  0  0
  -12.6315  -23.4863   26.5908 C   0  0  0  0  0  0  0  0  0  0  0  0
  -12.2029  -22.9215   27.9086 C   0  0  0  0  0  0  0  0  0  0  0  0
  -11.4771  -21.7570   28.0492 C   0  0  0  0  0  0  0  0  0  0  0  0
  -11.0108  -21.3051   29.2303 N   0  0  0  0  0  0  0  0  0  0  0  0
  -11.2590  -22.0731   30.2950 C   0  0  0  0  0  0  0  0  0  0  0  0
  -11.9191  -23.2303   30.2655 N   0  0  0  0  0  0  0  0  0  0  0  0
  -12.4178  -23.6114   29.0780 C   0  0  0  0  0  0  0  0  0  0  0  0
   -9.7744  -25.1726   27.1249 C   0  0  0  0  0  0  0  0  0  0  0  0
   -9.7530  -24.8611   28.4682 C   0  0  0  0  0  0  0  0  0  0  0  0
  -10.6073  -25.7893   29.0559 N   0  0  0  0  0  0  0  0  0  0  0  0
  -10.6438  -26.8119   28.2077 C   0  0  0  0  0  0  0  0  0  0  0  0
  -10.9954  -28.1710   28.3764 C   0  0  0  0  0  0  0  0  0  0  0  0
  -12.1450  -28.4898   29.0005 F   0  0  0  0  0  0  0  0  0  0  0  0
  -10.1300  -29.1184   27.9821 C   0  0  0  0  0  0  0  0  0  0  0  0
   -8.8651  -28.7436   27.3837 C   0  0  0  0  0  0  0  0  0  0  0  0
   -8.6866  -27.4770   26.9863 C   0  0  0  0  0  0  0  0  0  0  0  0
   -9.6954  -26.5423   27.2280 N   0  0  0  0  0  0  0  0  0  0  0  0
  -12.5031  -22.7843   25.7585 H   0  0  0  0  0  0  0  0  0  0  0  0
  -13.6932  -23.7544   26.6226 H   0  0  0  0  0  0  0  0  0  0  0  0
  -11.2366  -21.1295   27.1962 H   0  0  0  0  0  0  0  0  0  0  0  0
  -10.8959  -21.7324   31.2573 H   0  0  0  0  0  0  0  0  0  0  0  0
  -12.9511  -24.5584   29.0875 H   0  0  0  0  0  0  0  0  0  0  0  0
   -9.5648  -23.9108   28.9509 H   0  0  0  0  0  0  0  0  0  0  0  0
  -10.3470  -30.1666   28.1495 H   0  0  0  0  0  0  0  0  0  0  0  0
   -8.0868  -29.4866   27.3141 H   0  0  0  0  0  0  0  0  0  0  0  0
   -7.7115  -27.1400   26.6876 H   0  0  0  0  0  0  0  0  0  0  0  0
  1  2  2  0
  2  3  1  0
  3  4  1  0
  4  5  1  0
  5  6  2  0
  6  7  1  0
  7  8  2  0
  8  9  1  0
  9 10  2  0
  2 11  1  0
 11 12  2  0
 12 13  1  0
 13 14  2  0
 14 15  1  0
 15 16  1  0
 15 17  2  0
 17 18  1  0
 18 19  2  0
 19 20  1  0
 10  5  1  0
 20 11  1  0
 20 14  1  0
  4 21  1  0
  4 22  1  0
  6 23  1  0
  8 24  1  0
 10 25  1  0
 12 26  1  0
 17 27  1  0
 18 28  1  0
 19 29  1  0
M  END
>  <Energy>  (1553) 
72.484769316195752

>  <compound_id>  (1553) 
36084

>  <target_id>  (1553) 
1

>  <reference_id>  (1553) 
54

>  <inspiration_ids>  (1553) 
[45, 54]

>  <energy_score>  (1553) 
58.59945415635812

>  <distance_score>  (1553) 
2.695255648943198

>  <path>  (1553) 
/opt/xchem-fragalysis-2/maxwin/BulkDock/SCRATCH/511013/C36084-P54/C36084-P54.minimised.mol

>  <scratch_subdir>  (1553) 
/opt/xchem-fragalysis-2/maxwin/BulkDock/SCRATCH/511013/C36084-P54

>  <fragmenstein_runtime>  (1553) 
2.1144638061523438

>  <fragmenstein_outcome>  (1553) 
too moved

>  <fragmenstein_mode>  (1553) 
expansion

>  <fragmenstein_error>  (1553) 


$$$$
C36085-P45
     RDKit          3D

 47 50  0  0  0  0  0  0  0  0999 V2000
  -12.7445  -26.8724   27.8098 C   0  0  0  0  0  0  0  0  0  0  0  0
  -12.2508  -26.5544   26.3583 C   0  0  0  0  0  0  0  0  0  0  0  0
  -12.2699  -25.0678   25.8564 C   0  0  0  0  0  0  0  0  0  0  0  0
  -12.0079  -24.2061   26.9578 N   0  0  0  0  0  0  0  0  0  0  0  0
  -11.0386  -24.3576   28.1267 C   0  0  0  0  0  0  0  0  0  0  0  0
  -10.2409  -25.1721   28.3422 O   0  0  0  0  0  0  0  0  0  0  0  0
  -11.2149  -23.3903   29.1589 C   0  0  0  0  0  0  0  0  0  0  0  0
  -11.7076  -22.1424   29.0306 C   0  0  0  0  0  0  0  0  0  0  0  0
  -12.0214  -21.4198   30.1057 N   0  0  0  0  0  0  0  0  0  0  0  0
  -11.7936  -21.9579   31.3145 C   0  0  0  0  0  0  0  0  0  0  0  0
  -11.2998  -23.1734   31.5395 N   0  0  0  0  0  0  0  0  0  0  0  0
  -10.9830  -23.8465   30.4307 C   0  0  0  0  0  0  0  0  0  0  0  0
  -10.8195  -26.8583   26.3740 N   0  0  0  0  0  0  0  0  0  0  0  0
  -10.0726  -28.0926   26.8705 C   0  0  0  0  0  0  0  0  0  0  0  0
  -10.4756  -29.1048   27.2789 O   0  0  0  0  0  0  0  0  0  0  0  0
   -8.5868  -27.8123   26.7517 C   0  0  0  0  0  0  0  0  0  0  0  0
   -7.9007  -28.9127   26.4029 C   0  0  0  0  0  0  0  0  0  0  0  0
   -6.4841  -28.8706   26.1874 C   0  0  0  0  0  0  0  0  0  0  0  0
   -5.7688  -27.7846   26.5017 C   0  0  0  0  0  0  0  0  0  0  0  0
   -6.4605  -26.6353   26.8404 N   0  0  0  0  0  0  0  0  0  0  0  0
   -5.9621  -25.3755   27.0732 C   0  0  0  0  0  0  0  0  0  0  0  0
   -7.0622  -24.5629   27.1434 C   0  0  0  0  0  0  0  0  0  0  0  0
   -8.2111  -25.2897   26.9472 N   0  0  0  0  0  0  0  0  0  0  0  0
   -7.8601  -26.5631   26.8887 C   0  0  0  0  0  0  0  0  0  0  0  0
  -13.0455  -27.4016   25.3859 C   0  0  0  0  0  0  0  0  0  0  0  0
  -14.4353  -27.0610   24.8516 C   0  0  0  0  0  0  0  0  0  0  0  0
  -14.2985  -28.1617   25.8444 C   0  0  0  0  0  0  0  0  0  0  0  0
  -12.7265  -27.9573   27.9818 H   0  0  0  0  0  0  0  0  0  0  0  0
  -13.7615  -26.5569   28.0308 H   0  0  0  0  0  0  0  0  0  0  0  0
  -12.1207  -26.4750   28.6075 H   0  0  0  0  0  0  0  0  0  0  0  0
  -13.2069  -24.7640   25.3918 H   0  0  0  0  0  0  0  0  0  0  0  0
  -11.4971  -24.8846   25.1004 H   0  0  0  0  0  0  0  0  0  0  0  0
  -12.6241  -23.4199   27.1296 H   0  0  0  0  0  0  0  0  0  0  0  0
  -11.8620  -21.6775   28.0703 H   0  0  0  0  0  0  0  0  0  0  0  0
  -12.0276  -21.3549   32.1845 H   0  0  0  0  0  0  0  0  0  0  0  0
  -10.4491  -24.7817   30.5986 H   0  0  0  0  0  0  0  0  0  0  0  0
  -10.1499  -26.1170   26.1657 H   0  0  0  0  0  0  0  0  0  0  0  0
   -8.3825  -29.8779   26.2554 H   0  0  0  0  0  0  0  0  0  0  0  0
   -6.0781  -29.7586   25.7414 H   0  0  0  0  0  0  0  0  0  0  0  0
   -4.6953  -27.7117   26.3766 H   0  0  0  0  0  0  0  0  0  0  0  0
   -4.9002  -25.1828   27.1266 H   0  0  0  0  0  0  0  0  0  0  0  0
   -7.0915  -23.4919   27.2933 H   0  0  0  0  0  0  0  0  0  0  0  0
  -12.3813  -27.7920   24.6316 H   0  0  0  0  0  0  0  0  0  0  0  0
  -14.7223  -27.3699   23.8546 H   0  0  0  0  0  0  0  0  0  0  0  0
  -14.9571  -26.1660   25.1592 H   0  0  0  0  0  0  0  0  0  0  0  0
  -14.7732  -27.9942   26.8053 H   0  0  0  0  0  0  0  0  0  0  0  0
  -14.4458  -29.1900   25.5424 H   0  0  0  0  0  0  0  0  0  0  0  0
  1  2  1  0
  2  3  1  0
  3  4  1  0
  4  5  1  0
  5  6  2  0
  5  7  1  0
  7  8  2  0
  8  9  1  0
  9 10  2  0
 10 11  1  0
 11 12  2  0
  2 13  1  0
 13 14  1  0
 14 15  2  0
 14 16  1  0
 16 17  2  0
 17 18  1  0
 18 19  2  0
 19 20  1  0
 20 21  1  0
 21 22  2  0
 22 23  1  0
 23 24  2  0
  2 25  1  0
 25 26  1  0
 26 27  1  0
 12  7  1  0
 24 16  1  0
 27 25  1  0
 24 20  1  0
  1 28  1  0
  1 29  1  0
  1 30  1  0
  3 31  1  0
  3 32  1  0
  4 33  1  0
  8 34  1  0
 10 35  1  0
 12 36  1  0
 13 37  1  0
 17 38  1  0
 18 39  1  0
 19 40  1  0
 21 41  1  0
 22 42  1  0
 25 43  1  0
 26 44  1  0
 26 45  1  0
 27 46  1  0
 27 47  1  0
M  END
>  <Energy>  (1554) 
116.15164461107389

>  <compound_id>  (1554) 
36085

>  <target_id>  (1554) 
1

>  <reference_id>  (1554) 
45

>  <inspiration_ids>  (1554) 
[45, 54]

>  <energy_score>  (1554) 
31.14371456310988

>  <distance_score>  (1554) 
1.4450230351620619

>  <path>  (1554) 
/opt/xchem-fragalysis-2/maxwin/BulkDock/SCRATCH/511013/C36085-P45/C36085-P45.minimised.mol

>  <scratch_subdir>  (1554) 
/opt/xchem-fragalysis-2/maxwin/BulkDock/SCRATCH/511013/C36085-P45

>  <fragmenstein_runtime>  (1554) 
7.997536897659302

>  <fragmenstein_outcome>  (1554) 
too moved

>  <fragmenstein_mode>  (1554) 
expansion

>  <fragmenstein_error>  (1554) 


$$$$
C36085-P54
     RDKit          3D

 47 50  0  0  0  0  0  0  0  0999 V2000
  -15.5097  -28.8738   27.7273 C   0  0  0  0  0  0  0  0  0  0  0  0
  -14.8529  -27.4834   27.5497 C   0  0  0  0  0  0  0  0  0  0  0  0
  -15.1415  -26.6597   28.8487 C   0  0  0  0  0  0  0  0  0  0  0  0
  -14.0046  -25.8758   29.2987 N   0  0  0  0  0  0  0  0  0  0  0  0
  -13.3684  -24.6063   28.7058 C   0  0  0  0  0  0  0  0  0  0  0  0
  -13.7008  -23.9453   27.8087 O   0  0  0  0  0  0  0  0  0  0  0  0
  -12.1484  -24.1578   29.4216 C   0  0  0  0  0  0  0  0  0  0  0  0
  -11.7193  -22.8463   29.3152 C   0  0  0  0  0  0  0  0  0  0  0  0
  -10.6255  -22.3589   29.9378 N   0  0  0  0  0  0  0  0  0  0  0  0
   -9.9458  -23.2377   30.6845 C   0  0  0  0  0  0  0  0  0  0  0  0
  -10.2357  -24.5403   30.8257 N   0  0  0  0  0  0  0  0  0  0  0  0
  -11.3272  -24.9736   30.1638 C   0  0  0  0  0  0  0  0  0  0  0  0
  -13.4082  -27.6511   27.3863 N   0  0  0  0  0  0  0  0  0  0  0  0
  -12.4089  -28.5182   28.1680 C   0  0  0  0  0  0  0  0  0  0  0  0
  -12.5866  -29.2960   29.0167 O   0  0  0  0  0  0  0  0  0  0  0  0
  -11.0117  -28.2135   27.7033 C   0  0  0  0  0  0  0  0  0  0  0  0
  -10.0944  -29.1940   27.8473 C   0  0  0  0  0  0  0  0  0  0  0  0
   -8.7097  -29.0039   27.4694 C   0  0  0  0  0  0  0  0  0  0  0  0
   -8.2827  -27.7798   27.1531 C   0  0  0  0  0  0  0  0  0  0  0  0
   -9.1942  -26.7517   27.2124 N   0  0  0  0  0  0  0  0  0  0  0  0
   -9.0338  -25.4356   27.5187 C   0  0  0  0  0  0  0  0  0  0  0  0
  -10.1888  -24.8458   27.0857 C   0  0  0  0  0  0  0  0  0  0  0  0
  -11.1596  -25.8055   26.9463 N   0  0  0  0  0  0  0  0  0  0  0  0
  -10.5611  -26.9342   27.2674 C   0  0  0  0  0  0  0  0  0  0  0  0
  -15.4164  -26.8810   26.2642 C   0  0  0  0  0  0  0  0  0  0  0  0
  -14.7091  -25.7882   25.4969 C   0  0  0  0  0  0  0  0  0  0  0  0
  -16.0309  -25.5009   26.1408 C   0  0  0  0  0  0  0  0  0  0  0  0
  -16.6012  -28.7860   27.7813 H   0  0  0  0  0  0  0  0  0  0  0  0
  -15.1708  -29.3762   28.6395 H   0  0  0  0  0  0  0  0  0  0  0  0
  -15.2697  -29.5361   26.8865 H   0  0  0  0  0  0  0  0  0  0  0  0
  -16.0030  -25.9966   28.7432 H   0  0  0  0  0  0  0  0  0  0  0  0
  -15.3602  -27.3303   29.6879 H   0  0  0  0  0  0  0  0  0  0  0  0
  -13.4114  -26.2415   30.0237 H   0  0  0  0  0  0  0  0  0  0  0  0
  -12.2398  -22.1209   28.7001 H   0  0  0  0  0  0  0  0  0  0  0  0
   -9.0763  -22.8664   31.2159 H   0  0  0  0  0  0  0  0  0  0  0  0
  -11.4810  -26.0420   30.2520 H   0  0  0  0  0  0  0  0  0  0  0  0
  -12.9006  -27.0197   26.7706 H   0  0  0  0  0  0  0  0  0  0  0  0
  -10.3776  -30.1779   28.2115 H   0  0  0  0  0  0  0  0  0  0  0  0
   -8.0574  -29.8629   27.4648 H   0  0  0  0  0  0  0  0  0  0  0  0
   -7.2549  -27.5450   26.9224 H   0  0  0  0  0  0  0  0  0  0  0  0
   -8.1274  -25.0575   27.9599 H   0  0  0  0  0  0  0  0  0  0  0  0
  -10.4090  -23.7903   26.9749 H   0  0  0  0  0  0  0  0  0  0  0  0
  -15.8769  -27.6470   25.6441 H   0  0  0  0  0  0  0  0  0  0  0  0
  -13.8392  -25.2903   25.9017 H   0  0  0  0  0  0  0  0  0  0  0  0
  -14.6741  -25.8675   24.4213 H   0  0  0  0  0  0  0  0  0  0  0  0
  -16.8964  -25.3880   25.4966 H   0  0  0  0  0  0  0  0  0  0  0  0
  -16.0216  -24.7931   26.9612 H   0  0  0  0  0  0  0  0  0  0  0  0
  1  2  1  0
  2  3  1  0
  3  4  1  0
  4  5  1  0
  5  6  2  0
  5  7  1  0
  7  8  2  0
  8  9  1  0
  9 10  2  0
 10 11  1  0
 11 12  2  0
  2 13  1  0
 13 14  1  0
 14 15  2  0
 14 16  1  0
 16 17  2  0
 17 18  1  0
 18 19  2  0
 19 20  1  0
 20 21  1  0
 21 22  2  0
 22 23  1  0
 23 24  2  0
  2 25  1  0
 25 26  1  0
 26 27  1  0
 12  7  1  0
 24 16  1  0
 27 25  1  0
 24 20  1  0
  1 28  1  0
  1 29  1  0
  1 30  1  0
  3 31  1  0
  3 32  1  0
  4 33  1  0
  8 34  1  0
 10 35  1  0
 12 36  1  0
 13 37  1  0
 17 38  1  0
 18 39  1  0
 19 40  1  0
 21 41  1  0
 22 42  1  0
 25 43  1  0
 26 44  1  0
 26 45  1  0
 27 46  1  0
 27 47  1  0
M  END
>  <Energy>  (1555) 
94.309386011019157

>  <compound_id>  (1555) 
36085

>  <target_id>  (1555) 
1

>  <reference_id>  (1555) 
54

>  <inspiration_ids>  (1555) 
[45, 54]

>  <energy_score>  (1555) 
9.30145596305772

>  <distance_score>  (1555) 
2.7708658484785076

>  <path>  (1555) 
/opt/xchem-fragalysis-2/maxwin/BulkDock/SCRATCH/511013/C36085-P54/C36085-P54.minimised.mol

>  <scratch_subdir>  (1555) 
/opt/xchem-fragalysis-2/maxwin/BulkDock/SCRATCH/511013/C36085-P54

>  <fragmenstein_runtime>  (1555) 
9.047374486923218

>  <fragmenstein_outcome>  (1555) 
too moved

>  <fragmenstein_mode>  (1555) 
expansion

>  <fragmenstein_error>  (1555) 


$$$$
C36086-P45
     RDKit          3D

 47 50  0  0  0  0  0  0  0  0999 V2000
  -11.9493  -27.4287   25.4940 C   0  0  0  0  0  0  0  0  0  0  0  0
  -11.6604  -27.6722   26.9471 N   0  0  0  0  0  0  0  0  0  0  0  0
  -10.7561  -28.7535   27.0923 C   0  0  0  0  0  0  0  0  0  0  0  0
  -10.9619  -29.9338   27.2296 O   0  0  0  0  0  0  0  0  0  0  0  0
   -9.3157  -28.2826   26.9739 C   0  0  0  0  0  0  0  0  0  0  0  0
   -8.4626  -29.1972   26.4586 C   0  0  0  0  0  0  0  0  0  0  0  0
   -7.0655  -28.9070   26.2241 C   0  0  0  0  0  0  0  0  0  0  0  0
   -6.5887  -27.6914   26.5109 C   0  0  0  0  0  0  0  0  0  0  0  0
   -7.4654  -26.7303   26.9860 N   0  0  0  0  0  0  0  0  0  0  0  0
   -7.2193  -25.4028   27.2224 C   0  0  0  0  0  0  0  0  0  0  0  0
   -8.3752  -24.9152   27.7695 C   0  0  0  0  0  0  0  0  0  0  0  0
   -9.3240  -25.9023   27.8795 N   0  0  0  0  0  0  0  0  0  0  0  0
   -8.8094  -26.9733   27.2985 C   0  0  0  0  0  0  0  0  0  0  0  0
  -13.2041  -27.6259   27.0315 C   0  0  0  0  0  0  0  0  0  0  0  0
  -13.4701  -27.1097   28.4596 C   0  0  0  0  0  0  0  0  0  0  0  0
  -12.8630  -25.8565   28.8041 N   0  0  0  0  0  0  0  0  0  0  0  0
  -12.1585  -24.8883   27.9941 C   0  0  0  0  0  0  0  0  0  0  0  0
  -11.9700  -24.8464   26.8160 O   0  0  0  0  0  0  0  0  0  0  0  0
  -11.5998  -23.8225   28.8195 C   0  0  0  0  0  0  0  0  0  0  0  0
  -11.0421  -24.1079   30.0266 C   0  0  0  0  0  0  0  0  0  0  0  0
  -11.1472  -23.2907   31.0890 N   0  0  0  0  0  0  0  0  0  0  0  0
  -11.6110  -22.0603   30.8163 C   0  0  0  0  0  0  0  0  0  0  0  0
  -11.9578  -21.6169   29.6021 N   0  0  0  0  0  0  0  0  0  0  0  0
  -11.9231  -22.5221   28.6075 C   0  0  0  0  0  0  0  0  0  0  0  0
  -13.9056  -28.9929   26.9514 C   0  0  0  0  0  0  0  0  0  0  0  0
  -14.9410  -29.3083   25.8917 C   0  0  0  0  0  0  0  0  0  0  0  0
  -15.3833  -29.1145   27.3013 C   0  0  0  0  0  0  0  0  0  0  0  0
  -11.0151  -27.6048   24.9511 H   0  0  0  0  0  0  0  0  0  0  0  0
  -12.6881  -28.0515   24.9965 H   0  0  0  0  0  0  0  0  0  0  0  0
  -12.1646  -26.3787   25.2704 H   0  0  0  0  0  0  0  0  0  0  0  0
   -8.7892  -30.1978   26.1823 H   0  0  0  0  0  0  0  0  0  0  0  0
   -6.4521  -29.6683   25.7637 H   0  0  0  0  0  0  0  0  0  0  0  0
   -5.5606  -27.4022   26.3276 H   0  0  0  0  0  0  0  0  0  0  0  0
   -6.2663  -24.9456   26.9966 H   0  0  0  0  0  0  0  0  0  0  0  0
   -8.5671  -23.9025   28.0952 H   0  0  0  0  0  0  0  0  0  0  0  0
  -13.7269  -26.8915   26.3977 H   0  0  0  0  0  0  0  0  0  0  0  0
  -14.5400  -26.9795   28.6500 H   0  0  0  0  0  0  0  0  0  0  0  0
  -13.1102  -27.8340   29.2016 H   0  0  0  0  0  0  0  0  0  0  0  0
  -12.8954  -25.5286   29.7581 H   0  0  0  0  0  0  0  0  0  0  0  0
  -10.5478  -25.0633   30.1922 H   0  0  0  0  0  0  0  0  0  0  0  0
  -11.6716  -21.3627   31.6438 H   0  0  0  0  0  0  0  0  0  0  0  0
  -12.2195  -22.1951   27.6256 H   0  0  0  0  0  0  0  0  0  0  0  0
  -13.2985  -29.8017   27.3416 H   0  0  0  0  0  0  0  0  0  0  0  0
  -14.9792  -30.3199   25.5015 H   0  0  0  0  0  0  0  0  0  0  0  0
  -15.2206  -28.5418   25.1780 H   0  0  0  0  0  0  0  0  0  0  0  0
  -15.9816  -28.2342   27.5061 H   0  0  0  0  0  0  0  0  0  0  0  0
  -15.6956  -29.9902   27.8621 H   0  0  0  0  0  0  0  0  0  0  0  0
  1  2  1  0
  2  3  1  0
  3  4  2  0
  3  5  1  0
  5  6  2  0
  6  7  1  0
  7  8  2  0
  8  9  1  0
  9 10  1  0
 10 11  2  0
 11 12  1  0
 12 13  2  0
  2 14  1  0
 14 15  1  0
 15 16  1  0
 16 17  1  0
 17 18  2  0
 17 19  1  0
 19 20  2  0
 20 21  1  0
 21 22  2  0
 22 23  1  0
 23 24  2  0
 14 25  1  0
 25 26  1  0
 26 27  1  0
 13  5  1  0
 24 19  1  0
 27 25  1  0
 13  9  1  0
  1 28  1  0
  1 29  1  0
  1 30  1  0
  6 31  1  0
  7 32  1  0
  8 33  1  0
 10 34  1  0
 11 35  1  0
 14 36  1  0
 15 37  1  0
 15 38  1  0
 16 39  1  0
 20 40  1  0
 22 41  1  0
 24 42  1  0
 25 43  1  0
 26 44  1  0
 26 45  1  0
 27 46  1  0
 27 47  1  0
M  END
>  <Energy>  (1556) 
156.69214673297327

>  <compound_id>  (1556) 
36086

>  <target_id>  (1556) 
1

>  <reference_id>  (1556) 
45

>  <inspiration_ids>  (1556) 
[45, 54]

>  <energy_score>  (1556) 
76.76365073197218

>  <distance_score>  (1556) 
1.6162695516979242

>  <path>  (1556) 
/opt/xchem-fragalysis-2/maxwin/BulkDock/SCRATCH/511013/C36086-P45/C36086-P45.minimised.mol

>  <scratch_subdir>  (1556) 
/opt/xchem-fragalysis-2/maxwin/BulkDock/SCRATCH/511013/C36086-P45

>  <fragmenstein_runtime>  (1556) 
10.986614227294922

>  <fragmenstein_outcome>  (1556) 
too moved

>  <fragmenstein_mode>  (1556) 
expansion

>  <fragmenstein_error>  (1556) 


$$$$
C36086-P54
     RDKit          3D

 47 50  0  0  0  0  0  0  0  0999 V2000
  -15.3940  -28.6372   26.8872 C   0  0  0  0  0  0  0  0  0  0  0  0
  -14.4952  -27.4802   27.2024 N   0  0  0  0  0  0  0  0  0  0  0  0
  -13.7148  -27.7688   28.3555 C   0  0  0  0  0  0  0  0  0  0  0  0
  -13.9289  -27.5543   29.5201 O   0  0  0  0  0  0  0  0  0  0  0  0
  -12.3928  -28.3412   27.9648 C   0  0  0  0  0  0  0  0  0  0  0  0
  -12.0246  -29.5780   28.3528 C   0  0  0  0  0  0  0  0  0  0  0  0
  -10.6491  -30.0289   28.1903 C   0  0  0  0  0  0  0  0  0  0  0  0
   -9.7038  -29.1387   27.8411 C   0  0  0  0  0  0  0  0  0  0  0  0
  -10.0991  -27.8741   27.4379 N   0  0  0  0  0  0  0  0  0  0  0  0
   -9.3503  -26.8219   26.9923 C   0  0  0  0  0  0  0  0  0  0  0  0
  -10.2518  -25.8551   26.6330 C   0  0  0  0  0  0  0  0  0  0  0  0
  -11.5295  -26.2881   26.8308 N   0  0  0  0  0  0  0  0  0  0  0  0
  -11.4220  -27.4672   27.3952 C   0  0  0  0  0  0  0  0  0  0  0  0
  -15.8239  -26.6903   27.0486 C   0  0  0  0  0  0  0  0  0  0  0  0
  -15.3552  -25.2217   26.6857 C   0  0  0  0  0  0  0  0  0  0  0  0
  -14.2891  -24.6905   27.5121 N   0  0  0  0  0  0  0  0  0  0  0  0
  -13.1175  -23.9431   27.1674 C   0  0  0  0  0  0  0  0  0  0  0  0
  -12.7568  -23.4968   26.1183 O   0  0  0  0  0  0  0  0  0  0  0  0
  -12.2030  -23.6559   28.3084 C   0  0  0  0  0  0  0  0  0  0  0  0
  -11.9553  -24.5149   29.3585 C   0  0  0  0  0  0  0  0  0  0  0  0
  -11.1016  -24.2567   30.3762 N   0  0  0  0  0  0  0  0  0  0  0  0
  -10.4701  -23.0752   30.3073 C   0  0  0  0  0  0  0  0  0  0  0  0
  -10.5995  -22.1714   29.3238 N   0  0  0  0  0  0  0  0  0  0  0  0
  -11.4565  -22.4948   28.3276 C   0  0  0  0  0  0  0  0  0  0  0  0
  -16.6552  -26.5984   28.3289 C   0  0  0  0  0  0  0  0  0  0  0  0
  -17.9443  -27.3730   28.5094 C   0  0  0  0  0  0  0  0  0  0  0  0
  -17.9943  -25.8911   28.3051 C   0  0  0  0  0  0  0  0  0  0  0  0
  -15.8112  -28.6482   25.8701 H   0  0  0  0  0  0  0  0  0  0  0  0
  -14.7256  -29.5123   26.8594 H   0  0  0  0  0  0  0  0  0  0  0  0
  -16.0907  -28.9189   27.6845 H   0  0  0  0  0  0  0  0  0  0  0  0
  -12.7139  -30.2318   28.8794 H   0  0  0  0  0  0  0  0  0  0  0  0
  -10.4099  -31.0591   28.4238 H   0  0  0  0  0  0  0  0  0  0  0  0
   -8.6453  -29.3634   27.7749 H   0  0  0  0  0  0  0  0  0  0  0  0
   -8.2713  -26.8597   26.9934 H   0  0  0  0  0  0  0  0  0  0  0  0
  -10.0760  -24.8637   26.2413 H   0  0  0  0  0  0  0  0  0  0  0  0
  -16.4551  -26.9285   26.1747 H   0  0  0  0  0  0  0  0  0  0  0  0
  -16.1881  -24.5134   26.7332 H   0  0  0  0  0  0  0  0  0  0  0  0
  -14.9807  -25.2168   25.6549 H   0  0  0  0  0  0  0  0  0  0  0  0
  -14.2259  -24.9745   28.4789 H   0  0  0  0  0  0  0  0  0  0  0  0
  -12.4231  -25.4883   29.4243 H   0  0  0  0  0  0  0  0  0  0  0  0
   -9.7893  -22.8297   31.1151 H   0  0  0  0  0  0  0  0  0  0  0  0
  -11.5277  -21.7620   27.5255 H   0  0  0  0  0  0  0  0  0  0  0  0
  -16.0525  -26.4049   29.2092 H   0  0  0  0  0  0  0  0  0  0  0  0
  -18.1665  -27.7552   29.5003 H   0  0  0  0  0  0  0  0  0  0  0  0
  -18.3165  -27.9952   27.7039 H   0  0  0  0  0  0  0  0  0  0  0  0
  -18.2419  -25.2605   29.1534 H   0  0  0  0  0  0  0  0  0  0  0  0
  -18.3854  -25.5217   27.3638 H   0  0  0  0  0  0  0  0  0  0  0  0
  1  2  1  0
  2  3  1  0
  3  4  2  0
  3  5  1  0
  5  6  2  0
  6  7  1  0
  7  8  2  0
  8  9  1  0
  9 10  1  0
 10 11  2  0
 11 12  1  0
 12 13  2  0
  2 14  1  0
 14 15  1  0
 15 16  1  0
 16 17  1  0
 17 18  2  0
 17 19  1  0
 19 20  2  0
 20 21  1  0
 21 22  2  0
 22 23  1  0
 23 24  2  0
 14 25  1  0
 25 26  1  0
 26 27  1  0
 13  5  1  0
 24 19  1  0
 27 25  1  0
 13  9  1  0
  1 28  1  0
  1 29  1  0
  1 30  1  0
  6 31  1  0
  7 32  1  0
  8 33  1  0
 10 34  1  0
 11 35  1  0
 14 36  1  0
 15 37  1  0
 15 38  1  0
 16 39  1  0
 20 40  1  0
 22 41  1  0
 24 42  1  0
 25 43  1  0
 26 44  1  0
 26 45  1  0
 27 46  1  0
 27 47  1  0
M  END
>  <Energy>  (1557) 
139.56410652179531

>  <compound_id>  (1557) 
36086

>  <target_id>  (1557) 
1

>  <reference_id>  (1557) 
54

>  <inspiration_ids>  (1557) 
[45, 54]

>  <energy_score>  (1557) 
59.63561052079814

>  <distance_score>  (1557) 
3.650353670071908

>  <path>  (1557) 
/opt/xchem-fragalysis-2/maxwin/BulkDock/SCRATCH/511013/C36086-P54/C36086-P54.minimised.mol

>  <scratch_subdir>  (1557) 
/opt/xchem-fragalysis-2/maxwin/BulkDock/SCRATCH/511013/C36086-P54

>  <fragmenstein_runtime>  (1557) 
13.298872709274292

>  <fragmenstein_outcome>  (1557) 
too moved

>  <fragmenstein_mode>  (1557) 
expansion

>  <fragmenstein_error>  (1557) 


$$$$
C36087-P45
     RDKit          3D

 47 50  0  0  0  0  0  0  0  0999 V2000
  -12.6535  -25.7871   25.4695 C   0  0  0  0  0  0  0  0  0  0  0  0
  -11.9042  -24.9670   27.0765 N   0  0  0  0  0  0  0  0  0  0  0  0
  -12.1971  -23.7649   27.6933 C   0  0  0  0  0  0  0  0  0  0  0  0
  -12.8665  -22.8705   27.3540 O   0  0  0  0  0  0  0  0  0  0  0  0
  -11.5351  -23.4402   28.9072 C   0  0  0  0  0  0  0  0  0  0  0  0
  -10.9968  -22.1896   28.9996 C   0  0  0  0  0  0  0  0  0  0  0  0
  -10.9979  -21.4429   30.1220 N   0  0  0  0  0  0  0  0  0  0  0  0
  -11.5377  -21.9964   31.2002 C   0  0  0  0  0  0  0  0  0  0  0  0
  -12.0770  -23.2095   31.2163 N   0  0  0  0  0  0  0  0  0  0  0  0
  -12.1538  -23.8392   30.0261 C   0  0  0  0  0  0  0  0  0  0  0  0
  -12.1742  -25.3870   25.8710 C   0  0  0  0  0  0  0  0  0  0  0  0
  -10.4176  -24.7569   25.6016 C   0  0  0  0  0  0  0  0  0  0  0  0
   -9.4750  -25.6051   26.2565 N   0  0  0  0  0  0  0  0  0  0  0  0
   -8.4860  -25.3217   27.2540 C   0  0  0  0  0  0  0  0  0  0  0  0
   -8.1406  -24.2920   27.7369 O   0  0  0  0  0  0  0  0  0  0  0  0
   -8.0551  -26.7049   27.6147 C   0  0  0  0  0  0  0  0  0  0  0  0
   -7.0256  -27.1966   26.8949 C   0  0  0  0  0  0  0  0  0  0  0  0
   -7.1186  -28.5760   26.4322 C   0  0  0  0  0  0  0  0  0  0  0  0
   -8.2607  -29.2847   26.5435 C   0  0  0  0  0  0  0  0  0  0  0  0
   -9.3504  -28.7513   27.2829 C   0  0  0  0  0  0  0  0  0  0  0  0
  -10.6085  -29.1250   27.4233 N   0  0  0  0  0  0  0  0  0  0  0  0
  -11.1695  -28.2262   28.2978 C   0  0  0  0  0  0  0  0  0  0  0  0
  -10.2555  -27.2750   28.6757 C   0  0  0  0  0  0  0  0  0  0  0  0
   -9.1129  -27.5618   27.9631 N   0  0  0  0  0  0  0  0  0  0  0  0
  -12.6566  -23.8847   24.7328 C   0  0  0  0  0  0  0  0  0  0  0  0
  -12.2728  -22.4367   24.7817 C   0  0  0  0  0  0  0  0  0  0  0  0
  -11.7273  -23.1851   23.6836 C   0  0  0  0  0  0  0  0  0  0  0  0
  -12.1914  -26.2720   24.3969 H   0  0  0  0  0  0  0  0  0  0  0  0
  -13.0515  -26.9232   25.9254 H   0  0  0  0  0  0  0  0  0  0  0  0
  -13.8525  -25.5991   25.2666 H   0  0  0  0  0  0  0  0  0  0  0  0
  -10.6181  -21.7071   28.1120 H   0  0  0  0  0  0  0  0  0  0  0  0
  -11.5236  -21.4284   32.1224 H   0  0  0  0  0  0  0  0  0  0  0  0
  -12.8853  -24.6397   29.9517 H   0  0  0  0  0  0  0  0  0  0  0  0
  -11.2829  -26.5129   25.8682 H   0  0  0  0  0  0  0  0  0  0  0  0
  -10.3361  -23.7866   26.0548 H   0  0  0  0  0  0  0  0  0  0  0  0
  -10.1750  -24.8096   24.5592 H   0  0  0  0  0  0  0  0  0  0  0  0
   -9.4427  -26.5841   26.0301 H   0  0  0  0  0  0  0  0  0  0  0  0
   -6.2752  -26.5575   26.4392 H   0  0  0  0  0  0  0  0  0  0  0  0
   -6.2799  -28.9755   25.8704 H   0  0  0  0  0  0  0  0  0  0  0  0
   -8.3581  -30.2755   26.1144 H   0  0  0  0  0  0  0  0  0  0  0  0
  -12.2008  -28.3164   28.6141 H   0  0  0  0  0  0  0  0  0  0  0  0
  -10.3255  -26.4047   29.3116 H   0  0  0  0  0  0  0  0  0  0  0  0
  -13.7414  -23.8805   24.5609 H   0  0  0  0  0  0  0  0  0  0  0  0
  -12.9061  -21.6589   24.3561 H   0  0  0  0  0  0  0  0  0  0  0  0
  -11.7795  -22.1139   25.6739 H   0  0  0  0  0  0  0  0  0  0  0  0
  -10.6524  -23.2293   23.6138 H   0  0  0  0  0  0  0  0  0  0  0  0
  -12.1124  -22.7518   22.7552 H   0  0  0  0  0  0  0  0  0  0  0  0
  1  2  1  0
  2  3  1  0
  3  4  2  0
  3  5  1  0
  5  6  2  0
  6  7  1  0
  7  8  2  0
  8  9  1  0
  9 10  2  0
  2 11  1  0
 11 12  1  0
 12 13  1  0
 13 14  1  0
 14 15  2  0
 14 16  1  0
 16 17  2  0
 17 18  1  0
 18 19  2  0
 19 20  1  0
 20 21  2  0
 21 22  1  0
 22 23  2  0
 23 24  1  0
 11 25  1  0
 25 26  1  0
 26 27  1  0
 10  5  1  0
 24 16  1  0
 27 25  1  0
 24 20  1  0
  1 28  1  0
  1 29  1  0
  1 30  1  0
  6 31  1  0
  8 32  1  0
 10 33  1  0
 11 34  1  0
 12 35  1  0
 12 36  1  0
 13 37  1  0
 17 38  1  0
 18 39  1  0
 19 40  1  0
 22 41  1  0
 23 42  1  0
 25 43  1  0
 26 44  1  0
 26 45  1  0
 27 46  1  0
 27 47  1  0
M  END
>  <Energy>  (1558) 
1006.5418171305602

>  <compound_id>  (1558) 
36087

>  <target_id>  (1558) 
1

>  <reference_id>  (1558) 
45

>  <inspiration_ids>  (1558) 
[45, 54]

>  <energy_score>  (1558) 
912.4735051763377

>  <distance_score>  (1558) 
3.039849203099167

>  <path>  (1558) 
/opt/xchem-fragalysis-2/maxwin/BulkDock/SCRATCH/511013/C36087-P45/C36087-P45.minimised.mol

>  <scratch_subdir>  (1558) 
/opt/xchem-fragalysis-2/maxwin/BulkDock/SCRATCH/511013/C36087-P45

>  <fragmenstein_runtime>  (1558) 
14.373377561569214

>  <fragmenstein_outcome>  (1558) 
too moved

>  <fragmenstein_mode>  (1558) 
expansion

>  <fragmenstein_error>  (1558) 


$$$$
C36087-P54
     RDKit          3D

 47 50  0  0  0  0  0  0  0  0999 V2000
  -13.1721  -24.8377   26.2536 C   0  0  0  0  0  0  0  0  0  0  0  0
  -13.8819  -25.2716   27.3133 N   0  0  0  0  0  0  0  0  0  0  0  0
  -15.4220  -25.6906   27.1826 C   0  0  0  0  0  0  0  0  0  0  0  0
  -16.1805  -25.6156   26.3249 O   0  0  0  0  0  0  0  0  0  0  0  0
  -15.7898  -26.1597   28.5287 C   0  0  0  0  0  0  0  0  0  0  0  0
  -16.8627  -25.6391   29.2036 C   0  0  0  0  0  0  0  0  0  0  0  0
  -17.0873  -25.8779   30.5157 N   0  0  0  0  0  0  0  0  0  0  0  0
  -16.2027  -26.6763   31.1349 C   0  0  0  0  0  0  0  0  0  0  0  0
  -15.1408  -27.2669   30.5631 N   0  0  0  0  0  0  0  0  0  0  0  0
  -14.9652  -26.9901   29.2539 C   0  0  0  0  0  0  0  0  0  0  0  0
  -12.5850  -24.3162   26.2304 C   0  0  0  0  0  0  0  0  0  0  0  0
  -10.8859  -24.8297   26.2298 C   0  0  0  0  0  0  0  0  0  0  0  0
  -10.4091  -24.7475   27.5666 N   0  0  0  0  0  0  0  0  0  0  0  0
  -10.1245  -23.6244   28.3849 C   0  0  0  0  0  0  0  0  0  0  0  0
  -10.1339  -22.4578   28.1383 O   0  0  0  0  0  0  0  0  0  0  0  0
   -9.8794  -24.0468   29.7793 C   0  0  0  0  0  0  0  0  0  0  0  0
   -8.9310  -23.3925   30.4615 C   0  0  0  0  0  0  0  0  0  0  0  0
   -8.7967  -23.5963   31.8855 C   0  0  0  0  0  0  0  0  0  0  0  0
   -9.4717  -24.5731   32.5029 C   0  0  0  0  0  0  0  0  0  0  0  0
  -10.4200  -25.3366   31.7705 C   0  0  0  0  0  0  0  0  0  0  0  0
  -11.1645  -26.3632   32.1368 N   0  0  0  0  0  0  0  0  0  0  0  0
  -11.9211  -26.6806   31.0540 C   0  0  0  0  0  0  0  0  0  0  0  0
  -11.6766  -25.8033   30.0319 C   0  0  0  0  0  0  0  0  0  0  0  0
  -10.6449  -24.9964   30.4502 N   0  0  0  0  0  0  0  0  0  0  0  0
  -12.7568  -22.7165   25.6990 C   0  0  0  0  0  0  0  0  0  0  0  0
  -13.5513  -22.4480   24.4498 C   0  0  0  0  0  0  0  0  0  0  0  0
  -12.1123  -22.0606   24.4884 C   0  0  0  0  0  0  0  0  0  0  0  0
  -12.8716  -26.0623   26.2040 H   0  0  0  0  0  0  0  0  0  0  0  0
  -14.2864  -24.3349   25.8825 H   0  0  0  0  0  0  0  0  0  0  0  0
  -13.5622  -25.3601   25.1494 H   0  0  0  0  0  0  0  0  0  0  0  0
  -17.5666  -24.9656   28.7229 H   0  0  0  0  0  0  0  0  0  0  0  0
  -16.3673  -26.8650   32.1906 H   0  0  0  0  0  0  0  0  0  0  0  0
  -14.0950  -27.4538   28.8011 H   0  0  0  0  0  0  0  0  0  0  0  0
  -12.3098  -23.7093   27.2864 H   0  0  0  0  0  0  0  0  0  0  0  0
  -10.7940  -25.8602   25.8795 H   0  0  0  0  0  0  0  0  0  0  0  0
  -10.3402  -24.1145   25.6145 H   0  0  0  0  0  0  0  0  0  0  0  0
  -10.2183  -25.5933   28.0897 H   0  0  0  0  0  0  0  0  0  0  0  0
   -8.2553  -22.7163   29.9729 H   0  0  0  0  0  0  0  0  0  0  0  0
   -8.1003  -22.9707   32.4374 H   0  0  0  0  0  0  0  0  0  0  0  0
   -9.3288  -24.7675   33.5573 H   0  0  0  0  0  0  0  0  0  0  0  0
  -12.6260  -27.5012   31.0882 H   0  0  0  0  0  0  0  0  0  0  0  0
  -12.1421  -25.7103   29.0686 H   0  0  0  0  0  0  0  0  0  0  0  0
  -12.7528  -22.0554   26.5506 H   0  0  0  0  0  0  0  0  0  0  0  0
  -14.3072  -21.6755   24.5181 H   0  0  0  0  0  0  0  0  0  0  0  0
  -13.7929  -23.2579   23.7917 H   0  0  0  0  0  0  0  0  0  0  0  0
  -11.9438  -20.9859   24.4852 H   0  0  0  0  0  0  0  0  0  0  0  0
  -11.3550  -22.5570   23.9123 H   0  0  0  0  0  0  0  0  0  0  0  0
  1  2  1  0
  2  3  1  0
  3  4  2  0
  3  5  1  0
  5  6  2  0
  6  7  1  0
  7  8  2  0
  8  9  1  0
  9 10  2  0
  2 11  1  0
 11 12  1  0
 12 13  1  0
 13 14  1  0
 14 15  2  0
 14 16  1  0
 16 17  2  0
 17 18  1  0
 18 19  2  0
 19 20  1  0
 20 21  2  0
 21 22  1  0
 22 23  2  0
 23 24  1  0
 11 25  1  0
 25 26  1  0
 26 27  1  0
 10  5  1  0
 24 16  1  0
 27 25  1  0
 24 20  1  0
  1 28  1  0
  1 29  1  0
  1 30  1  0
  6 31  1  0
  8 32  1  0
 10 33  1  0
 11 34  1  0
 12 35  1  0
 12 36  1  0
 13 37  1  0
 17 38  1  0
 18 39  1  0
 19 40  1  0
 22 41  1  0
 23 42  1  0
 25 43  1  0
 26 44  1  0
 26 45  1  0
 27 46  1  0
 27 47  1  0
M  END
>  <Energy>  (1559) 
806.64559713314031

>  <compound_id>  (1559) 
36087

>  <target_id>  (1559) 
1

>  <reference_id>  (1559) 
54

>  <inspiration_ids>  (1559) 
[45, 54]

>  <energy_score>  (1559) 
712.5772851789268

>  <distance_score>  (1559) 
6.319072172796575

>  <path>  (1559) 
/opt/xchem-fragalysis-2/maxwin/BulkDock/SCRATCH/511013/C36087-P54/C36087-P54.minimised.mol

>  <scratch_subdir>  (1559) 
/opt/xchem-fragalysis-2/maxwin/BulkDock/SCRATCH/511013/C36087-P54

>  <fragmenstein_runtime>  (1559) 
14.75631070137024

>  <fragmenstein_outcome>  (1559) 
too moved

>  <fragmenstein_mode>  (1559) 
expansion

>  <fragmenstein_error>  (1559) 


$$$$
C36088-P45
     RDKit          3D

 47 50  0  0  0  0  0  0  0  0999 V2000
  -11.3471  -24.1989   26.2651 C   0  0  0  0  0  0  0  0  0  0  0  0
  -11.1283  -25.5129   26.8409 N   0  0  0  0  0  0  0  0  0  0  0  0
  -12.0401  -26.4408   27.3962 C   0  0  0  0  0  0  0  0  0  0  0  0
  -13.2189  -26.3405   27.6157 O   0  0  0  0  0  0  0  0  0  0  0  0
  -11.4623  -27.7535   27.6445 C   0  0  0  0  0  0  0  0  0  0  0  0
  -12.1368  -28.8063   28.2442 C   0  0  0  0  0  0  0  0  0  0  0  0
  -11.5315  -30.0088   28.0138 N   0  0  0  0  0  0  0  0  0  0  0  0
  -10.4648  -29.7157   27.3072 C   0  0  0  0  0  0  0  0  0  0  0  0
   -9.5187  -30.5453   26.6421 C   0  0  0  0  0  0  0  0  0  0  0  0
   -8.4634  -29.9816   26.0359 C   0  0  0  0  0  0  0  0  0  0  0  0
   -8.1726  -28.5868   26.1717 C   0  0  0  0  0  0  0  0  0  0  0  0
   -9.1508  -27.8056   26.6337 C   0  0  0  0  0  0  0  0  0  0  0  0
  -10.3032  -28.3404   27.1738 N   0  0  0  0  0  0  0  0  0  0  0  0
  -10.4172  -24.5883   28.0488 C   0  0  0  0  0  0  0  0  0  0  0  0
  -11.0034  -24.8588   29.4688 C   0  0  0  0  0  0  0  0  0  0  0  0
  -11.4192  -23.7942   30.3764 N   0  0  0  0  0  0  0  0  0  0  0  0
  -12.0419  -22.5412   30.1224 C   0  0  0  0  0  0  0  0  0  0  0  0
  -12.3117  -21.9998   29.0973 O   0  0  0  0  0  0  0  0  0  0  0  0
  -12.4977  -21.8886   31.3701 C   0  0  0  0  0  0  0  0  0  0  0  0
  -11.7096  -21.4554   32.3974 C   0  0  0  0  0  0  0  0  0  0  0  0
  -12.1789  -21.0940   33.6094 N   0  0  0  0  0  0  0  0  0  0  0  0
  -13.5068  -21.1404   33.7763 C   0  0  0  0  0  0  0  0  0  0  0  0
  -14.3904  -21.4281   32.8131 N   0  0  0  0  0  0  0  0  0  0  0  0
  -13.8630  -21.8435   31.6398 C   0  0  0  0  0  0  0  0  0  0  0  0
   -8.9040  -24.9798   28.1278 C   0  0  0  0  0  0  0  0  0  0  0  0
   -7.9099  -24.8485   26.9854 C   0  0  0  0  0  0  0  0  0  0  0  0
   -7.8207  -23.9143   28.1323 C   0  0  0  0  0  0  0  0  0  0  0  0
  -11.9920  -23.5133   26.8301 H   0  0  0  0  0  0  0  0  0  0  0  0
  -10.4279  -23.8427   25.8435 H   0  0  0  0  0  0  0  0  0  0  0  0
  -11.9665  -24.4046   25.3793 H   0  0  0  0  0  0  0  0  0  0  0  0
  -13.0986  -28.7580   28.7427 H   0  0  0  0  0  0  0  0  0  0  0  0
   -9.7119  -31.6008   26.5317 H   0  0  0  0  0  0  0  0  0  0  0  0
   -7.8281  -30.5424   25.3662 H   0  0  0  0  0  0  0  0  0  0  0  0
   -7.2362  -28.2017   25.7897 H   0  0  0  0  0  0  0  0  0  0  0  0
   -9.0854  -26.7498   26.5759 H   0  0  0  0  0  0  0  0  0  0  0  0
  -10.4083  -23.4938   27.9213 H   0  0  0  0  0  0  0  0  0  0  0  0
  -11.9436  -25.3902   29.3649 H   0  0  0  0  0  0  0  0  0  0  0  0
  -10.3412  -25.5055   30.0552 H   0  0  0  0  0  0  0  0  0  0  0  0
  -11.2734  -23.8946   31.3789 H   0  0  0  0  0  0  0  0  0  0  0  0
  -10.6526  -21.3346   32.3074 H   0  0  0  0  0  0  0  0  0  0  0  0
  -13.8962  -20.8891   34.7566 H   0  0  0  0  0  0  0  0  0  0  0  0
  -14.6002  -22.2208   30.9366 H   0  0  0  0  0  0  0  0  0  0  0  0
   -8.7503  -25.8555   28.7476 H   0  0  0  0  0  0  0  0  0  0  0  0
   -8.2767  -24.5342   26.0267 H   0  0  0  0  0  0  0  0  0  0  0  0
   -7.1054  -25.5756   26.9004 H   0  0  0  0  0  0  0  0  0  0  0  0
   -6.9398  -24.0354   28.7500 H   0  0  0  0  0  0  0  0  0  0  0  0
   -8.0648  -22.8790   27.9565 H   0  0  0  0  0  0  0  0  0  0  0  0
  1  2  1  0
  2  3  1  0
  3  4  2  0
  3  5  1  0
  5  6  2  0
  6  7  1  0
  7  8  2  0
  8  9  1  0
  9 10  2  0
 10 11  1  0
 11 12  2  0
 12 13  1  0
  2 14  1  0
 14 15  1  0
 15 16  1  0
 16 17  1  0
 17 18  2  0
 17 19  1  0
 19 20  2  0
 20 21  1  0
 21 22  2  0
 22 23  1  0
 23 24  2  0
 14 25  1  0
 25 26  1  0
 26 27  1  0
 13  5  1  0
 24 19  1  0
 27 25  1  0
 13  8  1  0
  1 28  1  0
  1 29  1  0
  1 30  1  0
  6 31  1  0
  9 32  1  0
 10 33  1  0
 11 34  1  0
 12 35  1  0
 14 36  1  0
 15 37  1  0
 15 38  1  0
 16 39  1  0
 20 40  1  0
 22 41  1  0
 24 42  1  0
 25 43  1  0
 26 44  1  0
 26 45  1  0
 27 46  1  0
 27 47  1  0
M  END
>  <Energy>  (1560) 
136.79637199049688

>  <compound_id>  (1560) 
36088

>  <target_id>  (1560) 
1

>  <reference_id>  (1560) 
45

>  <inspiration_ids>  (1560) 
[45, 54]

>  <energy_score>  (1560) 
73.827173800183

>  <distance_score>  (1560) 
4.797012191052453

>  <path>  (1560) 
/opt/xchem-fragalysis-2/maxwin/BulkDock/SCRATCH/511013/C36088-P45/C36088-P45.minimised.mol

>  <scratch_subdir>  (1560) 
/opt/xchem-fragalysis-2/maxwin/BulkDock/SCRATCH/511013/C36088-P45

>  <fragmenstein_runtime>  (1560) 
8.051345586776733

>  <fragmenstein_outcome>  (1560) 
too moved

>  <fragmenstein_mode>  (1560) 
expansion

>  <fragmenstein_error>  (1560) 


$$$$
C36088-P54
     RDKit          3D

 47 50  0  0  0  0  0  0  0  0999 V2000
   -7.4684  -21.9109   23.9536 C   0  0  0  0  0  0  0  0  0  0  0  0
   -7.2354  -22.7309   24.8990 N   0  0  0  0  0  0  0  0  0  0  0  0
   -5.7422  -23.7087   25.2681 C   0  0  0  0  0  0  0  0  0  0  0  0
   -4.7528  -23.6729   24.5162 O   0  0  0  0  0  0  0  0  0  0  0  0
   -6.0963  -25.0897   27.1115 C   0  0  0  0  0  0  0  0  0  0  0  0
   -7.0131  -24.7461   28.4749 C   0  0  0  0  0  0  0  0  0  0  0  0
   -8.3962  -24.8453   28.3800 N   0  0  0  0  0  0  0  0  0  0  0  0
   -8.5617  -25.8266   27.5505 C   0  0  0  0  0  0  0  0  0  0  0  0
   -9.7232  -26.6324   27.3507 C   0  0  0  0  0  0  0  0  0  0  0  0
   -9.5385  -27.9351   27.0963 C   0  0  0  0  0  0  0  0  0  0  0  0
   -8.2276  -28.4284   26.7604 C   0  0  0  0  0  0  0  0  0  0  0  0
   -7.1871  -27.5955   26.6817 C   0  0  0  0  0  0  0  0  0  0  0  0
   -7.3118  -26.2986   27.1091 N   0  0  0  0  0  0  0  0  0  0  0  0
   -8.7219  -23.1333   23.9754 C   0  0  0  0  0  0  0  0  0  0  0  0
   -9.9046  -23.7164   25.2570 C   0  0  0  0  0  0  0  0  0  0  0  0
  -10.0727  -23.1655   26.5857 N   0  0  0  0  0  0  0  0  0  0  0  0
  -11.0973  -23.3641   27.5543 C   0  0  0  0  0  0  0  0  0  0  0  0
  -12.1245  -23.9749   27.4928 O   0  0  0  0  0  0  0  0  0  0  0  0
  -10.8938  -22.6867   28.8251 C   0  0  0  0  0  0  0  0  0  0  0  0
  -11.1890  -21.3540   28.9651 C   0  0  0  0  0  0  0  0  0  0  0  0
  -11.2991  -20.7579   30.1686 N   0  0  0  0  0  0  0  0  0  0  0  0
  -11.0852  -21.5482   31.2404 C   0  0  0  0  0  0  0  0  0  0  0  0
  -10.7549  -22.8518   31.2101 N   0  0  0  0  0  0  0  0  0  0  0  0
  -10.6962  -23.4049   29.9826 C   0  0  0  0  0  0  0  0  0  0  0  0
  -10.2001  -22.0818   23.4920 C   0  0  0  0  0  0  0  0  0  0  0  0
  -10.8201  -20.7253   23.1735 C   0  0  0  0  0  0  0  0  0  0  0  0
  -10.3214  -21.5360   22.0606 C   0  0  0  0  0  0  0  0  0  0  0  0
   -8.1784  -21.3068   23.4072 H   0  0  0  0  0  0  0  0  0  0  0  0
   -7.0890  -21.5705   24.9738 H   0  0  0  0  0  0  0  0  0  0  0  0
   -6.6028  -22.1431   23.3054 H   0  0  0  0  0  0  0  0  0  0  0  0
   -6.7567  -23.8912   29.0518 H   0  0  0  0  0  0  0  0  0  0  0  0
  -10.6959  -26.2411   27.6253 H   0  0  0  0  0  0  0  0  0  0  0  0
  -10.3677  -28.6238   27.1520 H   0  0  0  0  0  0  0  0  0  0  0  0
   -8.0142  -29.4535   26.5298 H   0  0  0  0  0  0  0  0  0  0  0  0
   -6.2151  -27.8420   26.2779 H   0  0  0  0  0  0  0  0  0  0  0  0
   -8.4806  -23.2838   22.9519 H   0  0  0  0  0  0  0  0  0  0  0  0
  -10.9302  -23.5739   25.0094 H   0  0  0  0  0  0  0  0  0  0  0  0
   -9.8493  -24.7910   25.4192 H   0  0  0  0  0  0  0  0  0  0  0  0
   -9.3058  -22.6602   27.0159 H   0  0  0  0  0  0  0  0  0  0  0  0
  -11.3942  -20.7222   28.1069 H   0  0  0  0  0  0  0  0  0  0  0  0
  -11.1858  -21.0876   32.2179 H   0  0  0  0  0  0  0  0  0  0  0  0
  -10.5075  -24.4733   29.9620 H   0  0  0  0  0  0  0  0  0  0  0  0
  -11.1030  -22.6483   23.6718 H   0  0  0  0  0  0  0  0  0  0  0  0
  -10.4221  -19.7695   23.3695 H   0  0  0  0  0  0  0  0  0  0  0  0
  -11.9073  -20.6580   23.2765 H   0  0  0  0  0  0  0  0  0  0  0  0
  -11.0711  -21.9422   21.3864 H   0  0  0  0  0  0  0  0  0  0  0  0
   -9.4158  -21.2941   21.5499 H   0  0  0  0  0  0  0  0  0  0  0  0
  1  2  1  0
  2  3  1  0
  3  4  2  0
  3  5  1  0
  5  6  2  0
  6  7  1  0
  7  8  2  0
  8  9  1  0
  9 10  2  0
 10 11  1  0
 11 12  2  0
 12 13  1  0
  2 14  1  0
 14 15  1  0
 15 16  1  0
 16 17  1  0
 17 18  2  0
 17 19  1  0
 19 20  2  0
 20 21  1  0
 21 22  2  0
 22 23  1  0
 23 24  2  0
 14 25  1  0
 25 26  1  0
 26 27  1  0
 13  5  1  0
 24 19  1  0
 27 25  1  0
 13  8  1  0
  1 28  1  0
  1 29  1  0
  1 30  1  0
  6 31  1  0
  9 32  1  0
 10 33  1  0
 11 34  1  0
 12 35  1  0
 14 36  1  0
 15 37  1  0
 15 38  1  0
 16 39  1  0
 20 40  1  0
 22 41  1  0
 24 42  1  0
 25 43  1  0
 26 44  1  0
 26 45  1  0
 27 46  1  0
 27 47  1  0
M  END
>  <Energy>  (1561) 
929.28377042766908

>  <compound_id>  (1561) 
36088

>  <target_id>  (1561) 
1

>  <reference_id>  (1561) 
54

>  <inspiration_ids>  (1561) 
[45, 54]

>  <energy_score>  (1561) 
866.3145722373526

>  <distance_score>  (1561) 
1.7886969216247148

>  <path>  (1561) 
/opt/xchem-fragalysis-2/maxwin/BulkDock/SCRATCH/511013/C36088-P54/C36088-P54.minimised.mol

>  <scratch_subdir>  (1561) 
/opt/xchem-fragalysis-2/maxwin/BulkDock/SCRATCH/511013/C36088-P54

>  <fragmenstein_runtime>  (1561) 
11.132352352142334

>  <fragmenstein_outcome>  (1561) 
too moved

>  <fragmenstein_mode>  (1561) 
expansion

>  <fragmenstein_error>  (1561) 


$$$$
C36085-P45
     RDKit          3D

 47 50  0  0  0  0  0  0  0  0999 V2000
  -12.7445  -26.8724   27.8098 C   0  0  0  0  0  0  0  0  0  0  0  0
  -12.2508  -26.5544   26.3583 C   0  0  0  0  0  0  0  0  0  0  0  0
  -12.2699  -25.0678   25.8564 C   0  0  0  0  0  0  0  0  0  0  0  0
  -12.0079  -24.2061   26.9578 N   0  0  0  0  0  0  0  0  0  0  0  0
  -11.0386  -24.3576   28.1267 C   0  0  0  0  0  0  0  0  0  0  0  0
  -10.2409  -25.1721   28.3422 O   0  0  0  0  0  0  0  0  0  0  0  0
  -11.2149  -23.3903   29.1589 C   0  0  0  0  0  0  0  0  0  0  0  0
  -11.7076  -22.1424   29.0306 C   0  0  0  0  0  0  0  0  0  0  0  0
  -12.0214  -21.4198   30.1057 N   0  0  0  0  0  0  0  0  0  0  0  0
  -11.7936  -21.9579   31.3145 C   0  0  0  0  0  0  0  0  0  0  0  0
  -11.2998  -23.1734   31.5395 N   0  0  0  0  0  0  0  0  0  0  0  0
  -10.9830  -23.8465   30.4307 C   0  0  0  0  0  0  0  0  0  0  0  0
  -10.8195  -26.8583   26.3740 N   0  0  0  0  0  0  0  0  0  0  0  0
  -10.0726  -28.0926   26.8705 C   0  0  0  0  0  0  0  0  0  0  0  0
  -10.4756  -29.1048   27.2789 O   0  0  0  0  0  0  0  0  0  0  0  0
   -8.5868  -27.8123   26.7517 C   0  0  0  0  0  0  0  0  0  0  0  0
   -7.9007  -28.9127   26.4029 C   0  0  0  0  0  0  0  0  0  0  0  0
   -6.4841  -28.8706   26.1874 C   0  0  0  0  0  0  0  0  0  0  0  0
   -5.7688  -27.7846   26.5017 C   0  0  0  0  0  0  0  0  0  0  0  0
   -6.4605  -26.6353   26.8404 N   0  0  0  0  0  0  0  0  0  0  0  0
   -5.9621  -25.3755   27.0732 C   0  0  0  0  0  0  0  0  0  0  0  0
   -7.0622  -24.5629   27.1434 C   0  0  0  0  0  0  0  0  0  0  0  0
   -8.2111  -25.2897   26.9472 N   0  0  0  0  0  0  0  0  0  0  0  0
   -7.8601  -26.5631   26.8887 C   0  0  0  0  0  0  0  0  0  0  0  0
  -13.0455  -27.4016   25.3859 C   0  0  0  0  0  0  0  0  0  0  0  0
  -14.4353  -27.0610   24.8516 C   0  0  0  0  0  0  0  0  0  0  0  0
  -14.2985  -28.1617   25.8444 C   0  0  0  0  0  0  0  0  0  0  0  0
  -12.7265  -27.9573   27.9818 H   0  0  0  0  0  0  0  0  0  0  0  0
  -13.7615  -26.5569   28.0308 H   0  0  0  0  0  0  0  0  0  0  0  0
  -12.1207  -26.4750   28.6075 H   0  0  0  0  0  0  0  0  0  0  0  0
  -13.2069  -24.7640   25.3918 H   0  0  0  0  0  0  0  0  0  0  0  0
  -11.4971  -24.8846   25.1004 H   0  0  0  0  0  0  0  0  0  0  0  0
  -12.6241  -23.4199   27.1296 H   0  0  0  0  0  0  0  0  0  0  0  0
  -11.8620  -21.6775   28.0703 H   0  0  0  0  0  0  0  0  0  0  0  0
  -12.0276  -21.3549   32.1845 H   0  0  0  0  0  0  0  0  0  0  0  0
  -10.4491  -24.7817   30.5986 H   0  0  0  0  0  0  0  0  0  0  0  0
  -10.1499  -26.1170   26.1657 H   0  0  0  0  0  0  0  0  0  0  0  0
   -8.3825  -29.8779   26.2554 H   0  0  0  0  0  0  0  0  0  0  0  0
   -6.0781  -29.7586   25.7414 H   0  0  0  0  0  0  0  0  0  0  0  0
   -4.6953  -27.7117   26.3766 H   0  0  0  0  0  0  0  0  0  0  0  0
   -4.9002  -25.1828   27.1266 H   0  0  0  0  0  0  0  0  0  0  0  0
   -7.0915  -23.4919   27.2933 H   0  0  0  0  0  0  0  0  0  0  0  0
  -12.3813  -27.7920   24.6316 H   0  0  0  0  0  0  0  0  0  0  0  0
  -14.7223  -27.3699   23.8546 H   0  0  0  0  0  0  0  0  0  0  0  0
  -14.9571  -26.1660   25.1592 H   0  0  0  0  0  0  0  0  0  0  0  0
  -14.7732  -27.9942   26.8053 H   0  0  0  0  0  0  0  0  0  0  0  0
  -14.4458  -29.1900   25.5424 H   0  0  0  0  0  0  0  0  0  0  0  0
  1  2  1  0
  2  3  1  0
  3  4  1  0
  4  5  1  0
  5  6  2  0
  5  7  1  0
  7  8  2  0
  8  9  1  0
  9 10  2  0
 10 11  1  0
 11 12  2  0
  2 13  1  0
 13 14  1  0
 14 15  2  0
 14 16  1  0
 16 17  2  0
 17 18  1  0
 18 19  2  0
 19 20  1  0
 20 21  1  0
 21 22  2  0
 22 23  1  0
 23 24  2  0
  2 25  1  0
 25 26  1  0
 26 27  1  0
 12  7  1  0
 24 16  1  0
 27 25  1  0
 24 20  1  0
  1 28  1  0
  1 29  1  0
  1 30  1  0
  3 31  1  0
  3 32  1  0
  4 33  1  0
  8 34  1  0
 10 35  1  0
 12 36  1  0
 13 37  1  0
 17 38  1  0
 18 39  1  0
 19 40  1  0
 21 41  1  0
 22 42  1  0
 25 43  1  0
 26 44  1  0
 26 45  1  0
 27 46  1  0
 27 47  1  0
M  END
>  <Energy>  (1562) 
116.15164461107389

>  <compound_id>  (1562) 
36085

>  <target_id>  (1562) 
1

>  <reference_id>  (1562) 
45

>  <inspiration_ids>  (1562) 
[45, 54]

>  <energy_score>  (1562) 
31.14371456310988

>  <distance_score>  (1562) 
1.4450230351620619

>  <path>  (1562) 
/opt/xchem-fragalysis-2/maxwin/BulkDock/SCRATCH/511013/C36085-P45/C36085-P45.minimised.mol

>  <scratch_subdir>  (1562) 
/opt/xchem-fragalysis-2/maxwin/BulkDock/SCRATCH/511013/C36085-P45

>  <fragmenstein_runtime>  (1562) 
7.577260971069336

>  <fragmenstein_outcome>  (1562) 
too moved

>  <fragmenstein_mode>  (1562) 
expansion

>  <fragmenstein_error>  (1562) 


$$$$
C36085-P54
     RDKit          3D

 47 50  0  0  0  0  0  0  0  0999 V2000
  -15.5097  -28.8738   27.7273 C   0  0  0  0  0  0  0  0  0  0  0  0
  -14.8529  -27.4834   27.5497 C   0  0  0  0  0  0  0  0  0  0  0  0
  -15.1415  -26.6597   28.8487 C   0  0  0  0  0  0  0  0  0  0  0  0
  -14.0046  -25.8758   29.2987 N   0  0  0  0  0  0  0  0  0  0  0  0
  -13.3684  -24.6063   28.7058 C   0  0  0  0  0  0  0  0  0  0  0  0
  -13.7008  -23.9453   27.8087 O   0  0  0  0  0  0  0  0  0  0  0  0
  -12.1484  -24.1578   29.4216 C   0  0  0  0  0  0  0  0  0  0  0  0
  -11.7193  -22.8463   29.3152 C   0  0  0  0  0  0  0  0  0  0  0  0
  -10.6255  -22.3589   29.9378 N   0  0  0  0  0  0  0  0  0  0  0  0
   -9.9458  -23.2377   30.6845 C   0  0  0  0  0  0  0  0  0  0  0  0
  -10.2357  -24.5403   30.8257 N   0  0  0  0  0  0  0  0  0  0  0  0
  -11.3272  -24.9736   30.1638 C   0  0  0  0  0  0  0  0  0  0  0  0
  -13.4082  -27.6511   27.3863 N   0  0  0  0  0  0  0  0  0  0  0  0
  -12.4089  -28.5182   28.1680 C   0  0  0  0  0  0  0  0  0  0  0  0
  -12.5866  -29.2960   29.0167 O   0  0  0  0  0  0  0  0  0  0  0  0
  -11.0117  -28.2135   27.7033 C   0  0  0  0  0  0  0  0  0  0  0  0
  -10.0944  -29.1940   27.8473 C   0  0  0  0  0  0  0  0  0  0  0  0
   -8.7097  -29.0039   27.4694 C   0  0  0  0  0  0  0  0  0  0  0  0
   -8.2827  -27.7798   27.1531 C   0  0  0  0  0  0  0  0  0  0  0  0
   -9.1942  -26.7517   27.2124 N   0  0  0  0  0  0  0  0  0  0  0  0
   -9.0338  -25.4356   27.5187 C   0  0  0  0  0  0  0  0  0  0  0  0
  -10.1888  -24.8458   27.0857 C   0  0  0  0  0  0  0  0  0  0  0  0
  -11.1596  -25.8055   26.9463 N   0  0  0  0  0  0  0  0  0  0  0  0
  -10.5611  -26.9342   27.2674 C   0  0  0  0  0  0  0  0  0  0  0  0
  -15.4164  -26.8810   26.2642 C   0  0  0  0  0  0  0  0  0  0  0  0
  -14.7091  -25.7882   25.4969 C   0  0  0  0  0  0  0  0  0  0  0  0
  -16.0309  -25.5009   26.1408 C   0  0  0  0  0  0  0  0  0  0  0  0
  -16.6012  -28.7860   27.7813 H   0  0  0  0  0  0  0  0  0  0  0  0
  -15.1708  -29.3762   28.6395 H   0  0  0  0  0  0  0  0  0  0  0  0
  -15.2697  -29.5361   26.8865 H   0  0  0  0  0  0  0  0  0  0  0  0
  -16.0030  -25.9966   28.7432 H   0  0  0  0  0  0  0  0  0  0  0  0
  -15.3602  -27.3303   29.6879 H   0  0  0  0  0  0  0  0  0  0  0  0
  -13.4114  -26.2415   30.0237 H   0  0  0  0  0  0  0  0  0  0  0  0
  -12.2398  -22.1209   28.7001 H   0  0  0  0  0  0  0  0  0  0  0  0
   -9.0763  -22.8664   31.2159 H   0  0  0  0  0  0  0  0  0  0  0  0
  -11.4810  -26.0420   30.2520 H   0  0  0  0  0  0  0  0  0  0  0  0
  -12.9006  -27.0197   26.7706 H   0  0  0  0  0  0  0  0  0  0  0  0
  -10.3776  -30.1779   28.2115 H   0  0  0  0  0  0  0  0  0  0  0  0
   -8.0574  -29.8629   27.4648 H   0  0  0  0  0  0  0  0  0  0  0  0
   -7.2549  -27.5450   26.9224 H   0  0  0  0  0  0  0  0  0  0  0  0
   -8.1274  -25.0575   27.9599 H   0  0  0  0  0  0  0  0  0  0  0  0
  -10.4090  -23.7903   26.9749 H   0  0  0  0  0  0  0  0  0  0  0  0
  -15.8769  -27.6470   25.6441 H   0  0  0  0  0  0  0  0  0  0  0  0
  -13.8392  -25.2903   25.9017 H   0  0  0  0  0  0  0  0  0  0  0  0
  -14.6741  -25.8675   24.4213 H   0  0  0  0  0  0  0  0  0  0  0  0
  -16.8964  -25.3880   25.4966 H   0  0  0  0  0  0  0  0  0  0  0  0
  -16.0216  -24.7931   26.9612 H   0  0  0  0  0  0  0  0  0  0  0  0
  1  2  1  0
  2  3  1  0
  3  4  1  0
  4  5  1  0
  5  6  2  0
  5  7  1  0
  7  8  2  0
  8  9  1  0
  9 10  2  0
 10 11  1  0
 11 12  2  0
  2 13  1  0
 13 14  1  0
 14 15  2  0
 14 16  1  0
 16 17  2  0
 17 18  1  0
 18 19  2  0
 19 20  1  0
 20 21  1  0
 21 22  2  0
 22 23  1  0
 23 24  2  0
  2 25  1  0
 25 26  1  0
 26 27  1  0
 12  7  1  0
 24 16  1  0
 27 25  1  0
 24 20  1  0
  1 28  1  0
  1 29  1  0
  1 30  1  0
  3 31  1  0
  3 32  1  0
  4 33  1  0
  8 34  1  0
 10 35  1  0
 12 36  1  0
 13 37  1  0
 17 38  1  0
 18 39  1  0
 19 40  1  0
 21 41  1  0
 22 42  1  0
 25 43  1  0
 26 44  1  0
 26 45  1  0
 27 46  1  0
 27 47  1  0
M  END
>  <Energy>  (1563) 
94.309386011019157

>  <compound_id>  (1563) 
36085

>  <target_id>  (1563) 
1

>  <reference_id>  (1563) 
54

>  <inspiration_ids>  (1563) 
[45, 54]

>  <energy_score>  (1563) 
9.30145596305772

>  <distance_score>  (1563) 
2.7708658484785076

>  <path>  (1563) 
/opt/xchem-fragalysis-2/maxwin/BulkDock/SCRATCH/511013/C36085-P54/C36085-P54.minimised.mol

>  <scratch_subdir>  (1563) 
/opt/xchem-fragalysis-2/maxwin/BulkDock/SCRATCH/511013/C36085-P54

>  <fragmenstein_runtime>  (1563) 
9.27409839630127

>  <fragmenstein_outcome>  (1563) 
too moved

>  <fragmenstein_mode>  (1563) 
expansion

>  <fragmenstein_error>  (1563) 


$$$$
C36089-P45
     RDKit          3D

 47 50  0  0  0  0  0  0  0  0999 V2000
  -12.3801  -26.2407   26.5285 C   0  0  0  0  0  0  0  0  0  0  0  0
  -11.9674  -24.8719   27.8967 N   0  0  0  0  0  0  0  0  0  0  0  0
  -11.1622  -24.9631   29.0969 C   0  0  0  0  0  0  0  0  0  0  0  0
  -10.4445  -25.8314   29.4963 O   0  0  0  0  0  0  0  0  0  0  0  0
  -11.3093  -23.7887   29.9779 C   0  0  0  0  0  0  0  0  0  0  0  0
  -10.8258  -23.8352   31.2788 C   0  0  0  0  0  0  0  0  0  0  0  0
  -11.0949  -22.9237   32.2323 N   0  0  0  0  0  0  0  0  0  0  0  0
  -11.7879  -21.8664   31.8168 C   0  0  0  0  0  0  0  0  0  0  0  0
  -12.2500  -21.6889   30.5706 N   0  0  0  0  0  0  0  0  0  0  0  0
  -11.9891  -22.6500   29.6657 C   0  0  0  0  0  0  0  0  0  0  0  0
  -12.0240  -25.6481   26.8490 C   0  0  0  0  0  0  0  0  0  0  0  0
  -10.5076  -25.2557   25.8692 C   0  0  0  0  0  0  0  0  0  0  0  0
   -9.2699  -25.6631   26.3703 N   0  0  0  0  0  0  0  0  0  0  0  0
   -8.7765  -26.9600   26.7164 C   0  0  0  0  0  0  0  0  0  0  0  0
   -9.3232  -28.0222   26.7419 O   0  0  0  0  0  0  0  0  0  0  0  0
   -7.3164  -26.8205   26.9719 C   0  0  0  0  0  0  0  0  0  0  0  0
   -6.4938  -27.8564   26.7156 C   0  0  0  0  0  0  0  0  0  0  0  0
   -5.0574  -27.6581   26.7242 C   0  0  0  0  0  0  0  0  0  0  0  0
   -4.5503  -26.4496   26.9968 C   0  0  0  0  0  0  0  0  0  0  0  0
   -5.4070  -25.4230   27.2933 N   0  0  0  0  0  0  0  0  0  0  0  0
   -5.1519  -24.1748   27.7611 C   0  0  0  0  0  0  0  0  0  0  0  0
   -6.3401  -23.5048   27.7559 C   0  0  0  0  0  0  0  0  0  0  0  0
   -7.3479  -24.3599   27.4526 N   0  0  0  0  0  0  0  0  0  0  0  0
   -6.7676  -25.5337   27.2572 C   0  0  0  0  0  0  0  0  0  0  0  0
  -12.5728  -24.0444   26.0337 C   0  0  0  0  0  0  0  0  0  0  0  0
  -12.2437  -23.5209   24.6331 C   0  0  0  0  0  0  0  0  0  0  0  0
  -13.6091  -24.0145   24.8906 C   0  0  0  0  0  0  0  0  0  0  0  0
  -13.2810  -26.1868   25.7184 H   0  0  0  0  0  0  0  0  0  0  0  0
  -13.1189  -26.9803   27.2487 H   0  0  0  0  0  0  0  0  0  0  0  0
  -11.6926  -27.2640   26.2318 H   0  0  0  0  0  0  0  0  0  0  0  0
  -10.1974  -24.6572   31.6226 H   0  0  0  0  0  0  0  0  0  0  0  0
  -11.9914  -21.0960   32.5498 H   0  0  0  0  0  0  0  0  0  0  0  0
  -12.3752  -22.4575   28.6770 H   0  0  0  0  0  0  0  0  0  0  0  0
  -11.0269  -26.1743   27.4967 H   0  0  0  0  0  0  0  0  0  0  0  0
  -10.6647  -25.6989   24.8926 H   0  0  0  0  0  0  0  0  0  0  0  0
  -10.3745  -24.1808   25.8407 H   0  0  0  0  0  0  0  0  0  0  0  0
   -8.5013  -25.0019   26.3826 H   0  0  0  0  0  0  0  0  0  0  0  0
   -6.8775  -28.8256   26.4041 H   0  0  0  0  0  0  0  0  0  0  0  0
   -4.4007  -28.4611   26.4561 H   0  0  0  0  0  0  0  0  0  0  0  0
   -3.4968  -26.2159   27.0041 H   0  0  0  0  0  0  0  0  0  0  0  0
   -4.1585  -23.9058   28.0336 H   0  0  0  0  0  0  0  0  0  0  0  0
   -6.5288  -22.4689   27.9840 H   0  0  0  0  0  0  0  0  0  0  0  0
  -12.5932  -23.2174   26.7376 H   0  0  0  0  0  0  0  0  0  0  0  0
  -12.1718  -22.4455   24.4820 H   0  0  0  0  0  0  0  0  0  0  0  0
  -11.5520  -24.0394   24.0082 H   0  0  0  0  0  0  0  0  0  0  0  0
  -13.9868  -24.9393   24.4853 H   0  0  0  0  0  0  0  0  0  0  0  0
  -14.3805  -23.2484   24.8747 H   0  0  0  0  0  0  0  0  0  0  0  0
  1  2  1  0
  2  3  1  0
  3  4  2  0
  3  5  1  0
  5  6  2  0
  6  7  1  0
  7  8  2  0
  8  9  1  0
  9 10  2  0
  2 11  1  0
 11 12  1  0
 12 13  1  0
 13 14  1  0
 14 15  2  0
 14 16  1  0
 16 17  2  0
 17 18  1  0
 18 19  2  0
 19 20  1  0
 20 21  1  0
 21 22  2  0
 22 23  1  0
 23 24  2  0
 11 25  1  0
 25 26  1  0
 26 27  1  0
 10  5  1  0
 24 16  1  0
 27 25  1  0
 24 20  1  0
  1 28  1  0
  1 29  1  0
  1 30  1  0
  6 31  1  0
  8 32  1  0
 10 33  1  0
 11 34  1  0
 12 35  1  0
 12 36  1  0
 13 37  1  0
 17 38  1  0
 18 39  1  0
 19 40  1  0
 21 41  1  0
 22 42  1  0
 25 43  1  0
 26 44  1  0
 26 45  1  0
 27 46  1  0
 27 47  1  0
M  END
>  <Energy>  (1564) 
926.64698648202807

>  <compound_id>  (1564) 
36089

>  <target_id>  (1564) 
1

>  <reference_id>  (1564) 
45

>  <inspiration_ids>  (1564) 
[45, 54]

>  <energy_score>  (1564) 
812.9285424031514

>  <distance_score>  (1564) 
1.8676255613233061

>  <path>  (1564) 
/opt/xchem-fragalysis-2/maxwin/BulkDock/SCRATCH/511013/C36089-P45/C36089-P45.minimised.mol

>  <scratch_subdir>  (1564) 
/opt/xchem-fragalysis-2/maxwin/BulkDock/SCRATCH/511013/C36089-P45

>  <fragmenstein_runtime>  (1564) 
11.30035948753357

>  <fragmenstein_outcome>  (1564) 
too moved

>  <fragmenstein_mode>  (1564) 
expansion

>  <fragmenstein_error>  (1564) 


$$$$
C36089-P54
     RDKit          3D

 47 50  0  0  0  0  0  0  0  0999 V2000
  -13.2910  -28.7747   32.7509 C   0  0  0  0  0  0  0  0  0  0  0  0
  -12.6322  -27.2886   31.6797 N   0  0  0  0  0  0  0  0  0  0  0  0
  -13.1045  -26.5061   30.3262 C   0  0  0  0  0  0  0  0  0  0  0  0
  -13.9459  -26.7046   29.5614 O   0  0  0  0  0  0  0  0  0  0  0  0
  -12.1808  -25.3769   30.0079 C   0  0  0  0  0  0  0  0  0  0  0  0
  -12.5207  -24.4751   29.0164 C   0  0  0  0  0  0  0  0  0  0  0  0
  -11.7737  -23.4055   28.6635 N   0  0  0  0  0  0  0  0  0  0  0  0
  -10.6430  -23.2342   29.3597 C   0  0  0  0  0  0  0  0  0  0  0  0
  -10.2099  -24.0307   30.3476 N   0  0  0  0  0  0  0  0  0  0  0  0
  -11.0057  -25.0848   30.6542 C   0  0  0  0  0  0  0  0  0  0  0  0
  -13.1635  -28.4888   32.0499 C   0  0  0  0  0  0  0  0  0  0  0  0
  -13.2369  -29.8366   30.7026 C   0  0  0  0  0  0  0  0  0  0  0  0
  -12.7638  -29.2602   29.4797 N   0  0  0  0  0  0  0  0  0  0  0  0
  -13.3920  -29.1174   28.2055 C   0  0  0  0  0  0  0  0  0  0  0  0
  -14.4465  -29.5145   27.8046 O   0  0  0  0  0  0  0  0  0  0  0  0
  -12.5390  -28.2235   27.3446 C   0  0  0  0  0  0  0  0  0  0  0  0
  -13.1834  -27.2357   26.6866 C   0  0  0  0  0  0  0  0  0  0  0  0
  -12.4694  -26.0827   26.1683 C   0  0  0  0  0  0  0  0  0  0  0  0
  -11.1382  -26.0070   26.3239 C   0  0  0  0  0  0  0  0  0  0  0  0
  -10.4766  -27.0674   26.9137 N   0  0  0  0  0  0  0  0  0  0  0  0
   -9.1462  -27.2718   27.0887 C   0  0  0  0  0  0  0  0  0  0  0  0
   -9.0346  -28.5338   27.6138 C   0  0  0  0  0  0  0  0  0  0  0  0
  -10.2591  -29.0500   27.9214 N   0  0  0  0  0  0  0  0  0  0  0  0
  -11.1180  -28.1769   27.4408 C   0  0  0  0  0  0  0  0  0  0  0  0
  -14.8992  -28.0294   31.5111 C   0  0  0  0  0  0  0  0  0  0  0  0
  -16.1020  -28.2122   32.4455 C   0  0  0  0  0  0  0  0  0  0  0  0
  -15.6123  -26.8375   32.1350 C   0  0  0  0  0  0  0  0  0  0  0  0
  -13.6316  -28.1668   33.7677 H   0  0  0  0  0  0  0  0  0  0  0  0
  -12.3473  -29.3079   33.3873 H   0  0  0  0  0  0  0  0  0  0  0  0
  -14.2110  -29.6550   32.7892 H   0  0  0  0  0  0  0  0  0  0  0  0
  -13.4515  -24.5738   28.4622 H   0  0  0  0  0  0  0  0  0  0  0  0
  -10.0289  -22.3793   29.1005 H   0  0  0  0  0  0  0  0  0  0  0  0
  -10.6478  -25.6834   31.4818 H   0  0  0  0  0  0  0  0  0  0  0  0
  -12.0212  -28.6902   31.5460 H   0  0  0  0  0  0  0  0  0  0  0  0
  -12.5629  -30.6424   31.0173 H   0  0  0  0  0  0  0  0  0  0  0  0
  -14.2525  -30.2344   30.6038 H   0  0  0  0  0  0  0  0  0  0  0  0
  -11.8306  -28.8629   29.4349 H   0  0  0  0  0  0  0  0  0  0  0  0
  -14.2715  -27.1854   26.6883 H   0  0  0  0  0  0  0  0  0  0  0  0
  -13.0525  -25.2622   25.7600 H   0  0  0  0  0  0  0  0  0  0  0  0
  -10.5518  -25.1473   26.0248 H   0  0  0  0  0  0  0  0  0  0  0  0
   -8.3996  -26.5372   26.8513 H   0  0  0  0  0  0  0  0  0  0  0  0
   -8.1297  -29.0686   27.8454 H   0  0  0  0  0  0  0  0  0  0  0  0
  -15.1350  -28.2926   30.4824 H   0  0  0  0  0  0  0  0  0  0  0  0
  -15.9855  -28.5540   33.4664 H   0  0  0  0  0  0  0  0  0  0  0  0
  -17.0402  -28.5236   31.9947 H   0  0  0  0  0  0  0  0  0  0  0  0
  -16.2130  -26.2189   31.4753 H   0  0  0  0  0  0  0  0  0  0  0  0
  -15.1578  -26.2910   32.9474 H   0  0  0  0  0  0  0  0  0  0  0  0
  1  2  1  0
  2  3  1  0
  3  4  2  0
  3  5  1  0
  5  6  2  0
  6  7  1  0
  7  8  2  0
  8  9  1  0
  9 10  2  0
  2 11  1  0
 11 12  1  0
 12 13  1  0
 13 14  1  0
 14 15  2  0
 14 16  1  0
 16 17  2  0
 17 18  1  0
 18 19  2  0
 19 20  1  0
 20 21  1  0
 21 22  2  0
 22 23  1  0
 23 24  2  0
 11 25  1  0
 25 26  1  0
 26 27  1  0
 10  5  1  0
 24 16  1  0
 27 25  1  0
 24 20  1  0
  1 28  1  0
  1 29  1  0
  1 30  1  0
  6 31  1  0
  8 32  1  0
 10 33  1  0
 11 34  1  0
 12 35  1  0
 12 36  1  0
 13 37  1  0
 17 38  1  0
 18 39  1  0
 19 40  1  0
 21 41  1  0
 22 42  1  0
 25 43  1  0
 26 44  1  0
 26 45  1  0
 27 46  1  0
 27 47  1  0
M  END
>  <Energy>  (1565) 
859.63044102083916

>  <compound_id>  (1565) 
36089

>  <target_id>  (1565) 
1

>  <reference_id>  (1565) 
54

>  <inspiration_ids>  (1565) 
[45, 54]

>  <energy_score>  (1565) 
745.9119969419711

>  <distance_score>  (1565) 
4.4240192171669745

>  <path>  (1565) 
/opt/xchem-fragalysis-2/maxwin/BulkDock/SCRATCH/511013/C36089-P54/C36089-P54.minimised.mol

>  <scratch_subdir>  (1565) 
/opt/xchem-fragalysis-2/maxwin/BulkDock/SCRATCH/511013/C36089-P54

>  <fragmenstein_runtime>  (1565) 
12.731293201446533

>  <fragmenstein_outcome>  (1565) 
too moved

>  <fragmenstein_mode>  (1565) 
expansion

>  <fragmenstein_error>  (1565) 


$$$$
C36090-P45
     RDKit          3D

 47 50  0  0  0  0  0  0  0  0999 V2000
  -12.2591  -25.1245   27.2006 C   0  0  0  0  0  0  0  0  0  0  0  0
  -11.3869  -23.9359   27.4150 N   0  0  0  0  0  0  0  0  0  0  0  0
  -11.9449  -23.0891   28.3883 C   0  0  0  0  0  0  0  0  0  0  0  0
  -12.6891  -22.1688   28.2784 O   0  0  0  0  0  0  0  0  0  0  0  0
  -11.4897  -23.2719   29.7482 C   0  0  0  0  0  0  0  0  0  0  0  0
  -11.7455  -22.3495   30.7358 C   0  0  0  0  0  0  0  0  0  0  0  0
  -11.4462  -22.5404   32.0403 N   0  0  0  0  0  0  0  0  0  0  0  0
  -10.7924  -23.6733   32.3279 C   0  0  0  0  0  0  0  0  0  0  0  0
  -10.4382  -24.6096   31.4261 N   0  0  0  0  0  0  0  0  0  0  0  0
  -10.8368  -24.3863   30.1504 C   0  0  0  0  0  0  0  0  0  0  0  0
  -11.4578  -23.8849   25.9034 C   0  0  0  0  0  0  0  0  0  0  0  0
  -10.4288  -24.7557   25.2083 C   0  0  0  0  0  0  0  0  0  0  0  0
   -9.5684  -25.4500   26.0865 N   0  0  0  0  0  0  0  0  0  0  0  0
   -8.2461  -25.1430   26.5504 C   0  0  0  0  0  0  0  0  0  0  0  0
   -7.5008  -24.2626   26.2543 O   0  0  0  0  0  0  0  0  0  0  0  0
   -7.9563  -26.1819   27.4836 C   0  0  0  0  0  0  0  0  0  0  0  0
   -8.7192  -26.2748   28.6205 C   0  0  0  0  0  0  0  0  0  0  0  0
   -9.5246  -27.3784   28.5513 N   0  0  0  0  0  0  0  0  0  0  0  0
   -8.9972  -28.0983   27.5789 C   0  0  0  0  0  0  0  0  0  0  0  0
   -9.3953  -29.3048   26.9522 C   0  0  0  0  0  0  0  0  0  0  0  0
   -8.5538  -29.8901   26.0855 C   0  0  0  0  0  0  0  0  0  0  0  0
   -7.2462  -29.3248   25.8010 C   0  0  0  0  0  0  0  0  0  0  0  0
   -6.9105  -28.1317   26.3091 C   0  0  0  0  0  0  0  0  0  0  0  0
   -7.8260  -27.4990   27.1185 N   0  0  0  0  0  0  0  0  0  0  0  0
  -12.4856  -23.3609   24.8513 C   0  0  0  0  0  0  0  0  0  0  0  0
  -11.9274  -22.8503   23.4635 C   0  0  0  0  0  0  0  0  0  0  0  0
  -12.5827  -21.9223   24.3307 C   0  0  0  0  0  0  0  0  0  0  0  0
  -12.8576  -25.3012   26.3010 H   0  0  0  0  0  0  0  0  0  0  0  0
  -12.8931  -25.2426   28.0867 H   0  0  0  0  0  0  0  0  0  0  0  0
  -11.6320  -26.0182   27.3001 H   0  0  0  0  0  0  0  0  0  0  0  0
  -12.2242  -21.4099   30.5046 H   0  0  0  0  0  0  0  0  0  0  0  0
  -10.5494  -23.8625   33.3645 H   0  0  0  0  0  0  0  0  0  0  0  0
  -10.7400  -25.2290   29.4859 H   0  0  0  0  0  0  0  0  0  0  0  0
  -11.0456  -22.9231   26.0459 H   0  0  0  0  0  0  0  0  0  0  0  0
  -11.0115  -25.5574   24.7529 H   0  0  0  0  0  0  0  0  0  0  0  0
   -9.8770  -24.2630   24.4242 H   0  0  0  0  0  0  0  0  0  0  0  0
   -9.8683  -26.3198   26.4969 H   0  0  0  0  0  0  0  0  0  0  0  0
   -8.8281  -25.4850   29.3432 H   0  0  0  0  0  0  0  0  0  0  0  0
  -10.3477  -29.7490   27.2081 H   0  0  0  0  0  0  0  0  0  0  0  0
   -8.8046  -30.8302   25.6054 H   0  0  0  0  0  0  0  0  0  0  0  0
   -6.5821  -29.8723   25.1447 H   0  0  0  0  0  0  0  0  0  0  0  0
   -5.9802  -27.6219   26.0899 H   0  0  0  0  0  0  0  0  0  0  0  0
  -13.4150  -23.9123   24.8509 H   0  0  0  0  0  0  0  0  0  0  0  0
  -12.4575  -22.7605   22.5209 H   0  0  0  0  0  0  0  0  0  0  0  0
  -10.8679  -22.6800   23.2945 H   0  0  0  0  0  0  0  0  0  0  0  0
  -11.9807  -21.1128   24.7122 H   0  0  0  0  0  0  0  0  0  0  0  0
  -13.5762  -21.6123   24.0231 H   0  0  0  0  0  0  0  0  0  0  0  0
  1  2  1  0
  2  3  1  0
  3  4  2  0
  3  5  1  0
  5  6  2  0
  6  7  1  0
  7  8  2  0
  8  9  1  0
  9 10  2  0
  2 11  1  0
 11 12  1  0
 12 13  1  0
 13 14  1  0
 14 15  2  0
 14 16  1  0
 16 17  2  0
 17 18  1  0
 18 19  2  0
 19 20  1  0
 20 21  2  0
 21 22  1  0
 22 23  2  0
 23 24  1  0
 11 25  1  0
 25 26  1  0
 26 27  1  0
 10  5  1  0
 24 16  1  0
 27 25  1  0
 24 19  1  0
  1 28  1  0
  1 29  1  0
  1 30  1  0
  6 31  1  0
  8 32  1  0
 10 33  1  0
 11 34  1  0
 12 35  1  0
 12 36  1  0
 13 37  1  0
 17 38  1  0
 20 39  1  0
 21 40  1  0
 22 41  1  0
 23 42  1  0
 25 43  1  0
 26 44  1  0
 26 45  1  0
 27 46  1  0
 27 47  1  0
M  END
>  <Energy>  (1566) 
195.90066887057489

>  <compound_id>  (1566) 
36090

>  <target_id>  (1566) 
1

>  <reference_id>  (1566) 
45

>  <inspiration_ids>  (1566) 
[45, 54]

>  <energy_score>  (1566) 
122.42319380036963

>  <distance_score>  (1566) 
2.366278421176096

>  <path>  (1566) 
/opt/xchem-fragalysis-2/maxwin/BulkDock/SCRATCH/511013/C36090-P45/C36090-P45.minimised.mol

>  <scratch_subdir>  (1566) 
/opt/xchem-fragalysis-2/maxwin/BulkDock/SCRATCH/511013/C36090-P45

>  <fragmenstein_runtime>  (1566) 
10.22797441482544

>  <fragmenstein_outcome>  (1566) 
too moved

>  <fragmenstein_mode>  (1566) 
expansion

>  <fragmenstein_error>  (1566) 


$$$$
C36090-P54
     RDKit          3D

 47 50  0  0  0  0  0  0  0  0999 V2000
  -13.0744  -23.8784   28.3850 C   0  0  0  0  0  0  0  0  0  0  0  0
  -13.4511  -24.4404   27.0559 N   0  0  0  0  0  0  0  0  0  0  0  0
  -13.9102  -25.7734   27.2052 C   0  0  0  0  0  0  0  0  0  0  0  0
  -13.3169  -26.8133   27.1598 O   0  0  0  0  0  0  0  0  0  0  0  0
  -15.3190  -25.8259   27.5633 C   0  0  0  0  0  0  0  0  0  0  0  0
  -15.7044  -26.5339   28.6781 C   0  0  0  0  0  0  0  0  0  0  0  0
  -16.9561  -26.4923   29.1668 N   0  0  0  0  0  0  0  0  0  0  0  0
  -17.8249  -25.7427   28.4654 C   0  0  0  0  0  0  0  0  0  0  0  0
  -17.5602  -25.0580   27.3377 N   0  0  0  0  0  0  0  0  0  0  0  0
  -16.2810  -25.0878   26.9246 C   0  0  0  0  0  0  0  0  0  0  0  0
  -12.0480  -23.8860   26.6675 C   0  0  0  0  0  0  0  0  0  0  0  0
  -10.6780  -24.0193   27.4493 C   0  0  0  0  0  0  0  0  0  0  0  0
  -10.7451  -25.2455   28.1730 N   0  0  0  0  0  0  0  0  0  0  0  0
  -10.6536  -26.5897   27.7361 C   0  0  0  0  0  0  0  0  0  0  0  0
  -10.4134  -27.0443   26.6594 O   0  0  0  0  0  0  0  0  0  0  0  0
  -11.0261  -27.4718   28.8414 C   0  0  0  0  0  0  0  0  0  0  0  0
  -11.6743  -27.2032   30.0426 C   0  0  0  0  0  0  0  0  0  0  0  0
  -12.3996  -28.2761   30.4759 N   0  0  0  0  0  0  0  0  0  0  0  0
  -12.1437  -29.2179   29.5953 C   0  0  0  0  0  0  0  0  0  0  0  0
  -12.6623  -30.5303   29.4271 C   0  0  0  0  0  0  0  0  0  0  0  0
  -12.0385  -31.3872   28.5954 C   0  0  0  0  0  0  0  0  0  0  0  0
  -10.8097  -31.0150   27.9141 C   0  0  0  0  0  0  0  0  0  0  0  0
  -10.3908  -29.7389   27.9862 C   0  0  0  0  0  0  0  0  0  0  0  0
  -11.1139  -28.8362   28.7467 N   0  0  0  0  0  0  0  0  0  0  0  0
  -12.2712  -22.5654   25.9825 C   0  0  0  0  0  0  0  0  0  0  0  0
  -11.9407  -22.1043   24.5752 C   0  0  0  0  0  0  0  0  0  0  0  0
  -13.3197  -22.5881   24.8703 C   0  0  0  0  0  0  0  0  0  0  0  0
  -12.7187  -24.6262   29.0942 H   0  0  0  0  0  0  0  0  0  0  0  0
  -12.6050  -22.8930   28.5014 H   0  0  0  0  0  0  0  0  0  0  0  0
  -14.0600  -23.6953   28.8300 H   0  0  0  0  0  0  0  0  0  0  0  0
  -15.0011  -27.1400   29.2433 H   0  0  0  0  0  0  0  0  0  0  0  0
  -18.8421  -25.6922   28.8393 H   0  0  0  0  0  0  0  0  0  0  0  0
  -16.0537  -24.4735   26.0610 H   0  0  0  0  0  0  0  0  0  0  0  0
  -11.8469  -24.6102   25.8764 H   0  0  0  0  0  0  0  0  0  0  0  0
   -9.8719  -24.0566   26.7287 H   0  0  0  0  0  0  0  0  0  0  0  0
  -10.4955  -23.1943   28.1440 H   0  0  0  0  0  0  0  0  0  0  0  0
  -10.8823  -25.2340   29.1681 H   0  0  0  0  0  0  0  0  0  0  0  0
  -11.7952  -26.2627   30.5607 H   0  0  0  0  0  0  0  0  0  0  0  0
  -13.5499  -30.8154   29.9797 H   0  0  0  0  0  0  0  0  0  0  0  0
  -12.4133  -32.3970   28.4570 H   0  0  0  0  0  0  0  0  0  0  0  0
  -10.2698  -31.7855   27.3756 H   0  0  0  0  0  0  0  0  0  0  0  0
   -9.4970  -29.3449   27.5200 H   0  0  0  0  0  0  0  0  0  0  0  0
  -12.1888  -21.7708   26.7077 H   0  0  0  0  0  0  0  0  0  0  0  0
  -11.1890  -22.6408   24.0290 H   0  0  0  0  0  0  0  0  0  0  0  0
  -11.8873  -21.0395   24.3542 H   0  0  0  0  0  0  0  0  0  0  0  0
  -14.1335  -21.8750   24.9000 H   0  0  0  0  0  0  0  0  0  0  0  0
  -13.6410  -23.5362   24.4616 H   0  0  0  0  0  0  0  0  0  0  0  0
  1  2  1  0
  2  3  1  0
  3  4  2  0
  3  5  1  0
  5  6  2  0
  6  7  1  0
  7  8  2  0
  8  9  1  0
  9 10  2  0
  2 11  1  0
 11 12  1  0
 12 13  1  0
 13 14  1  0
 14 15  2  0
 14 16  1  0
 16 17  2  0
 17 18  1  0
 18 19  2  0
 19 20  1  0
 20 21  2  0
 21 22  1  0
 22 23  2  0
 23 24  1  0
 11 25  1  0
 25 26  1  0
 26 27  1  0
 10  5  1  0
 24 16  1  0
 27 25  1  0
 24 19  1  0
  1 28  1  0
  1 29  1  0
  1 30  1  0
  6 31  1  0
  8 32  1  0
 10 33  1  0
 11 34  1  0
 12 35  1  0
 12 36  1  0
 13 37  1  0
 17 38  1  0
 20 39  1  0
 21 40  1  0
 22 41  1  0
 23 42  1  0
 25 43  1  0
 26 44  1  0
 26 45  1  0
 27 46  1  0
 27 47  1  0
M  END
>  <Energy>  (1567) 
131.34455622477719

>  <compound_id>  (1567) 
36090

>  <target_id>  (1567) 
1

>  <reference_id>  (1567) 
54

>  <inspiration_ids>  (1567) 
[45, 54]

>  <energy_score>  (1567) 
57.867081154575715

>  <distance_score>  (1567) 
6.219202379175764

>  <path>  (1567) 
/opt/xchem-fragalysis-2/maxwin/BulkDock/SCRATCH/511013/C36090-P54/C36090-P54.minimised.mol

>  <scratch_subdir>  (1567) 
/opt/xchem-fragalysis-2/maxwin/BulkDock/SCRATCH/511013/C36090-P54

>  <fragmenstein_runtime>  (1567) 
12.13747525215149

>  <fragmenstein_outcome>  (1567) 
too moved

>  <fragmenstein_mode>  (1567) 
expansion

>  <fragmenstein_error>  (1567) 


$$$$
C36092-P45
     RDKit          3D

 47 50  0  0  0  0  0  0  0  0999 V2000
  -12.9468  -25.9136   25.2312 C   0  0  0  0  0  0  0  0  0  0  0  0
  -12.2716  -24.5552   25.5026 C   0  0  0  0  0  0  0  0  0  0  0  0
  -10.7936  -24.6274   25.2478 C   0  0  0  0  0  0  0  0  0  0  0  0
   -9.7947  -25.3351   25.9599 N   0  0  0  0  0  0  0  0  0  0  0  0
   -9.8966  -26.5886   26.8470 C   0  0  0  0  0  0  0  0  0  0  0  0
  -10.8288  -27.1930   27.1954 O   0  0  0  0  0  0  0  0  0  0  0  0
   -8.4659  -26.9671   27.1138 C   0  0  0  0  0  0  0  0  0  0  0  0
   -8.1342  -28.2219   26.7446 C   0  0  0  0  0  0  0  0  0  0  0  0
   -6.7520  -28.5861   26.4923 C   0  0  0  0  0  0  0  0  0  0  0  0
   -5.7805  -27.6698   26.6338 C   0  0  0  0  0  0  0  0  0  0  0  0
   -6.1300  -26.3789   27.0008 N   0  0  0  0  0  0  0  0  0  0  0  0
   -5.3411  -25.2704   27.1739 C   0  0  0  0  0  0  0  0  0  0  0  0
   -6.1973  -24.2477   27.5066 C   0  0  0  0  0  0  0  0  0  0  0  0
   -7.4926  -24.6975   27.5620 N   0  0  0  0  0  0  0  0  0  0  0  0
   -7.4354  -25.9853   27.2734 C   0  0  0  0  0  0  0  0  0  0  0  0
  -12.2518  -24.2628   26.9212 N   0  0  0  0  0  0  0  0  0  0  0  0
  -11.7679  -23.0289   27.6700 C   0  0  0  0  0  0  0  0  0  0  0  0
  -11.3781  -22.0152   27.2726 O   0  0  0  0  0  0  0  0  0  0  0  0
  -11.7029  -23.2038   29.0971 C   0  0  0  0  0  0  0  0  0  0  0  0
  -11.9193  -22.1529   29.9451 C   0  0  0  0  0  0  0  0  0  0  0  0
  -11.6939  -22.2193   31.2702 N   0  0  0  0  0  0  0  0  0  0  0  0
  -11.1238  -23.3489   31.7054 C   0  0  0  0  0  0  0  0  0  0  0  0
  -10.7938  -24.4089   30.9383 N   0  0  0  0  0  0  0  0  0  0  0  0
  -11.0790  -24.3014   29.6245 C   0  0  0  0  0  0  0  0  0  0  0  0
  -12.8922  -23.4607   24.5701 C   0  0  0  0  0  0  0  0  0  0  0  0
  -12.6096  -21.9805   24.3590 C   0  0  0  0  0  0  0  0  0  0  0  0
  -12.0865  -22.8338   23.3486 C   0  0  0  0  0  0  0  0  0  0  0  0
  -12.5428  -26.4104   24.3523 H   0  0  0  0  0  0  0  0  0  0  0  0
  -14.0201  -25.8074   25.0424 H   0  0  0  0  0  0  0  0  0  0  0  0
  -12.8475  -26.6100   26.0669 H   0  0  0  0  0  0  0  0  0  0  0  0
  -10.5244  -24.6733   24.2199 H   0  0  0  0  0  0  0  0  0  0  0  0
  -10.5027  -23.6537   25.5322 H   0  0  0  0  0  0  0  0  0  0  0  0
   -8.8293  -25.0214   25.9257 H   0  0  0  0  0  0  0  0  0  0  0  0
   -8.8893  -28.9575   26.4749 H   0  0  0  0  0  0  0  0  0  0  0  0
   -6.5616  -29.5774   26.1011 H   0  0  0  0  0  0  0  0  0  0  0  0
   -4.7358  -27.8606   26.4188 H   0  0  0  0  0  0  0  0  0  0  0  0
   -4.2696  -25.3245   27.0512 H   0  0  0  0  0  0  0  0  0  0  0  0
   -5.9487  -23.2157   27.7209 H   0  0  0  0  0  0  0  0  0  0  0  0
  -12.4446  -25.0043   27.5819 H   0  0  0  0  0  0  0  0  0  0  0  0
  -12.2395  -21.1901   29.5668 H   0  0  0  0  0  0  0  0  0  0  0  0
  -10.9255  -23.4271   32.7699 H   0  0  0  0  0  0  0  0  0  0  0  0
  -10.7280  -25.1261   29.0170 H   0  0  0  0  0  0  0  0  0  0  0  0
  -13.9619  -23.6436   24.4754 H   0  0  0  0  0  0  0  0  0  0  0  0
  -11.9300  -21.4016   24.9507 H   0  0  0  0  0  0  0  0  0  0  0  0
  -13.4791  -21.4072   24.0697 H   0  0  0  0  0  0  0  0  0  0  0  0
  -11.0035  -22.8193   23.2884 H   0  0  0  0  0  0  0  0  0  0  0  0
  -12.5346  -22.5849   22.3904 H   0  0  0  0  0  0  0  0  0  0  0  0
  1  2  1  0
  2  3  1  0
  3  4  1  0
  4  5  1  0
  5  6  2  0
  5  7  1  0
  7  8  2  0
  8  9  1  0
  9 10  2  0
 10 11  1  0
 11 12  1  0
 12 13  2  0
 13 14  1  0
 14 15  2  0
  2 16  1  0
 16 17  1  0
 17 18  2  0
 17 19  1  0
 19 20  2  0
 20 21  1  0
 21 22  2  0
 22 23  1  0
 23 24  2  0
  2 25  1  0
 25 26  1  0
 26 27  1  0
 15  7  1  0
 24 19  1  0
 27 25  1  0
 15 11  1  0
  1 28  1  0
  1 29  1  0
  1 30  1  0
  3 31  1  0
  3 32  1  0
  4 33  1  0
  8 34  1  0
  9 35  1  0
 10 36  1  0
 12 37  1  0
 13 38  1  0
 16 39  1  0
 20 40  1  0
 22 41  1  0
 24 42  1  0
 25 43  1  0
 26 44  1  0
 26 45  1  0
 27 46  1  0
 27 47  1  0
M  END
>  <Energy>  (1568) 
119.54661059113245

>  <compound_id>  (1568) 
36092

>  <target_id>  (1568) 
1

>  <reference_id>  (1568) 
45

>  <inspiration_ids>  (1568) 
[45, 54]

>  <energy_score>  (1568) 
21.964343098344443

>  <distance_score>  (1568) 
1.1571435837666106

>  <path>  (1568) 
/opt/xchem-fragalysis-2/maxwin/BulkDock/SCRATCH/511013/C36092-P45/C36092-P45.minimised.mol

>  <scratch_subdir>  (1568) 
/opt/xchem-fragalysis-2/maxwin/BulkDock/SCRATCH/511013/C36092-P45

>  <fragmenstein_runtime>  (1568) 
5.034208536148071

>  <fragmenstein_outcome>  (1568) 
too moved

>  <fragmenstein_mode>  (1568) 
expansion

>  <fragmenstein_error>  (1568) 


$$$$
C36092-P54
     RDKit          3D

 47 50  0  0  0  0  0  0  0  0999 V2000
  -16.1206  -26.1783   28.2437 C   0  0  0  0  0  0  0  0  0  0  0  0
  -14.8759  -26.2152   27.3491 C   0  0  0  0  0  0  0  0  0  0  0  0
  -14.6046  -27.7218   26.9975 C   0  0  0  0  0  0  0  0  0  0  0  0
  -13.1814  -27.9311   27.0214 N   0  0  0  0  0  0  0  0  0  0  0  0
  -12.2987  -28.6718   28.0374 C   0  0  0  0  0  0  0  0  0  0  0  0
  -12.5890  -29.2957   28.9746 O   0  0  0  0  0  0  0  0  0  0  0  0
  -10.8864  -28.3721   27.6810 C   0  0  0  0  0  0  0  0  0  0  0  0
   -9.9677  -29.3325   27.8730 C   0  0  0  0  0  0  0  0  0  0  0  0
   -8.5952  -29.1184   27.4777 C   0  0  0  0  0  0  0  0  0  0  0  0
   -8.1836  -27.8918   27.1440 C   0  0  0  0  0  0  0  0  0  0  0  0
   -9.1023  -26.8772   27.1949 N   0  0  0  0  0  0  0  0  0  0  0  0
   -8.9651  -25.5551   27.4705 C   0  0  0  0  0  0  0  0  0  0  0  0
  -10.1322  -24.9915   27.0381 C   0  0  0  0  0  0  0  0  0  0  0  0
  -11.0840  -25.9694   26.9077 N   0  0  0  0  0  0  0  0  0  0  0  0
  -10.4588  -27.0831   27.2430 C   0  0  0  0  0  0  0  0  0  0  0  0
  -13.6896  -25.6863   28.0340 N   0  0  0  0  0  0  0  0  0  0  0  0
  -13.5115  -24.4422   28.8696 C   0  0  0  0  0  0  0  0  0  0  0  0
  -14.2838  -23.6623   29.2247 O   0  0  0  0  0  0  0  0  0  0  0  0
  -12.1487  -24.1857   29.3172 C   0  0  0  0  0  0  0  0  0  0  0  0
  -11.6017  -22.9199   29.2204 C   0  0  0  0  0  0  0  0  0  0  0  0
  -10.4149  -22.5853   29.7617 N   0  0  0  0  0  0  0  0  0  0  0  0
   -9.8190  -23.5543   30.4728 C   0  0  0  0  0  0  0  0  0  0  0  0
  -10.2691  -24.8121   30.6376 N   0  0  0  0  0  0  0  0  0  0  0  0
  -11.4407  -25.1056   30.0443 C   0  0  0  0  0  0  0  0  0  0  0  0
  -15.0569  -25.4076   26.0551 C   0  0  0  0  0  0  0  0  0  0  0  0
  -15.8467  -24.1154   26.0204 C   0  0  0  0  0  0  0  0  0  0  0  0
  -14.3629  -24.0703   25.8150 C   0  0  0  0  0  0  0  0  0  0  0  0
  -16.9962  -26.5688   27.7129 H   0  0  0  0  0  0  0  0  0  0  0  0
  -15.9729  -26.7792   29.1488 H   0  0  0  0  0  0  0  0  0  0  0  0
  -16.3667  -25.1716   28.5823 H   0  0  0  0  0  0  0  0  0  0  0  0
  -15.0269  -28.3881   27.7573 H   0  0  0  0  0  0  0  0  0  0  0  0
  -14.9965  -28.0200   26.0216 H   0  0  0  0  0  0  0  0  0  0  0  0
  -12.6004  -27.5561   26.2774 H   0  0  0  0  0  0  0  0  0  0  0  0
  -10.2452  -30.3146   28.2458 H   0  0  0  0  0  0  0  0  0  0  0  0
   -7.9544  -29.9844   27.4449 H   0  0  0  0  0  0  0  0  0  0  0  0
   -7.1680  -27.6356   26.8858 H   0  0  0  0  0  0  0  0  0  0  0  0
   -8.0662  -25.1576   27.9095 H   0  0  0  0  0  0  0  0  0  0  0  0
  -10.3658  -23.9405   26.9184 H   0  0  0  0  0  0  0  0  0  0  0  0
  -12.7803  -26.0974   27.8413 H   0  0  0  0  0  0  0  0  0  0  0  0
  -12.1122  -22.1145   28.7037 H   0  0  0  0  0  0  0  0  0  0  0  0
   -8.8835  -23.3017   30.9595 H   0  0  0  0  0  0  0  0  0  0  0  0
  -11.8122  -26.1101   30.2192 H   0  0  0  0  0  0  0  0  0  0  0  0
  -15.1969  -26.0503   25.1917 H   0  0  0  0  0  0  0  0  0  0  0  0
  -16.2373  -23.7079   26.9413 H   0  0  0  0  0  0  0  0  0  0  0  0
  -16.5200  -23.9370   25.1914 H   0  0  0  0  0  0  0  0  0  0  0  0
  -13.7791  -23.5765   26.5775 H   0  0  0  0  0  0  0  0  0  0  0  0
  -13.9401  -23.8437   24.8474 H   0  0  0  0  0  0  0  0  0  0  0  0
  1  2  1  0
  2  3  1  0
  3  4  1  0
  4  5  1  0
  5  6  2  0
  5  7  1  0
  7  8  2  0
  8  9  1  0
  9 10  2  0
 10 11  1  0
 11 12  1  0
 12 13  2  0
 13 14  1  0
 14 15  2  0
  2 16  1  0
 16 17  1  0
 17 18  2  0
 17 19  1  0
 19 20  2  0
 20 21  1  0
 21 22  2  0
 22 23  1  0
 23 24  2  0
  2 25  1  0
 25 26  1  0
 26 27  1  0
 15  7  1  0
 24 19  1  0
 27 25  1  0
 15 11  1  0
  1 28  1  0
  1 29  1  0
  1 30  1  0
  3 31  1  0
  3 32  1  0
  4 33  1  0
  8 34  1  0
  9 35  1  0
 10 36  1  0
 12 37  1  0
 13 38  1  0
 16 39  1  0
 20 40  1  0
 22 41  1  0
 24 42  1  0
 25 43  1  0
 26 44  1  0
 26 45  1  0
 27 46  1  0
 27 47  1  0
M  END
>  <Energy>  (1569) 
97.425075334055194

>  <compound_id>  (1569) 
36092

>  <target_id>  (1569) 
1

>  <reference_id>  (1569) 
54

>  <inspiration_ids>  (1569) 
[45, 54]

>  <energy_score>  (1569) 
-0.15719215872110226

>  <distance_score>  (1569) 
2.669803503505143

>  <path>  (1569) 
/opt/xchem-fragalysis-2/maxwin/BulkDock/SCRATCH/511013/C36092-P54/C36092-P54.minimised.mol

>  <scratch_subdir>  (1569) 
/opt/xchem-fragalysis-2/maxwin/BulkDock/SCRATCH/511013/C36092-P54

>  <fragmenstein_runtime>  (1569) 
8.678667545318604

>  <fragmenstein_outcome>  (1569) 
too moved

>  <fragmenstein_mode>  (1569) 
expansion

>  <fragmenstein_error>  (1569) 


$$$$
C36093-P45
     RDKit          3D

 37 39  0  0  0  0  0  0  0  0999 V2000
   -8.5745  -30.8926   24.6316 C   0  0  0  0  0  0  0  0  0  0  0  0
   -8.2093  -29.7877   25.5722 C   0  0  0  0  0  0  0  0  0  0  0  0
   -9.2125  -29.1057   26.3733 C   0  0  0  0  0  0  0  0  0  0  0  0
   -8.9240  -27.9748   27.0382 C   0  0  0  0  0  0  0  0  0  0  0  0
   -7.6024  -27.4811   26.9823 C   0  0  0  0  0  0  0  0  0  0  0  0
   -7.0972  -26.3384   27.3231 N   0  0  0  0  0  0  0  0  0  0  0  0
   -5.7564  -26.3972   27.0456 C   0  0  0  0  0  0  0  0  0  0  0  0
   -4.8759  -25.2312   27.1284 C   0  0  0  0  0  0  0  0  0  0  0  0
   -5.5846  -23.7905   27.9237 S   0  0  0  0  0  0  0  0  0  0  0  0
   -7.2434  -23.8382   27.2300 C   0  0  0  0  0  0  0  0  0  0  0  0
   -8.2880  -24.3429   28.2325 C   0  0  0  0  0  0  0  0  0  0  0  0
   -8.0211  -24.7149   29.2988 O   0  0  0  0  0  0  0  0  0  0  0  0
   -9.6548  -24.1416   27.5624 N   0  0  0  0  0  0  0  0  0  0  0  0
  -10.9248  -24.2593   28.0731 C   0  0  0  0  0  0  0  0  0  0  0  0
  -11.0018  -24.7491   29.3515 C   0  0  0  0  0  0  0  0  0  0  0  0
  -11.5884  -24.0718   30.3547 N   0  0  0  0  0  0  0  0  0  0  0  0
  -12.1299  -22.8919   30.0141 C   0  0  0  0  0  0  0  0  0  0  0  0
  -12.2606  -22.4140   28.7734 N   0  0  0  0  0  0  0  0  0  0  0  0
  -11.7117  -23.1575   27.8001 C   0  0  0  0  0  0  0  0  0  0  0  0
   -5.4309  -27.6431   26.5888 C   0  0  0  0  0  0  0  0  0  0  0  0
   -6.6307  -28.2625   26.4061 N   0  0  0  0  0  0  0  0  0  0  0  0
   -6.9384  -29.3814   25.6839 C   0  0  0  0  0  0  0  0  0  0  0  0
   -9.1003  -30.4851   23.7647 H   0  0  0  0  0  0  0  0  0  0  0  0
   -9.1829  -31.6530   25.1299 H   0  0  0  0  0  0  0  0  0  0  0  0
   -7.6972  -31.3967   24.2112 H   0  0  0  0  0  0  0  0  0  0  0  0
  -10.1983  -29.5389   26.4513 H   0  0  0  0  0  0  0  0  0  0  0  0
   -9.6600  -27.4497   27.6314 H   0  0  0  0  0  0  0  0  0  0  0  0
   -4.6505  -24.9424   26.1097 H   0  0  0  0  0  0  0  0  0  0  0  0
   -3.9290  -25.4844   27.6010 H   0  0  0  0  0  0  0  0  0  0  0  0
   -7.4512  -22.7755   27.1298 H   0  0  0  0  0  0  0  0  0  0  0  0
   -7.3220  -24.2793   26.2366 H   0  0  0  0  0  0  0  0  0  0  0  0
   -9.5273  -23.7317   26.6639 H   0  0  0  0  0  0  0  0  0  0  0  0
  -10.3954  -25.5949   29.6684 H   0  0  0  0  0  0  0  0  0  0  0  0
  -12.5141  -22.2667   30.8112 H   0  0  0  0  0  0  0  0  0  0  0  0
  -11.7322  -22.6934   26.8195 H   0  0  0  0  0  0  0  0  0  0  0  0
   -4.4983  -28.0536   26.2361 H   0  0  0  0  0  0  0  0  0  0  0  0
   -6.1567  -29.8604   25.1277 H   0  0  0  0  0  0  0  0  0  0  0  0
  1  2  1  0
  2  3  1  0
  3  4  2  0
  4  5  1  0
  5  6  2  0
  6  7  1  0
  7  8  1  0
  8  9  1  0
  9 10  1  0
 10 11  1  0
 11 12  2  0
 11 13  1  0
 13 14  1  0
 14 15  2  0
 15 16  1  0
 16 17  2  0
 17 18  1  0
 18 19  2  0
  7 20  2  0
 20 21  1  0
 21 22  1  0
 22  2  2  0
 21  5  1  0
 19 14  1  0
  1 23  1  0
  1 24  1  0
  1 25  1  0
  3 26  1  0
  4 27  1  0
  8 28  1  0
  8 29  1  0
 10 30  1  0
 10 31  1  0
 13 32  1  0
 15 33  1  0
 17 34  1  0
 19 35  1  0
 20 36  1  0
 22 37  1  0
M  END
>  <Energy>  (1570) 
131.45241601773429

>  <compound_id>  (1570) 
36093

>  <target_id>  (1570) 
1

>  <reference_id>  (1570) 
45

>  <inspiration_ids>  (1570) 
[45, 54]

>  <energy_score>  (1570) 
39.71721646673677

>  <distance_score>  (1570) 
1.9411267769303289

>  <path>  (1570) 
/opt/xchem-fragalysis-2/maxwin/BulkDock/SCRATCH/511013/C36093-P45/C36093-P45.minimised.mol

>  <scratch_subdir>  (1570) 
/opt/xchem-fragalysis-2/maxwin/BulkDock/SCRATCH/511013/C36093-P45

>  <fragmenstein_runtime>  (1570) 
3.9787495136260986

>  <fragmenstein_outcome>  (1570) 
too moved

>  <fragmenstein_mode>  (1570) 
expansion

>  <fragmenstein_error>  (1570) 


$$$$
C36093-P54
     RDKit          3D

 37 39  0  0  0  0  0  0  0  0999 V2000
   -8.3541  -28.0005   27.0673 C   0  0  0  0  0  0  0  0  0  0  0  0
   -9.8174  -27.9574   27.2630 C   0  0  0  0  0  0  0  0  0  0  0  0
  -10.4101  -29.0218   28.0629 C   0  0  0  0  0  0  0  0  0  0  0  0
  -11.7368  -29.1161   28.2441 C   0  0  0  0  0  0  0  0  0  0  0  0
  -12.5838  -28.1982   27.5749 C   0  0  0  0  0  0  0  0  0  0  0  0
  -13.8896  -28.1813   27.4365 N   0  0  0  0  0  0  0  0  0  0  0  0
  -14.1563  -27.1622   26.5541 C   0  0  0  0  0  0  0  0  0  0  0  0
  -15.5452  -26.8831   26.0766 C   0  0  0  0  0  0  0  0  0  0  0  0
  -16.7955  -26.4493   27.3144 S   0  0  0  0  0  0  0  0  0  0  0  0
  -15.7873  -25.7413   28.6384 C   0  0  0  0  0  0  0  0  0  0  0  0
  -14.6603  -24.8094   28.1505 C   0  0  0  0  0  0  0  0  0  0  0  0
  -14.7943  -24.1179   27.1804 O   0  0  0  0  0  0  0  0  0  0  0  0
  -13.5336  -24.9700   29.0490 N   0  0  0  0  0  0  0  0  0  0  0  0
  -12.2455  -24.4416   29.0023 C   0  0  0  0  0  0  0  0  0  0  0  0
  -11.3017  -24.8445   29.9270 C   0  0  0  0  0  0  0  0  0  0  0  0
  -10.0371  -24.3920   29.9634 N   0  0  0  0  0  0  0  0  0  0  0  0
   -9.7172  -23.5068   29.0110 C   0  0  0  0  0  0  0  0  0  0  0  0
  -10.5336  -23.0577   28.0467 N   0  0  0  0  0  0  0  0  0  0  0  0
  -11.7985  -23.5291   28.0701 C   0  0  0  0  0  0  0  0  0  0  0  0
  -12.9879  -26.4975   26.2324 C   0  0  0  0  0  0  0  0  0  0  0  0
  -11.9800  -27.1767   26.8516 N   0  0  0  0  0  0  0  0  0  0  0  0
  -10.6109  -27.0146   26.7338 C   0  0  0  0  0  0  0  0  0  0  0  0
   -8.0859  -28.5119   26.1423 H   0  0  0  0  0  0  0  0  0  0  0  0
   -7.9165  -28.5613   27.8866 H   0  0  0  0  0  0  0  0  0  0  0  0
   -7.9289  -26.9969   27.0676 H   0  0  0  0  0  0  0  0  0  0  0  0
   -9.7419  -29.7529   28.5010 H   0  0  0  0  0  0  0  0  0  0  0  0
  -12.1788  -29.9151   28.8278 H   0  0  0  0  0  0  0  0  0  0  0  0
  -15.9263  -27.7862   25.5939 H   0  0  0  0  0  0  0  0  0  0  0  0
  -15.5307  -26.0960   25.3161 H   0  0  0  0  0  0  0  0  0  0  0  0
  -15.3932  -26.5853   29.2123 H   0  0  0  0  0  0  0  0  0  0  0  0
  -16.4373  -25.1788   29.3132 H   0  0  0  0  0  0  0  0  0  0  0  0
  -13.7435  -25.7033   29.7147 H   0  0  0  0  0  0  0  0  0  0  0  0
  -11.5316  -25.5720   30.6980 H   0  0  0  0  0  0  0  0  0  0  0  0
   -8.7040  -23.1265   29.0207 H   0  0  0  0  0  0  0  0  0  0  0  0
  -12.4367  -23.1390   27.2829 H   0  0  0  0  0  0  0  0  0  0  0  0
  -12.8123  -25.6190   25.6341 H   0  0  0  0  0  0  0  0  0  0  0  0
  -10.2462  -26.1770   26.1570 H   0  0  0  0  0  0  0  0  0  0  0  0
  1  2  1  0
  2  3  1  0
  3  4  2  0
  4  5  1  0
  5  6  2  0
  6  7  1  0
  7  8  1  0
  8  9  1  0
  9 10  1  0
 10 11  1  0
 11 12  2  0
 11 13  1  0
 13 14  1  0
 14 15  2  0
 15 16  1  0
 16 17  2  0
 17 18  1  0
 18 19  2  0
  7 20  2  0
 20 21  1  0
 21 22  1  0
 22  2  2  0
 21  5  1  0
 19 14  1  0
  1 23  1  0
  1 24  1  0
  1 25  1  0
  3 26  1  0
  4 27  1  0
  8 28  1  0
  8 29  1  0
 10 30  1  0
 10 31  1  0
 13 32  1  0
 15 33  1  0
 17 34  1  0
 19 35  1  0
 20 36  1  0
 22 37  1  0
M  END
>  <Energy>  (1571) 
73.121445026716515

>  <compound_id>  (1571) 
36093

>  <target_id>  (1571) 
1

>  <reference_id>  (1571) 
54

>  <inspiration_ids>  (1571) 
[45, 54]

>  <energy_score>  (1571) 
-37.73145447004913

>  <distance_score>  (1571) 
4.492631597655776

>  <path>  (1571) 
/opt/xchem-fragalysis-2/maxwin/BulkDock/SCRATCH/511013/C36093-P54/C36093-P54.minimised.mol

>  <scratch_subdir>  (1571) 
/opt/xchem-fragalysis-2/maxwin/BulkDock/SCRATCH/511013/C36093-P54

>  <fragmenstein_runtime>  (1571) 
8.426258325576782

>  <fragmenstein_outcome>  (1571) 
too moved

>  <fragmenstein_mode>  (1571) 
expansion

>  <fragmenstein_error>  (1571) 


$$$$
C36094-P45
     RDKit          3D

 32 34  0  0  0  0  0  0  0  0999 V2000
   -9.2707  -31.4712   26.0416 C   0  0  0  0  0  0  0  0  0  0  0  0
   -8.6691  -30.3031   25.5149 O   0  0  0  0  0  0  0  0  0  0  0  0
   -8.6944  -29.2302   26.3564 C   0  0  0  0  0  0  0  0  0  0  0  0
   -7.5186  -28.3809   26.2324 C   0  0  0  0  0  0  0  0  0  0  0  0
   -7.5525  -27.1497   26.7664 C   0  0  0  0  0  0  0  0  0  0  0  0
   -8.6287  -26.8321   27.5746 N   0  0  0  0  0  0  0  0  0  0  0  0
   -9.0350  -25.6787   28.1717 C   0  0  0  0  0  0  0  0  0  0  0  0
   -9.2630  -24.4397   27.4234 C   0  0  0  0  0  0  0  0  0  0  0  0
  -10.7002  -24.3182   27.0223 N   0  0  0  0  0  0  0  0  0  0  0  0
  -11.4296  -23.6826   28.0494 C   0  0  0  0  0  0  0  0  0  0  0  0
  -11.4842  -22.3218   28.1924 C   0  0  0  0  0  0  0  0  0  0  0  0
  -11.8002  -21.6685   29.3271 N   0  0  0  0  0  0  0  0  0  0  0  0
  -12.0399  -22.4329   30.3838 C   0  0  0  0  0  0  0  0  0  0  0  0
  -12.0962  -23.7656   30.3659 N   0  0  0  0  0  0  0  0  0  0  0  0
  -11.8821  -24.3434   29.1609 C   0  0  0  0  0  0  0  0  0  0  0  0
   -9.5758  -26.1193   29.3570 C   0  0  0  0  0  0  0  0  0  0  0  0
  -10.0799  -27.3767   29.1502 N   0  0  0  0  0  0  0  0  0  0  0  0
   -9.5706  -27.7489   27.9904 C   0  0  0  0  0  0  0  0  0  0  0  0
   -9.6918  -28.9195   27.2095 C   0  0  0  0  0  0  0  0  0  0  0  0
  -10.3476  -31.3718   26.1813 H   0  0  0  0  0  0  0  0  0  0  0  0
   -8.8292  -31.7579   27.0005 H   0  0  0  0  0  0  0  0  0  0  0  0
   -9.1028  -32.2660   25.3113 H   0  0  0  0  0  0  0  0  0  0  0  0
   -6.6767  -28.7402   25.6529 H   0  0  0  0  0  0  0  0  0  0  0  0
   -6.7639  -26.4201   26.6428 H   0  0  0  0  0  0  0  0  0  0  0  0
   -8.9106  -23.5773   28.0000 H   0  0  0  0  0  0  0  0  0  0  0  0
   -8.6639  -24.4739   26.5083 H   0  0  0  0  0  0  0  0  0  0  0  0
  -10.7800  -23.7682   26.1689 H   0  0  0  0  0  0  0  0  0  0  0  0
  -11.2304  -21.6950   27.3535 H   0  0  0  0  0  0  0  0  0  0  0  0
  -12.2103  -21.9322   31.3294 H   0  0  0  0  0  0  0  0  0  0  0  0
  -12.0293  -25.4194   29.1280 H   0  0  0  0  0  0  0  0  0  0  0  0
   -9.8586  -25.5472   30.2306 H   0  0  0  0  0  0  0  0  0  0  0  0
  -10.5763  -29.5235   27.3406 H   0  0  0  0  0  0  0  0  0  0  0  0
  1  2  1  0
  2  3  1  0
  3  4  1  0
  4  5  2  0
  5  6  1  0
  6  7  1  0
  7  8  1  0
  8  9  1  0
  9 10  1  0
 10 11  2  0
 11 12  1  0
 12 13  2  0
 13 14  1  0
 14 15  2  0
  7 16  2  0
 16 17  1  0
 17 18  2  0
 18 19  1  0
 19  3  2  0
 18  6  1  0
 15 10  1  0
  1 20  1  0
  1 21  1  0
  1 22  1  0
  4 23  1  0
  5 24  1  0
  8 25  1  0
  8 26  1  0
  9 27  1  0
 11 28  1  0
 13 29  1  0
 15 30  1  0
 16 31  1  0
 19 32  1  0
M  END
>  <Energy>  (1572) 
76.018752092325713

>  <compound_id>  (1572) 
36094

>  <target_id>  (1572) 
1

>  <reference_id>  (1572) 
45

>  <inspiration_ids>  (1572) 
[45, 54]

>  <energy_score>  (1572) 
17.758753661219828

>  <distance_score>  (1572) 
2.2436125515994614

>  <path>  (1572) 
/opt/xchem-fragalysis-2/maxwin/BulkDock/SCRATCH/511013/C36094-P45/C36094-P45.minimised.mol

>  <scratch_subdir>  (1572) 
/opt/xchem-fragalysis-2/maxwin/BulkDock/SCRATCH/511013/C36094-P45

>  <fragmenstein_runtime>  (1572) 
2.5087292194366455

>  <fragmenstein_outcome>  (1572) 
too moved

>  <fragmenstein_mode>  (1572) 
expansion

>  <fragmenstein_error>  (1572) 


$$$$
C36094-P54
     RDKit          3D

 32 34  0  0  0  0  0  0  0  0999 V2000
  -11.1476  -30.8709   27.8929 C   0  0  0  0  0  0  0  0  0  0  0  0
   -9.9245  -30.2121   27.6204 O   0  0  0  0  0  0  0  0  0  0  0  0
   -9.9364  -28.8481   27.6848 C   0  0  0  0  0  0  0  0  0  0  0  0
   -8.7501  -28.2833   27.0842 C   0  0  0  0  0  0  0  0  0  0  0  0
   -8.6518  -26.9581   26.9883 C   0  0  0  0  0  0  0  0  0  0  0  0
   -9.6794  -26.1479   27.4186 N   0  0  0  0  0  0  0  0  0  0  0  0
   -9.7962  -24.7916   27.5723 C   0  0  0  0  0  0  0  0  0  0  0  0
  -10.2881  -23.8462   26.5259 C   0  0  0  0  0  0  0  0  0  0  0  0
  -11.7087  -23.4833   26.5962 N   0  0  0  0  0  0  0  0  0  0  0  0
  -11.9268  -22.7711   27.7920 C   0  0  0  0  0  0  0  0  0  0  0  0
  -11.3793  -21.5276   28.0636 C   0  0  0  0  0  0  0  0  0  0  0  0
  -11.2898  -20.9722   29.2900 N   0  0  0  0  0  0  0  0  0  0  0  0
  -11.7710  -21.7099   30.2848 C   0  0  0  0  0  0  0  0  0  0  0  0
  -12.3669  -22.8918   30.1301 N   0  0  0  0  0  0  0  0  0  0  0  0
  -12.4784  -23.3838   28.8909 C   0  0  0  0  0  0  0  0  0  0  0  0
   -9.9399  -24.7124   28.9375 C   0  0  0  0  0  0  0  0  0  0  0  0
  -10.7493  -25.7918   29.2846 N   0  0  0  0  0  0  0  0  0  0  0  0
  -10.6384  -26.6517   28.2815 C   0  0  0  0  0  0  0  0  0  0  0  0
  -10.8811  -28.0520   28.2351 C   0  0  0  0  0  0  0  0  0  0  0  0
  -11.9586  -30.5393   27.2385 H   0  0  0  0  0  0  0  0  0  0  0  0
  -11.4594  -30.7405   28.9318 H   0  0  0  0  0  0  0  0  0  0  0  0
  -10.9980  -31.9415   27.7236 H   0  0  0  0  0  0  0  0  0  0  0  0
   -7.9392  -28.9319   26.7927 H   0  0  0  0  0  0  0  0  0  0  0  0
   -7.7094  -26.5079   26.7837 H   0  0  0  0  0  0  0  0  0  0  0  0
   -9.6818  -22.9414   26.5566 H   0  0  0  0  0  0  0  0  0  0  0  0
  -10.1616  -24.2961   25.5436 H   0  0  0  0  0  0  0  0  0  0  0  0
  -12.3005  -24.3089   26.5727 H   0  0  0  0  0  0  0  0  0  0  0  0
  -10.9672  -20.9172   27.2719 H   0  0  0  0  0  0  0  0  0  0  0  0
  -11.6964  -21.3173   31.2925 H   0  0  0  0  0  0  0  0  0  0  0  0
  -12.9425  -24.3624   28.8299 H   0  0  0  0  0  0  0  0  0  0  0  0
   -9.8694  -23.8553   29.5961 H   0  0  0  0  0  0  0  0  0  0  0  0
  -11.7492  -28.4320   28.7559 H   0  0  0  0  0  0  0  0  0  0  0  0
  1  2  1  0
  2  3  1  0
  3  4  1  0
  4  5  2  0
  5  6  1  0
  6  7  1  0
  7  8  1  0
  8  9  1  0
  9 10  1  0
 10 11  2  0
 11 12  1  0
 12 13  2  0
 13 14  1  0
 14 15  2  0
  7 16  2  0
 16 17  1  0
 17 18  2  0
 18 19  1  0
 19  3  2  0
 18  6  1  0
 15 10  1  0
  1 20  1  0
  1 21  1  0
  1 22  1  0
  4 23  1  0
  5 24  1  0
  8 25  1  0
  8 26  1  0
  9 27  1  0
 11 28  1  0
 13 29  1  0
 15 30  1  0
 16 31  1  0
 19 32  1  0
M  END
>  <Energy>  (1573) 
93.892984840017419

>  <compound_id>  (1573) 
36094

>  <target_id>  (1573) 
1

>  <reference_id>  (1573) 
54

>  <inspiration_ids>  (1573) 
[45, 54]

>  <energy_score>  (1573) 
30.51866234109707

>  <distance_score>  (1573) 
2.720682373242783

>  <path>  (1573) 
/opt/xchem-fragalysis-2/maxwin/BulkDock/SCRATCH/511013/C36094-P54/C36094-P54.minimised.mol

>  <scratch_subdir>  (1573) 
/opt/xchem-fragalysis-2/maxwin/BulkDock/SCRATCH/511013/C36094-P54

>  <fragmenstein_runtime>  (1573) 
1.5635368824005127

>  <fragmenstein_outcome>  (1573) 
too moved

>  <fragmenstein_mode>  (1573) 
expansion

>  <fragmenstein_error>  (1573) 


$$$$
C36095-P45
     RDKit          3D

 35 37  0  0  0  0  0  0  0  0999 V2000
   -9.2617  -31.1592   26.1977 C   0  0  0  0  0  0  0  0  0  0  0  0
   -8.4774  -30.1372   25.6056 O   0  0  0  0  0  0  0  0  0  0  0  0
   -8.3038  -29.0474   26.4058 C   0  0  0  0  0  0  0  0  0  0  0  0
   -7.0138  -28.3867   26.2449 C   0  0  0  0  0  0  0  0  0  0  0  0
   -6.8686  -27.1408   26.7263 C   0  0  0  0  0  0  0  0  0  0  0  0
   -7.8990  -26.6374   27.4997 N   0  0  0  0  0  0  0  0  0  0  0  0
   -8.2473  -25.3927   27.9303 C   0  0  0  0  0  0  0  0  0  0  0  0
   -8.5948  -24.3435   26.9878 C   0  0  0  0  0  0  0  0  0  0  0  0
   -9.7462  -24.8341   26.2039 N   0  0  0  0  0  0  0  0  0  0  0  0
  -11.1269  -24.4038   26.4551 C   0  0  0  0  0  0  0  0  0  0  0  0
  -11.4494  -23.8616   27.8005 C   0  0  0  0  0  0  0  0  0  0  0  0
  -11.4733  -22.5122   28.0550 C   0  0  0  0  0  0  0  0  0  0  0  0
  -11.6277  -21.9592   29.2700 N   0  0  0  0  0  0  0  0  0  0  0  0
  -11.7524  -22.8178   30.2744 C   0  0  0  0  0  0  0  0  0  0  0  0
  -11.7857  -24.1506   30.1576 N   0  0  0  0  0  0  0  0  0  0  0  0
  -11.6928  -24.6404   28.9006 C   0  0  0  0  0  0  0  0  0  0  0  0
   -8.9021  -25.6183   29.1148 C   0  0  0  0  0  0  0  0  0  0  0  0
   -9.4718  -26.8632   29.0477 N   0  0  0  0  0  0  0  0  0  0  0  0
   -8.9533  -27.3960   27.9624 C   0  0  0  0  0  0  0  0  0  0  0  0
   -9.2378  -28.5622   27.2426 C   0  0  0  0  0  0  0  0  0  0  0  0
   -8.8087  -31.5263   27.1227 H   0  0  0  0  0  0  0  0  0  0  0  0
   -9.3034  -31.9904   25.4883 H   0  0  0  0  0  0  0  0  0  0  0  0
  -10.2876  -30.8598   26.4123 H   0  0  0  0  0  0  0  0  0  0  0  0
   -6.2494  -28.8728   25.6541 H   0  0  0  0  0  0  0  0  0  0  0  0
   -5.9994  -26.5207   26.5562 H   0  0  0  0  0  0  0  0  0  0  0  0
   -8.7840  -23.4501   27.5807 H   0  0  0  0  0  0  0  0  0  0  0  0
   -7.7285  -24.1619   26.3427 H   0  0  0  0  0  0  0  0  0  0  0  0
   -9.5517  -24.7684   25.2083 H   0  0  0  0  0  0  0  0  0  0  0  0
  -11.7756  -25.2686   26.2649 H   0  0  0  0  0  0  0  0  0  0  0  0
  -11.4263  -23.6775   25.6918 H   0  0  0  0  0  0  0  0  0  0  0  0
  -11.3547  -21.8049   27.2456 H   0  0  0  0  0  0  0  0  0  0  0  0
  -11.8234  -22.3957   31.2702 H   0  0  0  0  0  0  0  0  0  0  0  0
  -11.7538  -25.7229   28.8234 H   0  0  0  0  0  0  0  0  0  0  0  0
   -9.2346  -24.9190   29.8643 H   0  0  0  0  0  0  0  0  0  0  0  0
  -10.2124  -29.0037   27.3782 H   0  0  0  0  0  0  0  0  0  0  0  0
  1  2  1  0
  2  3  1  0
  3  4  1  0
  4  5  2  0
  5  6  1  0
  6  7  1  0
  7  8  1  0
  8  9  1  0
  9 10  1  0
 10 11  1  0
 11 12  2  0
 12 13  1  0
 13 14  2  0
 14 15  1  0
 15 16  2  0
  7 17  2  0
 17 18  1  0
 18 19  2  0
 19 20  1  0
 20  3  2  0
 19  6  1  0
 16 11  1  0
  1 21  1  0
  1 22  1  0
  1 23  1  0
  4 24  1  0
  5 25  1  0
  8 26  1  0
  8 27  1  0
  9 28  1  0
 10 29  1  0
 10 30  1  0
 12 31  1  0
 14 32  1  0
 16 33  1  0
 17 34  1  0
 20 35  1  0
M  END
>  <Energy>  (1574) 
47.000339413624303

>  <compound_id>  (1574) 
36095

>  <target_id>  (1574) 
1

>  <reference_id>  (1574) 
45

>  <inspiration_ids>  (1574) 
[45, 54]

>  <energy_score>  (1574) 
27.367259405863024

>  <distance_score>  (1574) 
1.7055348760443534

>  <path>  (1574) 
/opt/xchem-fragalysis-2/maxwin/BulkDock/SCRATCH/511013/C36095-P45/C36095-P45.minimised.mol

>  <scratch_subdir>  (1574) 
/opt/xchem-fragalysis-2/maxwin/BulkDock/SCRATCH/511013/C36095-P45

>  <fragmenstein_runtime>  (1574) 
2.2799360752105713

>  <fragmenstein_outcome>  (1574) 
too moved

>  <fragmenstein_mode>  (1574) 
expansion

>  <fragmenstein_error>  (1574) 


$$$$
C36095-P54
     RDKit          3D

 35 37  0  0  0  0  0  0  0  0999 V2000
  -10.9281  -31.1783   27.9020 C   0  0  0  0  0  0  0  0  0  0  0  0
   -9.7191  -30.4566   27.7494 O   0  0  0  0  0  0  0  0  0  0  0  0
   -9.8158  -29.1028   27.6267 C   0  0  0  0  0  0  0  0  0  0  0  0
   -8.5666  -28.5075   27.2214 C   0  0  0  0  0  0  0  0  0  0  0  0
   -8.4465  -27.1796   27.1618 C   0  0  0  0  0  0  0  0  0  0  0  0
   -9.6038  -26.4410   27.2348 N   0  0  0  0  0  0  0  0  0  0  0  0
   -9.9271  -25.1193   27.2399 C   0  0  0  0  0  0  0  0  0  0  0  0
   -9.3594  -24.0580   28.0608 C   0  0  0  0  0  0  0  0  0  0  0  0
   -9.7484  -22.7529   27.5174 N   0  0  0  0  0  0  0  0  0  0  0  0
  -11.1581  -22.3347   27.6698 C   0  0  0  0  0  0  0  0  0  0  0  0
  -11.5051  -22.3623   29.1093 C   0  0  0  0  0  0  0  0  0  0  0  0
  -11.1715  -21.2854   29.8924 C   0  0  0  0  0  0  0  0  0  0  0  0
  -10.9339  -21.4006   31.1992 N   0  0  0  0  0  0  0  0  0  0  0  0
  -11.0173  -22.6428   31.6933 C   0  0  0  0  0  0  0  0  0  0  0  0
  -11.4083  -23.7489   31.0331 N   0  0  0  0  0  0  0  0  0  0  0  0
  -11.7474  -23.5571   29.7537 C   0  0  0  0  0  0  0  0  0  0  0  0
  -11.0410  -25.1147   26.4395 C   0  0  0  0  0  0  0  0  0  0  0  0
  -11.6837  -26.3031   26.5264 N   0  0  0  0  0  0  0  0  0  0  0  0
  -10.8429  -27.0469   27.1976 C   0  0  0  0  0  0  0  0  0  0  0  0
  -10.9373  -28.3675   27.6594 C   0  0  0  0  0  0  0  0  0  0  0  0
  -11.4703  -30.8741   28.8029 H   0  0  0  0  0  0  0  0  0  0  0  0
  -10.6730  -32.2368   28.0127 H   0  0  0  0  0  0  0  0  0  0  0  0
  -11.5861  -31.0913   27.0357 H   0  0  0  0  0  0  0  0  0  0  0  0
   -7.7869  -29.1826   26.9486 H   0  0  0  0  0  0  0  0  0  0  0  0
   -7.5128  -26.6864   26.9871 H   0  0  0  0  0  0  0  0  0  0  0  0
   -9.6262  -24.1928   29.1068 H   0  0  0  0  0  0  0  0  0  0  0  0
   -8.2885  -24.1768   28.1536 H   0  0  0  0  0  0  0  0  0  0  0  0
   -9.1772  -22.0497   27.9850 H   0  0  0  0  0  0  0  0  0  0  0  0
  -11.2394  -21.3074   27.2958 H   0  0  0  0  0  0  0  0  0  0  0  0
  -11.9122  -22.8733   27.1050 H   0  0  0  0  0  0  0  0  0  0  0  0
  -10.9611  -20.3064   29.4670 H   0  0  0  0  0  0  0  0  0  0  0  0
  -10.7544  -22.7577   32.7385 H   0  0  0  0  0  0  0  0  0  0  0  0
  -12.0491  -24.4510   29.2157 H   0  0  0  0  0  0  0  0  0  0  0  0
  -11.5311  -24.2824   25.9693 H   0  0  0  0  0  0  0  0  0  0  0  0
  -11.9193  -28.7668   27.8683 H   0  0  0  0  0  0  0  0  0  0  0  0
  1  2  1  0
  2  3  1  0
  3  4  1  0
  4  5  2  0
  5  6  1  0
  6  7  1  0
  7  8  1  0
  8  9  1  0
  9 10  1  0
 10 11  1  0
 11 12  2  0
 12 13  1  0
 13 14  2  0
 14 15  1  0
 15 16  2  0
  7 17  2  0
 17 18  1  0
 18 19  2  0
 19 20  1  0
 20  3  2  0
 19  6  1  0
 16 11  1  0
  1 21  1  0
  1 22  1  0
  1 23  1  0
  4 24  1  0
  5 25  1  0
  8 26  1  0
  8 27  1  0
  9 28  1  0
 10 29  1  0
 10 30  1  0
 12 31  1  0
 14 32  1  0
 16 33  1  0
 17 34  1  0
 20 35  1  0
M  END
>  <Energy>  (1575) 
47.65226334730994

>  <compound_id>  (1575) 
36095

>  <target_id>  (1575) 
1

>  <reference_id>  (1575) 
54

>  <inspiration_ids>  (1575) 
[45, 54]

>  <energy_score>  (1575) 
28.01918333954714

>  <distance_score>  (1575) 
2.96700120274731

>  <path>  (1575) 
/opt/xchem-fragalysis-2/maxwin/BulkDock/SCRATCH/511013/C36095-P54/C36095-P54.minimised.mol

>  <scratch_subdir>  (1575) 
/opt/xchem-fragalysis-2/maxwin/BulkDock/SCRATCH/511013/C36095-P54

>  <fragmenstein_runtime>  (1575) 
3.189908742904663

>  <fragmenstein_outcome>  (1575) 
too moved

>  <fragmenstein_mode>  (1575) 
expansion

>  <fragmenstein_error>  (1575) 


$$$$
C36096-P45
     RDKit          3D

 32 35  0  0  0  0  0  0  0  0999 V2000
   -8.0892  -30.1062   25.1682 C   0  0  0  0  0  0  0  0  0  0  0  0
   -7.3501  -29.2139   26.0144 O   0  0  0  0  0  0  0  0  0  0  0  0
   -8.1580  -28.2829   26.6092 C   0  0  0  0  0  0  0  0  0  0  0  0
   -7.5523  -26.9830   26.8672 C   0  0  0  0  0  0  0  0  0  0  0  0
   -8.3539  -25.9441   27.1945 C   0  0  0  0  0  0  0  0  0  0  0  0
   -9.7445  -26.1536   27.2861 N   0  0  0  0  0  0  0  0  0  0  0  0
  -10.8319  -25.3455   27.5633 C   0  0  0  0  0  0  0  0  0  0  0  0
  -10.8590  -24.1179   28.2379 C   0  0  0  0  0  0  0  0  0  0  0  0
  -10.5618  -24.1800   29.5026 N   0  0  0  0  0  0  0  0  0  0  0  0
  -11.2362  -23.1325   30.0389 C   0  0  0  0  0  0  0  0  0  0  0  0
  -11.2148  -23.0051   31.4632 C   0  0  0  0  0  0  0  0  0  0  0  0
  -11.8714  -22.0265   32.1554 C   0  0  0  0  0  0  0  0  0  0  0  0
  -12.0808  -22.0886   33.4737 N   0  0  0  0  0  0  0  0  0  0  0  0
  -11.6049  -23.1980   34.0637 C   0  0  0  0  0  0  0  0  0  0  0  0
  -10.7443  -24.0790   33.5358 N   0  0  0  0  0  0  0  0  0  0  0  0
  -10.5592  -23.9575   32.2304 C   0  0  0  0  0  0  0  0  0  0  0  0
  -11.8278  -22.3418   29.1437 N   0  0  0  0  0  0  0  0  0  0  0  0
  -11.6183  -23.0280   27.9323 O   0  0  0  0  0  0  0  0  0  0  0  0
  -11.9330  -26.1712   27.5586 C   0  0  0  0  0  0  0  0  0  0  0  0
  -11.6003  -27.4326   27.2451 N   0  0  0  0  0  0  0  0  0  0  0  0
  -10.2998  -27.4129   27.1265 C   0  0  0  0  0  0  0  0  0  0  0  0
   -9.4618  -28.4876   26.8298 C   0  0  0  0  0  0  0  0  0  0  0  0
   -7.3794  -30.6146   24.5093 H   0  0  0  0  0  0  0  0  0  0  0  0
   -8.6283  -30.8603   25.7510 H   0  0  0  0  0  0  0  0  0  0  0  0
   -8.7848  -29.5762   24.5136 H   0  0  0  0  0  0  0  0  0  0  0  0
   -6.4782  -26.8796   26.7498 H   0  0  0  0  0  0  0  0  0  0  0  0
   -7.9845  -24.9428   27.3722 H   0  0  0  0  0  0  0  0  0  0  0  0
  -12.3536  -21.2139   31.6502 H   0  0  0  0  0  0  0  0  0  0  0  0
  -11.9203  -23.4150   35.0678 H   0  0  0  0  0  0  0  0  0  0  0  0
   -9.9218  -24.7271   31.8007 H   0  0  0  0  0  0  0  0  0  0  0  0
  -12.9201  -25.9345   27.9184 H   0  0  0  0  0  0  0  0  0  0  0  0
   -9.9460  -29.4413   26.6760 H   0  0  0  0  0  0  0  0  0  0  0  0
  1  2  1  0
  2  3  1  0
  3  4  1  0
  4  5  2  0
  5  6  1  0
  6  7  1  0
  7  8  1  0
  8  9  2  0
  9 10  1  0
 10 11  1  0
 11 12  2  0
 12 13  1  0
 13 14  2  0
 14 15  1  0
 15 16  2  0
 10 17  2  0
 17 18  1  0
  7 19  2  0
 19 20  1  0
 20 21  2  0
 21 22  1  0
 22  3  2  0
 21  6  1  0
 18  8  1  0
 16 11  1  0
  1 23  1  0
  1 24  1  0
  1 25  1  0
  4 26  1  0
  5 27  1  0
 12 28  1  0
 14 29  1  0
 16 30  1  0
 19 31  1  0
 22 32  1  0
M  END
>  <Energy>  (1576) 
55.441603736496731

>  <compound_id>  (1576) 
36096

>  <target_id>  (1576) 
1

>  <reference_id>  (1576) 
45

>  <inspiration_ids>  (1576) 
[45, 54]

>  <energy_score>  (1576) 
3.7744809223723905

>  <distance_score>  (1576) 
2.1775181878739605

>  <path>  (1576) 
/opt/xchem-fragalysis-2/maxwin/BulkDock/SCRATCH/511013/C36096-P45/C36096-P45.minimised.mol

>  <scratch_subdir>  (1576) 
/opt/xchem-fragalysis-2/maxwin/BulkDock/SCRATCH/511013/C36096-P45

>  <fragmenstein_runtime>  (1576) 
4.933316946029663

>  <fragmenstein_outcome>  (1576) 
too moved

>  <fragmenstein_mode>  (1576) 
expansion

>  <fragmenstein_error>  (1576) 


$$$$
C36096-P54
     RDKit          3D

 32 35  0  0  0  0  0  0  0  0999 V2000
  -12.6755  -30.9380   27.6888 C   0  0  0  0  0  0  0  0  0  0  0  0
  -12.8536  -29.6888   27.0276 O   0  0  0  0  0  0  0  0  0  0  0  0
  -12.4402  -28.5643   27.6964 C   0  0  0  0  0  0  0  0  0  0  0  0
  -12.2774  -27.3907   26.8352 C   0  0  0  0  0  0  0  0  0  0  0  0
  -11.8561  -26.2275   27.3611 C   0  0  0  0  0  0  0  0  0  0  0  0
  -11.6157  -26.1638   28.7281 N   0  0  0  0  0  0  0  0  0  0  0  0
  -11.1944  -25.1441   29.5318 C   0  0  0  0  0  0  0  0  0  0  0  0
  -10.9784  -23.7762   29.2530 C   0  0  0  0  0  0  0  0  0  0  0  0
  -10.2294  -23.0987   30.0885 N   0  0  0  0  0  0  0  0  0  0  0  0
  -10.9596  -21.9591   30.2455 C   0  0  0  0  0  0  0  0  0  0  0  0
  -10.9597  -21.3127   31.5324 C   0  0  0  0  0  0  0  0  0  0  0  0
  -11.7554  -20.2399   31.8463 C   0  0  0  0  0  0  0  0  0  0  0  0
  -11.8713  -19.7353   33.0898 N   0  0  0  0  0  0  0  0  0  0  0  0
  -11.1813  -20.3783   34.0436 C   0  0  0  0  0  0  0  0  0  0  0  0
  -10.3375  -21.4103   33.8629 N   0  0  0  0  0  0  0  0  0  0  0  0
  -10.2457  -21.8455   32.5935 C   0  0  0  0  0  0  0  0  0  0  0  0
  -11.8258  -21.7365   29.2430 N   0  0  0  0  0  0  0  0  0  0  0  0
  -11.8349  -22.9687   28.5576 O   0  0  0  0  0  0  0  0  0  0  0  0
  -11.0923  -25.6850   30.7950 C   0  0  0  0  0  0  0  0  0  0  0  0
  -11.5064  -26.9735   30.8299 N   0  0  0  0  0  0  0  0  0  0  0  0
  -11.7716  -27.2617   29.5776 C   0  0  0  0  0  0  0  0  0  0  0  0
  -12.1815  -28.4896   29.0141 C   0  0  0  0  0  0  0  0  0  0  0  0
  -12.9277  -31.7307   26.9781 H   0  0  0  0  0  0  0  0  0  0  0  0
  -11.6337  -31.0797   27.9956 H   0  0  0  0  0  0  0  0  0  0  0  0
  -13.3536  -31.0271   28.5434 H   0  0  0  0  0  0  0  0  0  0  0  0
  -12.4978  -27.4763   25.7767 H   0  0  0  0  0  0  0  0  0  0  0  0
  -11.7124  -25.3309   26.7713 H   0  0  0  0  0  0  0  0  0  0  0  0
  -12.3737  -19.7594   31.0996 H   0  0  0  0  0  0  0  0  0  0  0  0
  -11.3095  -20.0171   35.0540 H   0  0  0  0  0  0  0  0  0  0  0  0
   -9.5760  -22.6909   32.4613 H   0  0  0  0  0  0  0  0  0  0  0  0
  -10.7378  -25.1788   31.6817 H   0  0  0  0  0  0  0  0  0  0  0  0
  -12.2928  -29.3269   29.6912 H   0  0  0  0  0  0  0  0  0  0  0  0
  1  2  1  0
  2  3  1  0
  3  4  1  0
  4  5  2  0
  5  6  1  0
  6  7  1  0
  7  8  1  0
  8  9  2  0
  9 10  1  0
 10 11  1  0
 11 12  2  0
 12 13  1  0
 13 14  2  0
 14 15  1  0
 15 16  2  0
 10 17  2  0
 17 18  1  0
  7 19  2  0
 19 20  1  0
 20 21  2  0
 21 22  1  0
 22  3  2  0
 21  6  1  0
 18  8  1  0
 16 11  1  0
  1 23  1  0
  1 24  1  0
  1 25  1  0
  4 26  1  0
  5 27  1  0
 12 28  1  0
 14 29  1  0
 16 30  1  0
 19 31  1  0
 22 32  1  0
M  END
>  <Energy>  (1577) 
46.031354726317609

>  <compound_id>  (1577) 
36096

>  <target_id>  (1577) 
1

>  <reference_id>  (1577) 
54

>  <inspiration_ids>  (1577) 
[45, 54]

>  <energy_score>  (1577) 
-3.5696728175829833

>  <distance_score>  (1577) 
3.8621525155065743

>  <path>  (1577) 
/opt/xchem-fragalysis-2/maxwin/BulkDock/SCRATCH/511013/C36096-P54/C36096-P54.minimised.mol

>  <scratch_subdir>  (1577) 
/opt/xchem-fragalysis-2/maxwin/BulkDock/SCRATCH/511013/C36096-P54

>  <fragmenstein_runtime>  (1577) 
6.290300607681274

>  <fragmenstein_outcome>  (1577) 
too moved

>  <fragmenstein_mode>  (1577) 
expansion

>  <fragmenstein_error>  (1577) 


$$$$
C36097-P45
     RDKit          3D

 27 29  0  0  0  0  0  0  0  0999 V2000
   -7.8760  -23.3147   27.5473 O   0  0  0  0  0  0  0  0  0  0  0  0
   -8.4387  -24.3572   27.6721 C   0  0  0  0  0  0  0  0  0  0  0  0
   -9.7562  -24.6523   28.1177 N   0  0  0  0  0  0  0  0  0  0  0  0
  -10.7483  -23.8341   28.6251 C   0  0  0  0  0  0  0  0  0  0  0  0
  -10.7710  -22.4653   28.6660 C   0  0  0  0  0  0  0  0  0  0  0  0
  -11.5514  -21.7460   29.4928 N   0  0  0  0  0  0  0  0  0  0  0  0
  -12.2952  -22.4491   30.3250 C   0  0  0  0  0  0  0  0  0  0  0  0
  -12.4071  -23.7790   30.3087 N   0  0  0  0  0  0  0  0  0  0  0  0
  -11.7222  -24.4292   29.3592 C   0  0  0  0  0  0  0  0  0  0  0  0
   -7.7238  -25.5612   27.2622 C   0  0  0  0  0  0  0  0  0  0  0  0
   -6.3418  -25.6566   27.1545 C   0  0  0  0  0  0  0  0  0  0  0  0
   -5.2009  -24.4693   27.5633 Cl  0  0  0  0  0  0  0  0  0  0  0  0
   -5.9362  -26.9261   26.8742 N   0  0  0  0  0  0  0  0  0  0  0  0
   -7.0355  -27.6037   26.6845 C   0  0  0  0  0  0  0  0  0  0  0  0
   -7.2197  -28.9477   26.2806 C   0  0  0  0  0  0  0  0  0  0  0  0
   -8.4443  -29.4935   26.2700 C   0  0  0  0  0  0  0  0  0  0  0  0
   -9.6022  -28.7045   26.5937 C   0  0  0  0  0  0  0  0  0  0  0  0
   -9.4545  -27.3958   26.8325 C   0  0  0  0  0  0  0  0  0  0  0  0
   -8.1700  -26.8355   26.9253 N   0  0  0  0  0  0  0  0  0  0  0  0
   -9.8650  -25.6424   28.1761 H   0  0  0  0  0  0  0  0  0  0  0  0
  -10.0782  -21.8548   28.1222 H   0  0  0  0  0  0  0  0  0  0  0  0
  -12.8614  -21.9100   31.0717 H   0  0  0  0  0  0  0  0  0  0  0  0
  -11.9040  -25.4968   29.3010 H   0  0  0  0  0  0  0  0  0  0  0  0
   -6.3593  -29.5086   25.9490 H   0  0  0  0  0  0  0  0  0  0  0  0
   -8.5889  -30.5190   25.9454 H   0  0  0  0  0  0  0  0  0  0  0  0
  -10.5763  -29.1650   26.5505 H   0  0  0  0  0  0  0  0  0  0  0  0
  -10.3410  -26.7862   26.9029 H   0  0  0  0  0  0  0  0  0  0  0  0
  1  2  2  0
  2  3  1  0
  3  4  1  0
  4  5  2  0
  5  6  1  0
  6  7  2  0
  7  8  1  0
  8  9  2  0
  2 10  1  0
 10 11  2  0
 11 12  1  0
 11 13  1  0
 13 14  2  0
 14 15  1  0
 15 16  2  0
 16 17  1  0
 17 18  2  0
 18 19  1  0
  9  4  1  0
 19 10  1  0
 19 14  1  0
  3 20  1  0
  5 21  1  0
  7 22  1  0
  9 23  1  0
 15 24  1  0
 16 25  1  0
 17 26  1  0
 18 27  1  0
M  END
>  <Energy>  (1578) 
16.988704367722303

>  <compound_id>  (1578) 
36097

>  <target_id>  (1578) 
1

>  <reference_id>  (1578) 
45

>  <inspiration_ids>  (1578) 
[45, 54]

>  <energy_score>  (1578) 
9.208585681468207

>  <distance_score>  (1578) 
2.2223870928868528

>  <path>  (1578) 
/opt/xchem-fragalysis-2/maxwin/BulkDock/SCRATCH/511013/C36097-P45/C36097-P45.minimised.mol

>  <scratch_subdir>  (1578) 
/opt/xchem-fragalysis-2/maxwin/BulkDock/SCRATCH/511013/C36097-P45

>  <fragmenstein_runtime>  (1578) 
5.240129470825195

>  <fragmenstein_outcome>  (1578) 
too moved

>  <fragmenstein_mode>  (1578) 
expansion

>  <fragmenstein_error>  (1578) 


$$$$
C36097-P54
     RDKit          3D

 27 29  0  0  0  0  0  0  0  0999 V2000
  -10.6460  -23.5762   27.2615 O   0  0  0  0  0  0  0  0  0  0  0  0
  -11.4996  -24.5655   28.1929 C   0  0  0  0  0  0  0  0  0  0  0  0
  -11.7291  -23.9387   29.0555 N   0  0  0  0  0  0  0  0  0  0  0  0
  -11.4621  -22.6032   29.6591 C   0  0  0  0  0  0  0  0  0  0  0  0
  -11.4678  -21.4459   28.9093 C   0  0  0  0  0  0  0  0  0  0  0  0
  -11.4346  -20.2201   29.4698 N   0  0  0  0  0  0  0  0  0  0  0  0
  -11.2787  -20.1629   30.7996 C   0  0  0  0  0  0  0  0  0  0  0  0
  -11.1181  -21.2047   31.6172 N   0  0  0  0  0  0  0  0  0  0  0  0
  -11.2137  -22.4012   31.0268 C   0  0  0  0  0  0  0  0  0  0  0  0
  -11.7953  -25.9245   28.0298 C   0  0  0  0  0  0  0  0  0  0  0  0
  -12.9102  -26.6324   28.4212 C   0  0  0  0  0  0  0  0  0  0  0  0
  -14.3969  -26.0006   28.9610 Cl  0  0  0  0  0  0  0  0  0  0  0  0
  -12.6599  -27.9759   28.4381 N   0  0  0  0  0  0  0  0  0  0  0  0
  -11.4061  -28.0901   28.0716 C   0  0  0  0  0  0  0  0  0  0  0  0
  -10.5237  -29.1971   28.1048 C   0  0  0  0  0  0  0  0  0  0  0  0
   -9.2593  -29.0341   27.6835 C   0  0  0  0  0  0  0  0  0  0  0  0
   -8.8048  -27.8015   27.0790 C   0  0  0  0  0  0  0  0  0  0  0  0
   -9.6236  -26.7398   27.0837 C   0  0  0  0  0  0  0  0  0  0  0  0
  -10.8912  -26.8760   27.6353 N   0  0  0  0  0  0  0  0  0  0  0  0
  -12.0818  -23.7567   29.9790 H   0  0  0  0  0  0  0  0  0  0  0  0
  -11.5778  -21.4464   27.8278 H   0  0  0  0  0  0  0  0  0  0  0  0
  -11.2406  -19.1807   31.2533 H   0  0  0  0  0  0  0  0  0  0  0  0
  -11.0943  -23.2345   31.7138 H   0  0  0  0  0  0  0  0  0  0  0  0
  -10.8776  -30.1385   28.5066 H   0  0  0  0  0  0  0  0  0  0  0  0
   -8.5301  -29.8324   27.7390 H   0  0  0  0  0  0  0  0  0  0  0  0
   -7.7775  -27.7638   26.7343 H   0  0  0  0  0  0  0  0  0  0  0  0
   -9.3265  -25.7606   26.7438 H   0  0  0  0  0  0  0  0  0  0  0  0
  1  2  2  0
  2  3  1  0
  3  4  1  0
  4  5  2  0
  5  6  1  0
  6  7  2  0
  7  8  1  0
  8  9  2  0
  2 10  1  0
 10 11  2  0
 11 12  1  0
 11 13  1  0
 13 14  2  0
 14 15  1  0
 15 16  2  0
 16 17  1  0
 17 18  2  0
 18 19  1  0
  9  4  1  0
 19 10  1  0
 19 14  1  0
  3 20  1  0
  5 21  1  0
  7 22  1  0
  9 23  1  0
 15 24  1  0
 16 25  1  0
 17 26  1  0
 18 27  1  0
M  END
>  <Energy>  (1579) 
220.47420531887641

>  <compound_id>  (1579) 
36097

>  <target_id>  (1579) 
1

>  <reference_id>  (1579) 
54

>  <inspiration_ids>  (1579) 
[45, 54]

>  <energy_score>  (1579) 
212.69408663262607

>  <distance_score>  (1579) 
4.024264254994655

>  <path>  (1579) 
/opt/xchem-fragalysis-2/maxwin/BulkDock/SCRATCH/511013/C36097-P54/C36097-P54.minimised.mol

>  <scratch_subdir>  (1579) 
/opt/xchem-fragalysis-2/maxwin/BulkDock/SCRATCH/511013/C36097-P54

>  <fragmenstein_runtime>  (1579) 
4.153472661972046

>  <fragmenstein_outcome>  (1579) 
too moved

>  <fragmenstein_mode>  (1579) 
expansion

>  <fragmenstein_error>  (1579) 


$$$$
C36098-P45
     RDKit          3D

 34 36  0  0  0  0  0  0  0  0999 V2000
   -6.7636  -23.6913   27.8451 C   0  0  0  0  0  0  0  0  0  0  0  0
   -7.5765  -24.8377   27.6898 O   0  0  0  0  0  0  0  0  0  0  0  0
   -8.7450  -24.8557   28.5181 C   0  0  0  0  0  0  0  0  0  0  0  0
   -9.6271  -25.9534   28.0477 C   0  0  0  0  0  0  0  0  0  0  0  0
   -9.9538  -27.1504   28.7222 N   0  0  0  0  0  0  0  0  0  0  0  0
   -9.7581  -28.0577   27.7516 C   0  0  0  0  0  0  0  0  0  0  0  0
   -9.9192  -29.4305   27.4278 C   0  0  0  0  0  0  0  0  0  0  0  0
   -8.9638  -29.9928   26.6516 C   0  0  0  0  0  0  0  0  0  0  0  0
   -7.8252  -29.1999   26.1834 C   0  0  0  0  0  0  0  0  0  0  0  0
   -7.9383  -27.8633   26.2331 C   0  0  0  0  0  0  0  0  0  0  0  0
   -9.1043  -27.3586   26.7660 N   0  0  0  0  0  0  0  0  0  0  0  0
   -9.9118  -26.2137   26.7058 C   0  0  0  0  0  0  0  0  0  0  0  0
  -11.2809  -26.4116   26.1388 C   0  0  0  0  0  0  0  0  0  0  0  0
  -11.4569  -26.3375   24.9592 O   0  0  0  0  0  0  0  0  0  0  0  0
  -12.1862  -26.7706   27.2049 N   0  0  0  0  0  0  0  0  0  0  0  0
  -13.4854  -27.2197   27.1730 C   0  0  0  0  0  0  0  0  0  0  0  0
  -14.1785  -27.3588   28.3621 C   0  0  0  0  0  0  0  0  0  0  0  0
  -15.4773  -27.6888   28.4181 N   0  0  0  0  0  0  0  0  0  0  0  0
  -16.0719  -27.9066   27.2375 C   0  0  0  0  0  0  0  0  0  0  0  0
  -15.4838  -27.8327   26.0309 N   0  0  0  0  0  0  0  0  0  0  0  0
  -14.1831  -27.4937   26.0213 C   0  0  0  0  0  0  0  0  0  0  0  0
   -6.1853  -23.7724   28.7636 H   0  0  0  0  0  0  0  0  0  0  0  0
   -6.0604  -23.6580   27.0095 H   0  0  0  0  0  0  0  0  0  0  0  0
   -7.3560  -22.7745   27.8363 H   0  0  0  0  0  0  0  0  0  0  0  0
   -9.2884  -23.9133   28.3992 H   0  0  0  0  0  0  0  0  0  0  0  0
   -8.4674  -25.0043   29.5617 H   0  0  0  0  0  0  0  0  0  0  0  0
  -10.7535  -29.9978   27.8200 H   0  0  0  0  0  0  0  0  0  0  0  0
   -8.9900  -31.0449   26.3879 H   0  0  0  0  0  0  0  0  0  0  0  0
   -6.9558  -29.6869   25.7611 H   0  0  0  0  0  0  0  0  0  0  0  0
   -7.1933  -27.1662   25.8935 H   0  0  0  0  0  0  0  0  0  0  0  0
  -11.7142  -26.6459   28.0978 H   0  0  0  0  0  0  0  0  0  0  0  0
  -13.7198  -27.1602   29.3270 H   0  0  0  0  0  0  0  0  0  0  0  0
  -17.1244  -28.1701   27.2563 H   0  0  0  0  0  0  0  0  0  0  0  0
  -13.7341  -27.4236   25.0365 H   0  0  0  0  0  0  0  0  0  0  0  0
  1  2  1  0
  2  3  1  0
  3  4  1  0
  4  5  1  0
  5  6  2  0
  6  7  1  0
  7  8  2  0
  8  9  1  0
  9 10  2  0
 10 11  1  0
 11 12  1  0
 12 13  1  0
 13 14  2  0
 13 15  1  0
 15 16  1  0
 16 17  2  0
 17 18  1  0
 18 19  2  0
 19 20  1  0
 20 21  2  0
 12  4  2  0
 21 16  1  0
 11  6  1  0
  1 22  1  0
  1 23  1  0
  1 24  1  0
  3 25  1  0
  3 26  1  0
  7 27  1  0
  8 28  1  0
  9 29  1  0
 10 30  1  0
 15 31  1  0
 17 32  1  0
 19 33  1  0
 21 34  1  0
M  END
>  <Energy>  (1580) 
125.03979902987912

>  <compound_id>  (1580) 
36098

>  <target_id>  (1580) 
1

>  <reference_id>  (1580) 
45

>  <inspiration_ids>  (1580) 
[45, 54]

>  <energy_score>  (1580) 
50.87718984194083

>  <distance_score>  (1580) 
4.802934826822524

>  <path>  (1580) 
/opt/xchem-fragalysis-2/maxwin/BulkDock/SCRATCH/511013/C36098-P45/C36098-P45.minimised.mol

>  <scratch_subdir>  (1580) 
/opt/xchem-fragalysis-2/maxwin/BulkDock/SCRATCH/511013/C36098-P45

>  <fragmenstein_runtime>  (1580) 
6.520890951156616

>  <fragmenstein_outcome>  (1580) 
too moved

>  <fragmenstein_mode>  (1580) 
expansion

>  <fragmenstein_error>  (1580) 


$$$$
C36098-P54
     RDKit          3D

 34 36  0  0  0  0  0  0  0  0999 V2000
  -11.3272  -20.8078   30.0916 C   0  0  0  0  0  0  0  0  0  0  0  0
  -11.1950  -21.9697   29.2815 O   0  0  0  0  0  0  0  0  0  0  0  0
  -11.8781  -23.0706   29.8854 C   0  0  0  0  0  0  0  0  0  0  0  0
  -11.5519  -24.3725   29.2438 C   0  0  0  0  0  0  0  0  0  0  0  0
  -11.6811  -25.5746   29.9251 N   0  0  0  0  0  0  0  0  0  0  0  0
  -11.2827  -26.4988   29.0716 C   0  0  0  0  0  0  0  0  0  0  0  0
  -11.1981  -27.9207   29.1472 C   0  0  0  0  0  0  0  0  0  0  0  0
  -10.4704  -28.5921   28.2285 C   0  0  0  0  0  0  0  0  0  0  0  0
   -9.7706  -27.8960   27.1590 C   0  0  0  0  0  0  0  0  0  0  0  0
   -9.9979  -26.5874   26.9906 C   0  0  0  0  0  0  0  0  0  0  0  0
  -10.7694  -25.9103   27.9239 N   0  0  0  0  0  0  0  0  0  0  0  0
  -11.2233  -24.6216   27.9301 C   0  0  0  0  0  0  0  0  0  0  0  0
  -11.4286  -23.8909   26.7580 C   0  0  0  0  0  0  0  0  0  0  0  0
  -10.4144  -23.6131   25.5507 O   0  0  0  0  0  0  0  0  0  0  0  0
  -12.3554  -23.4450   26.3951 N   0  0  0  0  0  0  0  0  0  0  0  0
  -12.9445  -22.6280   25.2559 C   0  0  0  0  0  0  0  0  0  0  0  0
  -12.1859  -21.9887   24.2909 C   0  0  0  0  0  0  0  0  0  0  0  0
  -12.6963  -21.2561   23.2801 N   0  0  0  0  0  0  0  0  0  0  0  0
  -14.0259  -21.1844   23.2072 C   0  0  0  0  0  0  0  0  0  0  0  0
  -14.8892  -21.8463   23.9903 N   0  0  0  0  0  0  0  0  0  0  0  0
  -14.3277  -22.5258   25.0046 C   0  0  0  0  0  0  0  0  0  0  0  0
  -10.9055  -19.9571   29.5515 H   0  0  0  0  0  0  0  0  0  0  0  0
  -10.7889  -20.9434   31.0336 H   0  0  0  0  0  0  0  0  0  0  0  0
  -12.3776  -20.6021   30.3095 H   0  0  0  0  0  0  0  0  0  0  0  0
  -12.9444  -22.8793   29.7596 H   0  0  0  0  0  0  0  0  0  0  0  0
  -11.6153  -23.1256   30.9474 H   0  0  0  0  0  0  0  0  0  0  0  0
  -11.6869  -28.4297   29.9695 H   0  0  0  0  0  0  0  0  0  0  0  0
  -10.3597  -29.6702   28.2835 H   0  0  0  0  0  0  0  0  0  0  0  0
   -9.0682  -28.4220   26.5243 H   0  0  0  0  0  0  0  0  0  0  0  0
   -9.5418  -26.0006   26.2110 H   0  0  0  0  0  0  0  0  0  0  0  0
  -13.2982  -23.1385   26.4756 H   0  0  0  0  0  0  0  0  0  0  0  0
  -11.1079  -22.0425   24.2476 H   0  0  0  0  0  0  0  0  0  0  0  0
  -14.4398  -20.5581   22.4244 H   0  0  0  0  0  0  0  0  0  0  0  0
  -15.0648  -23.0181   25.6374 H   0  0  0  0  0  0  0  0  0  0  0  0
  1  2  1  0
  2  3  1  0
  3  4  1  0
  4  5  1  0
  5  6  2  0
  6  7  1  0
  7  8  2  0
  8  9  1  0
  9 10  2  0
 10 11  1  0
 11 12  1  0
 12 13  1  0
 13 14  2  0
 13 15  1  0
 15 16  1  0
 16 17  2  0
 17 18  1  0
 18 19  2  0
 19 20  1  0
 20 21  2  0
 12  4  2  0
 21 16  1  0
 11  6  1  0
  1 22  1  0
  1 23  1  0
  1 24  1  0
  3 25  1  0
  3 26  1  0
  7 27  1  0
  8 28  1  0
  9 29  1  0
 10 30  1  0
 15 31  1  0
 17 32  1  0
 19 33  1  0
 21 34  1  0
M  END
>  <Energy>  (1581) 
256.73871944794138

>  <compound_id>  (1581) 
36098

>  <target_id>  (1581) 
1

>  <reference_id>  (1581) 
54

>  <inspiration_ids>  (1581) 
[45, 54]

>  <energy_score>  (1581) 
182.57611026001723

>  <distance_score>  (1581) 
5.329113681909022

>  <path>  (1581) 
/opt/xchem-fragalysis-2/maxwin/BulkDock/SCRATCH/511013/C36098-P54/C36098-P54.minimised.mol

>  <scratch_subdir>  (1581) 
/opt/xchem-fragalysis-2/maxwin/BulkDock/SCRATCH/511013/C36098-P54

>  <fragmenstein_runtime>  (1581) 
9.13326096534729

>  <fragmenstein_outcome>  (1581) 
too moved

>  <fragmenstein_mode>  (1581) 
expansion

>  <fragmenstein_error>  (1581) 


$$$$
C36099-P45
     RDKit          3D

 27 29  0  0  0  0  0  0  0  0999 V2000
   -8.1931  -23.7269   28.0448 O   0  0  0  0  0  0  0  0  0  0  0  0
   -9.0327  -24.5328   27.9774 C   0  0  0  0  0  0  0  0  0  0  0  0
  -10.5568  -24.4161   28.2192 N   0  0  0  0  0  0  0  0  0  0  0  0
  -11.3051  -23.3665   28.6615 C   0  0  0  0  0  0  0  0  0  0  0  0
  -12.2233  -23.7726   29.5881 C   0  0  0  0  0  0  0  0  0  0  0  0
  -12.4712  -23.1124   30.7270 N   0  0  0  0  0  0  0  0  0  0  0  0
  -11.8838  -21.9309   30.8426 C   0  0  0  0  0  0  0  0  0  0  0  0
  -11.1444  -21.3658   29.8986 N   0  0  0  0  0  0  0  0  0  0  0  0
  -10.8656  -22.1043   28.8134 C   0  0  0  0  0  0  0  0  0  0  0  0
   -8.8318  -25.9176   27.7352 C   0  0  0  0  0  0  0  0  0  0  0  0
   -9.6048  -26.8907   28.3498 C   0  0  0  0  0  0  0  0  0  0  0  0
   -9.4983  -28.0535   27.7174 N   0  0  0  0  0  0  0  0  0  0  0  0
   -8.4136  -27.9069   27.0056 C   0  0  0  0  0  0  0  0  0  0  0  0
   -7.7213  -28.8443   26.2423 C   0  0  0  0  0  0  0  0  0  0  0  0
   -8.6100  -30.1117   25.5114 Cl  0  0  0  0  0  0  0  0  0  0  0  0
   -6.4157  -28.6495   26.0530 C   0  0  0  0  0  0  0  0  0  0  0  0
   -5.7265  -27.4511   26.5063 C   0  0  0  0  0  0  0  0  0  0  0  0
   -6.4773  -26.4209   26.9371 C   0  0  0  0  0  0  0  0  0  0  0  0
   -7.8269  -26.6576   27.1773 N   0  0  0  0  0  0  0  0  0  0  0  0
  -11.0023  -25.2930   27.9936 H   0  0  0  0  0  0  0  0  0  0  0  0
  -12.6828  -24.7551   29.5291 H   0  0  0  0  0  0  0  0  0  0  0  0
  -12.0169  -21.3904   31.7713 H   0  0  0  0  0  0  0  0  0  0  0  0
  -10.1275  -21.6868   28.1579 H   0  0  0  0  0  0  0  0  0  0  0  0
  -10.3404  -26.7788   29.1391 H   0  0  0  0  0  0  0  0  0  0  0  0
   -5.9129  -29.3333   25.4001 H   0  0  0  0  0  0  0  0  0  0  0  0
   -4.6560  -27.3591   26.3460 H   0  0  0  0  0  0  0  0  0  0  0  0
   -6.0736  -25.4462   27.1850 H   0  0  0  0  0  0  0  0  0  0  0  0
  1  2  2  0
  2  3  1  0
  3  4  1  0
  4  5  2  0
  5  6  1  0
  6  7  2  0
  7  8  1  0
  8  9  2  0
  2 10  1  0
 10 11  2  0
 11 12  1  0
 12 13  2  0
 13 14  1  0
 14 15  1  0
 14 16  2  0
 16 17  1  0
 17 18  2  0
 18 19  1  0
  9  4  1  0
 19 10  1  0
 19 13  1  0
  3 20  1  0
  5 21  1  0
  7 22  1  0
  9 23  1  0
 11 24  1  0
 16 25  1  0
 17 26  1  0
 18 27  1  0
M  END
>  <Energy>  (1582) 
76.208310777127664

>  <compound_id>  (1582) 
36099

>  <target_id>  (1582) 
1

>  <reference_id>  (1582) 
45

>  <inspiration_ids>  (1582) 
[45, 54]

>  <energy_score>  (1582) 
43.282457283010444

>  <distance_score>  (1582) 
2.3130060291359267

>  <path>  (1582) 
/opt/xchem-fragalysis-2/maxwin/BulkDock/SCRATCH/511013/C36099-P45/C36099-P45.minimised.mol

>  <scratch_subdir>  (1582) 
/opt/xchem-fragalysis-2/maxwin/BulkDock/SCRATCH/511013/C36099-P45

>  <fragmenstein_runtime>  (1582) 
2.6906349658966064

>  <fragmenstein_outcome>  (1582) 
too moved

>  <fragmenstein_mode>  (1582) 
expansion

>  <fragmenstein_error>  (1582) 


$$$$
C36099-P54
     RDKit          3D

 27 29  0  0  0  0  0  0  0  0999 V2000
  -10.7915  -23.2717   26.3251 O   0  0  0  0  0  0  0  0  0  0  0  0
  -10.7909  -24.1217   27.1134 C   0  0  0  0  0  0  0  0  0  0  0  0
  -10.7184  -24.0594   28.6354 N   0  0  0  0  0  0  0  0  0  0  0  0
  -10.7259  -22.9878   29.4811 C   0  0  0  0  0  0  0  0  0  0  0  0
  -10.5999  -23.2471   30.8245 C   0  0  0  0  0  0  0  0  0  0  0  0
  -10.8345  -22.3335   31.7641 N   0  0  0  0  0  0  0  0  0  0  0  0
  -11.2516  -21.1428   31.3075 C   0  0  0  0  0  0  0  0  0  0  0  0
  -11.3745  -20.7741   30.0180 N   0  0  0  0  0  0  0  0  0  0  0  0
  -11.0754  -21.7131   29.1056 C   0  0  0  0  0  0  0  0  0  0  0  0
  -10.9624  -25.4990   26.8362 C   0  0  0  0  0  0  0  0  0  0  0  0
  -12.1780  -26.0813   26.6164 C   0  0  0  0  0  0  0  0  0  0  0  0
  -12.1294  -27.4079   26.9022 N   0  0  0  0  0  0  0  0  0  0  0  0
  -10.8841  -27.6547   27.2340 C   0  0  0  0  0  0  0  0  0  0  0  0
  -10.2212  -28.8399   27.6456 C   0  0  0  0  0  0  0  0  0  0  0  0
  -11.1714  -30.1868   28.1461 Cl  0  0  0  0  0  0  0  0  0  0  0  0
   -8.8891  -28.9127   27.5088 C   0  0  0  0  0  0  0  0  0  0  0  0
   -8.1308  -27.7613   27.1056 C   0  0  0  0  0  0  0  0  0  0  0  0
   -8.7484  -26.5830   27.1136 C   0  0  0  0  0  0  0  0  0  0  0  0
  -10.1058  -26.5351   27.0637 N   0  0  0  0  0  0  0  0  0  0  0  0
  -10.8235  -24.9918   29.0169 H   0  0  0  0  0  0  0  0  0  0  0  0
  -10.3246  -24.2251   31.2040 H   0  0  0  0  0  0  0  0  0  0  0  0
  -11.5070  -20.3974   32.0537 H   0  0  0  0  0  0  0  0  0  0  0  0
  -11.2027  -21.4119   28.0698 H   0  0  0  0  0  0  0  0  0  0  0  0
  -13.1191  -25.5884   26.3954 H   0  0  0  0  0  0  0  0  0  0  0  0
   -8.3377  -29.8137   27.7284 H   0  0  0  0  0  0  0  0  0  0  0  0
   -7.0652  -27.7813   26.9711 H   0  0  0  0  0  0  0  0  0  0  0  0
   -8.2301  -25.6627   27.1487 H   0  0  0  0  0  0  0  0  0  0  0  0
  1  2  2  0
  2  3  1  0
  3  4  1  0
  4  5  2  0
  5  6  1  0
  6  7  2  0
  7  8  1  0
  8  9  2  0
  2 10  1  0
 10 11  2  0
 11 12  1  0
 12 13  2  0
 13 14  1  0
 14 15  1  0
 14 16  2  0
 16 17  1  0
 17 18  2  0
 18 19  1  0
  9  4  1  0
 19 10  1  0
 19 13  1  0
  3 20  1  0
  5 21  1  0
  7 22  1  0
  9 23  1  0
 11 24  1  0
 16 25  1  0
 17 26  1  0
 18 27  1  0
M  END
>  <Energy>  (1583) 
52.740206551714216

>  <compound_id>  (1583) 
36099

>  <target_id>  (1583) 
1

>  <reference_id>  (1583) 
54

>  <inspiration_ids>  (1583) 
[45, 54]

>  <energy_score>  (1583) 
19.81435305759706

>  <distance_score>  (1583) 
3.4227228956058564

>  <path>  (1583) 
/opt/xchem-fragalysis-2/maxwin/BulkDock/SCRATCH/511013/C36099-P54/C36099-P54.minimised.mol

>  <scratch_subdir>  (1583) 
/opt/xchem-fragalysis-2/maxwin/BulkDock/SCRATCH/511013/C36099-P54

>  <fragmenstein_runtime>  (1583) 
3.4040184020996094

>  <fragmenstein_outcome>  (1583) 
too moved

>  <fragmenstein_mode>  (1583) 
expansion

>  <fragmenstein_error>  (1583) 


$$$$
C36101-P45
     RDKit          3D

 33 35  0  0  0  0  0  0  0  0999 V2000
   -9.2762  -25.1670   25.8191 O   0  0  0  0  0  0  0  0  0  0  0  0
   -9.7768  -26.1156   26.2604 C   0  0  0  0  0  0  0  0  0  0  0  0
  -11.2267  -26.5759   26.2199 N   0  0  0  0  0  0  0  0  0  0  0  0
  -12.3882  -25.9290   25.7132 C   0  0  0  0  0  0  0  0  0  0  0  0
  -12.2241  -24.4089   25.9993 C   0  0  0  0  0  0  0  0  0  0  0  0
  -11.9596  -24.0030   27.4379 C   0  0  0  0  0  0  0  0  0  0  0  0
  -11.6250  -22.7047   27.7545 C   0  0  0  0  0  0  0  0  0  0  0  0
  -11.4637  -22.2266   29.0044 N   0  0  0  0  0  0  0  0  0  0  0  0
  -11.5742  -23.1151   29.9839 C   0  0  0  0  0  0  0  0  0  0  0  0
  -11.8165  -24.4212   29.8256 N   0  0  0  0  0  0  0  0  0  0  0  0
  -12.0527  -24.8142   28.5512 C   0  0  0  0  0  0  0  0  0  0  0  0
   -8.9872  -27.1141   27.1381 C   0  0  0  0  0  0  0  0  0  0  0  0
   -9.3739  -26.7078   28.5004 C   0  0  0  0  0  0  0  0  0  0  0  0
   -8.9130  -25.5235   28.9544 C   0  0  0  0  0  0  0  0  0  0  0  0
   -7.8433  -24.8937   28.2496 C   0  0  0  0  0  0  0  0  0  0  0  0
   -7.2679  -23.7208   28.3634 N   0  0  0  0  0  0  0  0  0  0  0  0
   -6.0597  -23.8602   27.7314 C   0  0  0  0  0  0  0  0  0  0  0  0
   -5.9187  -25.1317   27.2406 C   0  0  0  0  0  0  0  0  0  0  0  0
   -4.3411  -26.0260   26.7939 Br  0  0  0  0  0  0  0  0  0  0  0  0
   -7.1373  -25.7195   27.3730 N   0  0  0  0  0  0  0  0  0  0  0  0
   -7.6635  -26.9301   26.8996 C   0  0  0  0  0  0  0  0  0  0  0  0
  -11.3303  -27.4143   26.7793 H   0  0  0  0  0  0  0  0  0  0  0  0
  -12.4557  -26.1120   24.6409 H   0  0  0  0  0  0  0  0  0  0  0  0
  -13.2513  -26.3878   26.1937 H   0  0  0  0  0  0  0  0  0  0  0  0
  -11.3937  -24.0366   25.3882 H   0  0  0  0  0  0  0  0  0  0  0  0
  -13.0978  -23.8787   25.6119 H   0  0  0  0  0  0  0  0  0  0  0  0
  -11.5007  -21.9615   26.9766 H   0  0  0  0  0  0  0  0  0  0  0  0
  -11.4428  -22.7469   30.9946 H   0  0  0  0  0  0  0  0  0  0  0  0
  -12.3484  -25.8543   28.4808 H   0  0  0  0  0  0  0  0  0  0  0  0
  -10.1181  -27.2790   29.0400 H   0  0  0  0  0  0  0  0  0  0  0  0
   -9.2370  -25.1057   29.8981 H   0  0  0  0  0  0  0  0  0  0  0  0
   -5.3265  -23.0725   27.7790 H   0  0  0  0  0  0  0  0  0  0  0  0
   -7.1176  -27.4115   26.1008 H   0  0  0  0  0  0  0  0  0  0  0  0
  1  2  2  0
  2  3  1  0
  3  4  1  0
  4  5  1  0
  5  6  1  0
  6  7  2  0
  7  8  1  0
  8  9  2  0
  9 10  1  0
 10 11  2  0
  2 12  1  0
 12 13  1  0
 13 14  2  0
 14 15  1  0
 15 16  2  0
 16 17  1  0
 17 18  2  0
 18 19  1  0
 18 20  1  0
 20 21  1  0
 11  6  1  0
 21 12  2  0
 20 15  1  0
  3 22  1  0
  4 23  1  0
  4 24  1  0
  5 25  1  0
  5 26  1  0
  7 27  1  0
  9 28  1  0
 11 29  1  0
 13 30  1  0
 14 31  1  0
 17 32  1  0
 21 33  1  0
M  END
>  <Energy>  (1584) 
99.717665104167509

>  <compound_id>  (1584) 
36101

>  <target_id>  (1584) 
1

>  <reference_id>  (1584) 
45

>  <inspiration_ids>  (1584) 
[45, 54]

>  <energy_score>  (1584) 
70.66394038857055

>  <distance_score>  (1584) 
1.8028271602988133

>  <path>  (1584) 
/opt/xchem-fragalysis-2/maxwin/BulkDock/SCRATCH/511013/C36101-P45/C36101-P45.minimised.mol

>  <scratch_subdir>  (1584) 
/opt/xchem-fragalysis-2/maxwin/BulkDock/SCRATCH/511013/C36101-P45

>  <fragmenstein_runtime>  (1584) 
3.0955445766448975

>  <fragmenstein_outcome>  (1584) 
too moved

>  <fragmenstein_mode>  (1584) 
expansion

>  <fragmenstein_error>  (1584) 


$$$$
C36101-P54
     RDKit          3D

 33 35  0  0  0  0  0  0  0  0999 V2000
  -11.0430  -26.8652   24.9274 O   0  0  0  0  0  0  0  0  0  0  0  0
  -11.3948  -26.8092   26.0274 C   0  0  0  0  0  0  0  0  0  0  0  0
  -12.7169  -26.3080   26.6249 N   0  0  0  0  0  0  0  0  0  0  0  0
  -13.8423  -25.6840   25.9989 C   0  0  0  0  0  0  0  0  0  0  0  0
  -13.6450  -24.1536   26.0185 C   0  0  0  0  0  0  0  0  0  0  0  0
  -12.8290  -23.5956   27.1494 C   0  0  0  0  0  0  0  0  0  0  0  0
  -11.8853  -22.6012   26.9768 C   0  0  0  0  0  0  0  0  0  0  0  0
  -11.3207  -21.9153   27.9917 N   0  0  0  0  0  0  0  0  0  0  0  0
  -11.7359  -22.2325   29.2179 C   0  0  0  0  0  0  0  0  0  0  0  0
  -12.5918  -23.2194   29.5002 N   0  0  0  0  0  0  0  0  0  0  0  0
  -13.1140  -23.8893   28.4628 C   0  0  0  0  0  0  0  0  0  0  0  0
  -10.5214  -27.1478   27.1534 C   0  0  0  0  0  0  0  0  0  0  0  0
  -10.9535  -28.1486   28.1004 C   0  0  0  0  0  0  0  0  0  0  0  0
  -11.2754  -27.7652   29.3438 C   0  0  0  0  0  0  0  0  0  0  0  0
  -11.0020  -26.4278   29.7544 C   0  0  0  0  0  0  0  0  0  0  0  0
  -11.1471  -25.8686   30.9320 N   0  0  0  0  0  0  0  0  0  0  0  0
  -10.3560  -24.7551   30.8983 C   0  0  0  0  0  0  0  0  0  0  0  0
   -9.7941  -24.6043   29.6655 C   0  0  0  0  0  0  0  0  0  0  0  0
   -8.5378  -23.3196   29.3084 Br  0  0  0  0  0  0  0  0  0  0  0  0
  -10.2695  -25.6097   28.8834 N   0  0  0  0  0  0  0  0  0  0  0  0
  -10.0149  -25.9640   27.5631 C   0  0  0  0  0  0  0  0  0  0  0  0
  -12.6592  -26.3244   27.6356 H   0  0  0  0  0  0  0  0  0  0  0  0
  -13.9770  -26.0515   24.9823 H   0  0  0  0  0  0  0  0  0  0  0  0
  -14.7244  -25.9567   26.5874 H   0  0  0  0  0  0  0  0  0  0  0  0
  -13.2359  -23.8066   25.0715 H   0  0  0  0  0  0  0  0  0  0  0  0
  -14.6393  -23.6871   26.0533 H   0  0  0  0  0  0  0  0  0  0  0  0
  -11.6045  -22.2568   25.9851 H   0  0  0  0  0  0  0  0  0  0  0  0
  -11.3389  -21.6597   30.0483 H   0  0  0  0  0  0  0  0  0  0  0  0
  -13.8648  -24.6256   28.7354 H   0  0  0  0  0  0  0  0  0  0  0  0
  -11.0939  -29.1713   27.7719 H   0  0  0  0  0  0  0  0  0  0  0  0
  -11.6597  -28.4648   30.0781 H   0  0  0  0  0  0  0  0  0  0  0  0
  -10.2211  -24.1316   31.7729 H   0  0  0  0  0  0  0  0  0  0  0  0
   -9.7396  -25.1430   26.9167 H   0  0  0  0  0  0  0  0  0  0  0  0
  1  2  2  0
  2  3  1  0
  3  4  1  0
  4  5  1  0
  5  6  1  0
  6  7  2  0
  7  8  1  0
  8  9  2  0
  9 10  1  0
 10 11  2  0
  2 12  1  0
 12 13  1  0
 13 14  2  0
 14 15  1  0
 15 16  2  0
 16 17  1  0
 17 18  2  0
 18 19  1  0
 18 20  1  0
 20 21  1  0
 11  6  1  0
 21 12  2  0
 20 15  1  0
  3 22  1  0
  4 23  1  0
  4 24  1  0
  5 25  1  0
  5 26  1  0
  7 27  1  0
  9 28  1  0
 11 29  1  0
 13 30  1  0
 14 31  1  0
 17 32  1  0
 21 33  1  0
M  END
>  <Energy>  (1585) 
68.333034407377355

>  <compound_id>  (1585) 
36101

>  <target_id>  (1585) 
1

>  <reference_id>  (1585) 
54

>  <inspiration_ids>  (1585) 
[45, 54]

>  <energy_score>  (1585) 
39.279309691779815

>  <distance_score>  (1585) 
3.5152558037452684

>  <path>  (1585) 
/opt/xchem-fragalysis-2/maxwin/BulkDock/SCRATCH/511013/C36101-P54/C36101-P54.minimised.mol

>  <scratch_subdir>  (1585) 
/opt/xchem-fragalysis-2/maxwin/BulkDock/SCRATCH/511013/C36101-P54

>  <fragmenstein_runtime>  (1585) 
5.226886749267578

>  <fragmenstein_outcome>  (1585) 
too moved

>  <fragmenstein_mode>  (1585) 
expansion

>  <fragmenstein_error>  (1585) 


$$$$
C36102-P45
     RDKit          3D

 35 37  0  0  0  0  0  0  0  0999 V2000
  -10.3316  -27.0056   29.6382 O   0  0  0  0  0  0  0  0  0  0  0  0
  -10.2530  -26.0066   28.9180 C   0  0  0  0  0  0  0  0  0  0  0  0
  -11.2596  -25.8595   27.7556 C   0  0  0  0  0  0  0  0  0  0  0  0
  -11.5842  -24.4571   27.2419 C   0  0  0  0  0  0  0  0  0  0  0  0
  -11.7769  -23.5409   28.3948 C   0  0  0  0  0  0  0  0  0  0  0  0
  -11.3864  -22.2442   28.4061 C   0  0  0  0  0  0  0  0  0  0  0  0
  -11.3082  -21.5029   29.5232 N   0  0  0  0  0  0  0  0  0  0  0  0
  -11.6782  -22.0705   30.6650 C   0  0  0  0  0  0  0  0  0  0  0  0
  -12.1550  -23.3002   30.7643 N   0  0  0  0  0  0  0  0  0  0  0  0
  -12.2525  -23.9653   29.6042 C   0  0  0  0  0  0  0  0  0  0  0  0
   -9.3568  -25.0329   29.2374 O   0  0  0  0  0  0  0  0  0  0  0  0
   -8.5099  -24.2854   28.3001 C   0  0  0  0  0  0  0  0  0  0  0  0
   -7.9418  -25.1855   27.3133 C   0  0  0  0  0  0  0  0  0  0  0  0
   -8.8479  -25.9627   26.7039 N   0  0  0  0  0  0  0  0  0  0  0  0
   -8.2548  -27.1169   26.6574 C   0  0  0  0  0  0  0  0  0  0  0  0
   -8.8255  -28.3872   26.4504 C   0  0  0  0  0  0  0  0  0  0  0  0
   -8.0156  -29.3818   26.0984 C   0  0  0  0  0  0  0  0  0  0  0  0
   -6.5982  -29.1449   25.9768 C   0  0  0  0  0  0  0  0  0  0  0  0
   -6.0244  -27.9955   26.3703 C   0  0  0  0  0  0  0  0  0  0  0  0
   -6.8767  -26.9633   26.7070 N   0  0  0  0  0  0  0  0  0  0  0  0
   -6.6746  -25.6599   27.0918 C   0  0  0  0  0  0  0  0  0  0  0  0
   -5.0738  -24.7877   27.5003 Br  0  0  0  0  0  0  0  0  0  0  0  0
  -12.1966  -26.2959   28.1335 H   0  0  0  0  0  0  0  0  0  0  0  0
  -11.0091  -26.5131   26.9198 H   0  0  0  0  0  0  0  0  0  0  0  0
  -10.7735  -24.1050   26.5993 H   0  0  0  0  0  0  0  0  0  0  0  0
  -12.4739  -24.4789   26.6103 H   0  0  0  0  0  0  0  0  0  0  0  0
  -11.0766  -21.7626   27.4926 H   0  0  0  0  0  0  0  0  0  0  0  0
  -11.5877  -21.4846   31.5716 H   0  0  0  0  0  0  0  0  0  0  0  0
  -12.7725  -24.9160   29.6749 H   0  0  0  0  0  0  0  0  0  0  0  0
   -7.6956  -23.8439   28.8697 H   0  0  0  0  0  0  0  0  0  0  0  0
   -9.0768  -23.4751   27.8702 H   0  0  0  0  0  0  0  0  0  0  0  0
   -9.8939  -28.5325   26.5342 H   0  0  0  0  0  0  0  0  0  0  0  0
   -8.4015  -30.3752   25.8961 H   0  0  0  0  0  0  0  0  0  0  0  0
   -6.0716  -29.9577   25.5224 H   0  0  0  0  0  0  0  0  0  0  0  0
   -4.9619  -27.7937   26.3168 H   0  0  0  0  0  0  0  0  0  0  0  0
  1  2  2  0
  2  3  1  0
  3  4  1  0
  4  5  1  0
  5  6  2  0
  6  7  1  0
  7  8  2  0
  8  9  1  0
  9 10  2  0
  2 11  1  0
 11 12  1  0
 12 13  1  0
 13 14  1  0
 14 15  2  0
 15 16  1  0
 16 17  2  0
 17 18  1  0
 18 19  2  0
 19 20  1  0
 20 21  1  0
 21 22  1  0
 10  5  1  0
 21 13  2  0
 20 15  1  0
  3 23  1  0
  3 24  1  0
  4 25  1  0
  4 26  1  0
  6 27  1  0
  8 28  1  0
 10 29  1  0
 12 30  1  0
 12 31  1  0
 16 32  1  0
 17 33  1  0
 18 34  1  0
 19 35  1  0
M  END
>  <Energy>  (1586) 
73.078245637461393

>  <compound_id>  (1586) 
36102

>  <target_id>  (1586) 
1

>  <reference_id>  (1586) 
45

>  <inspiration_ids>  (1586) 
[45, 54]

>  <energy_score>  (1586) 
15.716265463930483

>  <distance_score>  (1586) 
1.447894291333767

>  <path>  (1586) 
/opt/xchem-fragalysis-2/maxwin/BulkDock/SCRATCH/511013/C36102-P45/C36102-P45.minimised.mol

>  <scratch_subdir>  (1586) 
/opt/xchem-fragalysis-2/maxwin/BulkDock/SCRATCH/511013/C36102-P45

>  <fragmenstein_runtime>  (1586) 
2.8005211353302

>  <fragmenstein_outcome>  (1586) 
too moved

>  <fragmenstein_mode>  (1586) 
expansion

>  <fragmenstein_error>  (1586) 


$$$$
C36102-P54
     RDKit          3D

 35 37  0  0  0  0  0  0  0  0999 V2000
  -13.4300  -26.7457   26.4222 O   0  0  0  0  0  0  0  0  0  0  0  0
  -12.7466  -25.7551   26.2023 C   0  0  0  0  0  0  0  0  0  0  0  0
  -13.2348  -24.3374   26.3599 C   0  0  0  0  0  0  0  0  0  0  0  0
  -12.1077  -23.3371   26.6400 C   0  0  0  0  0  0  0  0  0  0  0  0
  -11.6699  -23.2411   28.0704 C   0  0  0  0  0  0  0  0  0  0  0  0
  -11.1996  -22.0468   28.5792 C   0  0  0  0  0  0  0  0  0  0  0  0
  -10.8071  -21.8799   29.8545 N   0  0  0  0  0  0  0  0  0  0  0  0
  -10.8599  -22.9703   30.6330 C   0  0  0  0  0  0  0  0  0  0  0  0
  -11.2656  -24.1899   30.2548 N   0  0  0  0  0  0  0  0  0  0  0  0
  -11.6543  -24.2896   28.9696 C   0  0  0  0  0  0  0  0  0  0  0  0
  -11.4837  -25.7715   25.7093 O   0  0  0  0  0  0  0  0  0  0  0  0
  -10.7960  -27.0139   25.6850 C   0  0  0  0  0  0  0  0  0  0  0  0
   -9.5029  -26.8884   26.4844 C   0  0  0  0  0  0  0  0  0  0  0  0
   -9.8777  -26.4945   27.7246 N   0  0  0  0  0  0  0  0  0  0  0  0
  -10.1152  -27.7122   28.1639 C   0  0  0  0  0  0  0  0  0  0  0  0
  -11.2372  -28.3015   28.7801 C   0  0  0  0  0  0  0  0  0  0  0  0
  -11.3709  -29.6350   28.6852 C   0  0  0  0  0  0  0  0  0  0  0  0
  -10.2888  -30.4737   28.2031 C   0  0  0  0  0  0  0  0  0  0  0  0
   -9.1317  -29.8979   27.8543 C   0  0  0  0  0  0  0  0  0  0  0  0
   -9.1078  -28.5457   27.6875 N   0  0  0  0  0  0  0  0  0  0  0  0
   -8.4988  -27.8722   26.6565 C   0  0  0  0  0  0  0  0  0  0  0  0
   -7.3116  -28.8922   25.3559 Br  0  0  0  0  0  0  0  0  0  0  0  0
  -13.7333  -24.0711   25.4208 H   0  0  0  0  0  0  0  0  0  0  0  0
  -13.9848  -24.3116   27.1583 H   0  0  0  0  0  0  0  0  0  0  0  0
  -11.2188  -23.5047   26.0222 H   0  0  0  0  0  0  0  0  0  0  0  0
  -12.4856  -22.3571   26.3365 H   0  0  0  0  0  0  0  0  0  0  0  0
  -11.1301  -21.1519   27.9633 H   0  0  0  0  0  0  0  0  0  0  0  0
  -10.5513  -22.8504   31.6654 H   0  0  0  0  0  0  0  0  0  0  0  0
  -11.9713  -25.2863   28.6932 H   0  0  0  0  0  0  0  0  0  0  0  0
  -10.6467  -27.3719   24.6863 H   0  0  0  0  0  0  0  0  0  0  0  0
  -11.4461  -27.7530   26.1437 H   0  0  0  0  0  0  0  0  0  0  0  0
  -12.0202  -27.6767   29.1917 H   0  0  0  0  0  0  0  0  0  0  0  0
  -12.2566  -30.1280   29.0772 H   0  0  0  0  0  0  0  0  0  0  0  0
  -10.4160  -31.5514   28.2217 H   0  0  0  0  0  0  0  0  0  0  0  0
   -8.2692  -30.4477   27.5022 H   0  0  0  0  0  0  0  0  0  0  0  0
  1  2  2  0
  2  3  1  0
  3  4  1  0
  4  5  1  0
  5  6  2  0
  6  7  1  0
  7  8  2  0
  8  9  1  0
  9 10  2  0
  2 11  1  0
 11 12  1  0
 12 13  1  0
 13 14  1  0
 14 15  2  0
 15 16  1  0
 16 17  2  0
 17 18  1  0
 18 19  2  0
 19 20  1  0
 20 21  1  0
 21 22  1  0
 10  5  1  0
 21 13  2  0
 20 15  1  0
  3 23  1  0
  3 24  1  0
  4 25  1  0
  4 26  1  0
  6 27  1  0
  8 28  1  0
 10 29  1  0
 12 30  1  0
 12 31  1  0
 16 32  1  0
 17 33  1  0
 18 34  1  0
 19 35  1  0
M  END
>  <Energy>  (1587) 
107.82599156435465

>  <compound_id>  (1587) 
36102

>  <target_id>  (1587) 
1

>  <reference_id>  (1587) 
54

>  <inspiration_ids>  (1587) 
[45, 54]

>  <energy_score>  (1587) 
50.464011390826784

>  <distance_score>  (1587) 
3.17757344483032

>  <path>  (1587) 
/opt/xchem-fragalysis-2/maxwin/BulkDock/SCRATCH/511013/C36102-P54/C36102-P54.minimised.mol

>  <scratch_subdir>  (1587) 
/opt/xchem-fragalysis-2/maxwin/BulkDock/SCRATCH/511013/C36102-P54

>  <fragmenstein_runtime>  (1587) 
3.3759496212005615

>  <fragmenstein_outcome>  (1587) 
too moved

>  <fragmenstein_mode>  (1587) 
expansion

>  <fragmenstein_error>  (1587) 


$$$$
C36103-P45
     RDKit          3D

 37 39  0  0  0  0  0  0  0  0999 V2000
  -13.2440  -23.9085   24.9067 C   0  0  0  0  0  0  0  0  0  0  0  0
  -11.8303  -23.7450   25.3621 C   0  0  0  0  0  0  0  0  0  0  0  0
  -11.3136  -24.4424   26.6359 C   0  0  0  0  0  0  0  0  0  0  0  0
   -9.8599  -24.3940   26.4813 N   0  0  0  0  0  0  0  0  0  0  0  0
   -8.9277  -24.2426   27.6058 C   0  0  0  0  0  0  0  0  0  0  0  0
   -8.2692  -25.5351   27.6976 C   0  0  0  0  0  0  0  0  0  0  0  0
   -9.0863  -26.6072   27.8894 N   0  0  0  0  0  0  0  0  0  0  0  0
   -8.4627  -27.5620   27.2637 C   0  0  0  0  0  0  0  0  0  0  0  0
   -8.9755  -28.7884   26.8008 C   0  0  0  0  0  0  0  0  0  0  0  0
   -8.1762  -29.5849   26.0869 C   0  0  0  0  0  0  0  0  0  0  0  0
   -6.7916  -29.2353   25.8558 C   0  0  0  0  0  0  0  0  0  0  0  0
   -6.2776  -28.0914   26.3299 C   0  0  0  0  0  0  0  0  0  0  0  0
   -7.1453  -27.2236   26.9601 N   0  0  0  0  0  0  0  0  0  0  0  0
   -7.0118  -25.9052   27.2903 C   0  0  0  0  0  0  0  0  0  0  0  0
   -5.5169  -24.7805   27.1138 Br  0  0  0  0  0  0  0  0  0  0  0  0
  -11.6968  -23.8348   27.9442 C   0  0  0  0  0  0  0  0  0  0  0  0
  -11.7230  -24.6121   29.0785 C   0  0  0  0  0  0  0  0  0  0  0  0
  -11.6991  -24.1109   30.3309 N   0  0  0  0  0  0  0  0  0  0  0  0
  -11.7402  -22.7748   30.4300 C   0  0  0  0  0  0  0  0  0  0  0  0
  -11.7649  -21.9234   29.4123 N   0  0  0  0  0  0  0  0  0  0  0  0
  -11.7020  -22.4811   28.1909 C   0  0  0  0  0  0  0  0  0  0  0  0
  -13.3748  -23.3496   23.9762 H   0  0  0  0  0  0  0  0  0  0  0  0
  -13.9189  -23.3659   25.5347 H   0  0  0  0  0  0  0  0  0  0  0  0
  -13.5449  -24.9533   24.8120 H   0  0  0  0  0  0  0  0  0  0  0  0
  -11.1996  -24.0205   24.5093 H   0  0  0  0  0  0  0  0  0  0  0  0
  -11.7694  -22.6724   25.4921 H   0  0  0  0  0  0  0  0  0  0  0  0
  -11.6399  -25.4897   26.6108 H   0  0  0  0  0  0  0  0  0  0  0  0
   -9.5402  -25.0974   25.8217 H   0  0  0  0  0  0  0  0  0  0  0  0
   -9.3561  -23.9825   28.5639 H   0  0  0  0  0  0  0  0  0  0  0  0
   -8.1778  -23.4784   27.3916 H   0  0  0  0  0  0  0  0  0  0  0  0
  -10.0089  -29.0433   26.9936 H   0  0  0  0  0  0  0  0  0  0  0  0
   -8.5393  -30.5245   25.6837 H   0  0  0  0  0  0  0  0  0  0  0  0
   -6.2312  -29.9188   25.2393 H   0  0  0  0  0  0  0  0  0  0  0  0
   -5.2605  -27.7700   26.1450 H   0  0  0  0  0  0  0  0  0  0  0  0
  -11.6478  -25.6953   29.0152 H   0  0  0  0  0  0  0  0  0  0  0  0
  -11.7367  -22.3446   31.4255 H   0  0  0  0  0  0  0  0  0  0  0  0
  -11.5699  -21.7722   27.3857 H   0  0  0  0  0  0  0  0  0  0  0  0
  1  2  1  0
  2  3  1  0
  3  4  1  0
  4  5  1  0
  5  6  1  0
  6  7  1  0
  7  8  2  0
  8  9  1  0
  9 10  2  0
 10 11  1  0
 11 12  2  0
 12 13  1  0
 13 14  1  0
 14 15  1  0
  3 16  1  0
 16 17  2  0
 17 18  1  0
 18 19  2  0
 19 20  1  0
 20 21  2  0
 14  6  2  0
 21 16  1  0
 13  8  1  0
  1 22  1  0
  1 23  1  0
  1 24  1  0
  2 25  1  0
  2 26  1  0
  3 27  1  0
  4 28  1  0
  5 29  1  0
  5 30  1  0
  9 31  1  0
 10 32  1  0
 11 33  1  0
 12 34  1  0
 17 35  1  0
 19 36  1  0
 21 37  1  0
M  END
>  <Energy>  (1588) 
65.891510841702939

>  <compound_id>  (1588) 
36103

>  <target_id>  (1588) 
1

>  <reference_id>  (1588) 
45

>  <inspiration_ids>  (1588) 
[45, 54]

>  <energy_score>  (1588) 
-0.4777939586358002

>  <distance_score>  (1588) 
1.4522089356280166

>  <path>  (1588) 
/opt/xchem-fragalysis-2/maxwin/BulkDock/SCRATCH/511013/C36103-P45/C36103-P45.minimised.mol

>  <scratch_subdir>  (1588) 
/opt/xchem-fragalysis-2/maxwin/BulkDock/SCRATCH/511013/C36103-P45

>  <fragmenstein_runtime>  (1588) 
2.227297782897949

>  <fragmenstein_outcome>  (1588) 
too moved

>  <fragmenstein_mode>  (1588) 
expansion

>  <fragmenstein_error>  (1588) 


$$$$
C36103-P54
     RDKit          3D

 37 39  0  0  0  0  0  0  0  0999 V2000
  -14.8988  -25.5265   26.4225 C   0  0  0  0  0  0  0  0  0  0  0  0
  -14.4713  -24.4459   27.4170 C   0  0  0  0  0  0  0  0  0  0  0  0
  -12.9390  -24.2852   27.4895 C   0  0  0  0  0  0  0  0  0  0  0  0
  -12.4182  -23.4733   26.3897 N   0  0  0  0  0  0  0  0  0  0  0  0
  -10.9388  -23.4392   26.3085 C   0  0  0  0  0  0  0  0  0  0  0  0
  -10.3373  -24.7836   26.5790 C   0  0  0  0  0  0  0  0  0  0  0  0
  -10.9862  -25.9077   26.0953 N   0  0  0  0  0  0  0  0  0  0  0  0
  -10.4812  -26.8636   26.8302 C   0  0  0  0  0  0  0  0  0  0  0  0
  -10.9537  -28.0785   27.3647 C   0  0  0  0  0  0  0  0  0  0  0  0
  -10.0446  -28.9958   27.7318 C   0  0  0  0  0  0  0  0  0  0  0  0
   -8.6440  -28.7639   27.4467 C   0  0  0  0  0  0  0  0  0  0  0  0
   -8.2275  -27.5112   27.2012 C   0  0  0  0  0  0  0  0  0  0  0  0
   -9.1901  -26.5226   27.1405 N   0  0  0  0  0  0  0  0  0  0  0  0
   -9.3393  -25.1906   27.4527 C   0  0  0  0  0  0  0  0  0  0  0  0
   -8.6662  -24.1779   28.9137 Br  0  0  0  0  0  0  0  0  0  0  0  0
  -12.3744  -23.8600   28.8150 C   0  0  0  0  0  0  0  0  0  0  0  0
  -11.9816  -24.8154   29.7328 C   0  0  0  0  0  0  0  0  0  0  0  0
  -11.3322  -24.5369   30.8766 N   0  0  0  0  0  0  0  0  0  0  0  0
  -11.0683  -23.2310   31.0893 C   0  0  0  0  0  0  0  0  0  0  0  0
  -11.3772  -22.2169   30.2721 N   0  0  0  0  0  0  0  0  0  0  0  0
  -12.0224  -22.5623   29.1454 C   0  0  0  0  0  0  0  0  0  0  0  0
  -15.9909  -25.5917   26.3856 H   0  0  0  0  0  0  0  0  0  0  0  0
  -14.5135  -26.5077   26.7184 H   0  0  0  0  0  0  0  0  0  0  0  0
  -14.5393  -25.3064   25.4130 H   0  0  0  0  0  0  0  0  0  0  0  0
  -14.9527  -23.5255   27.0909 H   0  0  0  0  0  0  0  0  0  0  0  0
  -14.8736  -24.7047   28.4031 H   0  0  0  0  0  0  0  0  0  0  0  0
  -12.6280  -25.3203   27.3741 H   0  0  0  0  0  0  0  0  0  0  0  0
  -12.7864  -23.8360   25.5177 H   0  0  0  0  0  0  0  0  0  0  0  0
  -10.5316  -22.6817   26.9820 H   0  0  0  0  0  0  0  0  0  0  0  0
  -10.6553  -23.1168   25.3020 H   0  0  0  0  0  0  0  0  0  0  0  0
  -12.0179  -28.2354   27.4866 H   0  0  0  0  0  0  0  0  0  0  0  0
  -10.3382  -29.9453   28.1660 H   0  0  0  0  0  0  0  0  0  0  0  0
   -7.9980  -29.6225   27.4792 H   0  0  0  0  0  0  0  0  0  0  0  0
   -7.1983  -27.2458   27.0327 H   0  0  0  0  0  0  0  0  0  0  0  0
  -12.1561  -25.8734   29.5609 H   0  0  0  0  0  0  0  0  0  0  0  0
  -10.5548  -22.9759   32.0097 H   0  0  0  0  0  0  0  0  0  0  0  0
  -12.1831  -21.7338   28.4616 H   0  0  0  0  0  0  0  0  0  0  0  0
  1  2  1  0
  2  3  1  0
  3  4  1  0
  4  5  1  0
  5  6  1  0
  6  7  1  0
  7  8  2  0
  8  9  1  0
  9 10  2  0
 10 11  1  0
 11 12  2  0
 12 13  1  0
 13 14  1  0
 14 15  1  0
  3 16  1  0
 16 17  2  0
 17 18  1  0
 18 19  2  0
 19 20  1  0
 20 21  2  0
 14  6  2  0
 21 16  1  0
 13  8  1  0
  1 22  1  0
  1 23  1  0
  1 24  1  0
  2 25  1  0
  2 26  1  0
  3 27  1  0
  4 28  1  0
  5 29  1  0
  5 30  1  0
  9 31  1  0
 10 32  1  0
 11 33  1  0
 12 34  1  0
 17 35  1  0
 19 36  1  0
 21 37  1  0
M  END
>  <Energy>  (1589) 
80.728269762950902

>  <compound_id>  (1589) 
36103

>  <target_id>  (1589) 
1

>  <reference_id>  (1589) 
54

>  <inspiration_ids>  (1589) 
[45, 54]

>  <energy_score>  (1589) 
14.35896496260932

>  <distance_score>  (1589) 
2.6076611116437785

>  <path>  (1589) 
/opt/xchem-fragalysis-2/maxwin/BulkDock/SCRATCH/511013/C36103-P54/C36103-P54.minimised.mol

>  <scratch_subdir>  (1589) 
/opt/xchem-fragalysis-2/maxwin/BulkDock/SCRATCH/511013/C36103-P54

>  <fragmenstein_runtime>  (1589) 
3.4322597980499268

>  <fragmenstein_outcome>  (1589) 
too moved

>  <fragmenstein_mode>  (1589) 
expansion

>  <fragmenstein_error>  (1589) 


$$$$
C36104-P45
     RDKit          3D

 34 36  0  0  0  0  0  0  0  0999 V2000
  -11.6956  -25.9828   26.4341 C   0  0  0  0  0  0  0  0  0  0  0  0
  -11.1999  -24.5508   26.6809 C   0  0  0  0  0  0  0  0  0  0  0  0
   -9.7765  -24.4402   26.3917 N   0  0  0  0  0  0  0  0  0  0  0  0
   -8.7778  -24.2219   27.4576 C   0  0  0  0  0  0  0  0  0  0  0  0
   -8.1452  -25.5167   27.6583 C   0  0  0  0  0  0  0  0  0  0  0  0
   -8.9664  -26.5679   27.9209 N   0  0  0  0  0  0  0  0  0  0  0  0
   -8.3876  -27.5481   27.2885 C   0  0  0  0  0  0  0  0  0  0  0  0
   -8.9424  -28.7626   26.8398 C   0  0  0  0  0  0  0  0  0  0  0  0
   -8.1816  -29.5788   26.1053 C   0  0  0  0  0  0  0  0  0  0  0  0
   -6.7948  -29.2635   25.8387 C   0  0  0  0  0  0  0  0  0  0  0  0
   -6.2400  -28.1364   26.3064 C   0  0  0  0  0  0  0  0  0  0  0  0
   -7.0701  -27.2478   26.9552 N   0  0  0  0  0  0  0  0  0  0  0  0
   -6.8953  -25.9331   27.2745 C   0  0  0  0  0  0  0  0  0  0  0  0
   -5.3596  -24.8717   27.1154 Br  0  0  0  0  0  0  0  0  0  0  0  0
  -11.5427  -23.9590   28.0033 C   0  0  0  0  0  0  0  0  0  0  0  0
  -11.6876  -22.5976   28.1590 C   0  0  0  0  0  0  0  0  0  0  0  0
  -11.8054  -21.9738   29.3429 N   0  0  0  0  0  0  0  0  0  0  0  0
  -11.7098  -22.7585   30.4124 C   0  0  0  0  0  0  0  0  0  0  0  0
  -11.5293  -24.0884   30.3979 N   0  0  0  0  0  0  0  0  0  0  0  0
  -11.4737  -24.6616   29.1784 C   0  0  0  0  0  0  0  0  0  0  0  0
  -11.3243  -26.7035   27.1647 H   0  0  0  0  0  0  0  0  0  0  0  0
  -11.3995  -26.3341   25.4393 H   0  0  0  0  0  0  0  0  0  0  0  0
  -12.7839  -26.0343   26.4709 H   0  0  0  0  0  0  0  0  0  0  0  0
  -11.7128  -23.9510   25.9164 H   0  0  0  0  0  0  0  0  0  0  0  0
   -9.4649  -25.1596   25.7489 H   0  0  0  0  0  0  0  0  0  0  0  0
   -9.1453  -23.8062   28.3877 H   0  0  0  0  0  0  0  0  0  0  0  0
   -8.0079  -23.5279   27.1114 H   0  0  0  0  0  0  0  0  0  0  0  0
   -9.9760  -28.9941   27.0600 H   0  0  0  0  0  0  0  0  0  0  0  0
   -8.5755  -30.5116   25.7154 H   0  0  0  0  0  0  0  0  0  0  0  0
   -6.2625  -29.9584   25.2083 H   0  0  0  0  0  0  0  0  0  0  0  0
   -5.2191  -27.8408   26.1011 H   0  0  0  0  0  0  0  0  0  0  0  0
  -11.6479  -21.9424   27.2962 H   0  0  0  0  0  0  0  0  0  0  0  0
  -11.7642  -22.2721   31.3804 H   0  0  0  0  0  0  0  0  0  0  0  0
  -11.2772  -25.7301   29.1882 H   0  0  0  0  0  0  0  0  0  0  0  0
  1  2  1  0
  2  3  1  0
  3  4  1  0
  4  5  1  0
  5  6  1  0
  6  7  2  0
  7  8  1  0
  8  9  2  0
  9 10  1  0
 10 11  2  0
 11 12  1  0
 12 13  1  0
 13 14  1  0
  2 15  1  0
 15 16  2  0
 16 17  1  0
 17 18  2  0
 18 19  1  0
 19 20  2  0
 13  5  2  0
 20 15  1  0
 12  7  1  0
  1 21  1  0
  1 22  1  0
  1 23  1  0
  2 24  1  0
  3 25  1  0
  4 26  1  0
  4 27  1  0
  8 28  1  0
  9 29  1  0
 10 30  1  0
 11 31  1  0
 16 32  1  0
 18 33  1  0
 20 34  1  0
M  END
>  <Energy>  (1590) 
58.690649351439184

>  <compound_id>  (1590) 
36104

>  <target_id>  (1590) 
1

>  <reference_id>  (1590) 
45

>  <inspiration_ids>  (1590) 
[45, 54]

>  <energy_score>  (1590) 
1.8151943173086806

>  <distance_score>  (1590) 
1.4270268366915388

>  <path>  (1590) 
/opt/xchem-fragalysis-2/maxwin/BulkDock/SCRATCH/511013/C36104-P45/C36104-P45.minimised.mol

>  <scratch_subdir>  (1590) 
/opt/xchem-fragalysis-2/maxwin/BulkDock/SCRATCH/511013/C36104-P45

>  <fragmenstein_runtime>  (1590) 
2.236863374710083

>  <fragmenstein_outcome>  (1590) 
too moved

>  <fragmenstein_mode>  (1590) 
expansion

>  <fragmenstein_error>  (1590) 


$$$$
C36104-P54
     RDKit          3D

 34 36  0  0  0  0  0  0  0  0999 V2000
  -13.7581  -25.2459   26.7354 C   0  0  0  0  0  0  0  0  0  0  0  0
  -13.0491  -23.9208   27.0717 C   0  0  0  0  0  0  0  0  0  0  0  0
  -12.2092  -23.3897   25.9972 N   0  0  0  0  0  0  0  0  0  0  0  0
  -10.7563  -23.4625   26.1968 C   0  0  0  0  0  0  0  0  0  0  0  0
  -10.2961  -24.8214   26.6027 C   0  0  0  0  0  0  0  0  0  0  0  0
  -10.9998  -25.9356   26.2018 N   0  0  0  0  0  0  0  0  0  0  0  0
  -10.4824  -26.8933   26.9237 C   0  0  0  0  0  0  0  0  0  0  0  0
  -10.9383  -28.1232   27.4377 C   0  0  0  0  0  0  0  0  0  0  0  0
  -10.0198  -29.0467   27.7598 C   0  0  0  0  0  0  0  0  0  0  0  0
   -8.6272  -28.8056   27.4479 C   0  0  0  0  0  0  0  0  0  0  0  0
   -8.2162  -27.5501   27.2083 C   0  0  0  0  0  0  0  0  0  0  0  0
   -9.1796  -26.5606   27.1879 N   0  0  0  0  0  0  0  0  0  0  0  0
   -9.3061  -25.2237   27.4832 C   0  0  0  0  0  0  0  0  0  0  0  0
   -8.6353  -24.1916   28.9308 Br  0  0  0  0  0  0  0  0  0  0  0  0
  -12.4595  -23.7700   28.4532 C   0  0  0  0  0  0  0  0  0  0  0  0
  -11.9984  -22.5443   28.9195 C   0  0  0  0  0  0  0  0  0  0  0  0
  -11.3861  -22.3494   30.0982 N   0  0  0  0  0  0  0  0  0  0  0  0
  -11.2216  -23.4496   30.8407 C   0  0  0  0  0  0  0  0  0  0  0  0
  -11.6054  -24.6992   30.5089 N   0  0  0  0  0  0  0  0  0  0  0  0
  -12.2224  -24.8224   29.3137 C   0  0  0  0  0  0  0  0  0  0  0  0
  -14.6560  -25.3527   27.3578 H   0  0  0  0  0  0  0  0  0  0  0  0
  -13.1695  -26.1427   26.9082 H   0  0  0  0  0  0  0  0  0  0  0  0
  -14.0911  -25.2564   25.6913 H   0  0  0  0  0  0  0  0  0  0  0  0
  -13.9246  -23.2838   27.0265 H   0  0  0  0  0  0  0  0  0  0  0  0
  -12.4506  -22.4087   25.8199 H   0  0  0  0  0  0  0  0  0  0  0  0
  -10.4062  -22.6973   26.8928 H   0  0  0  0  0  0  0  0  0  0  0  0
  -10.2899  -23.2241   25.2366 H   0  0  0  0  0  0  0  0  0  0  0  0
  -11.9987  -28.2898   27.5777 H   0  0  0  0  0  0  0  0  0  0  0  0
  -10.3041  -30.0080   28.1735 H   0  0  0  0  0  0  0  0  0  0  0  0
   -7.9828  -29.6662   27.4485 H   0  0  0  0  0  0  0  0  0  0  0  0
   -7.1906  -27.2832   27.0203 H   0  0  0  0  0  0  0  0  0  0  0  0
  -12.0638  -21.6459   28.3103 H   0  0  0  0  0  0  0  0  0  0  0  0
  -10.7281  -23.3208   31.7974 H   0  0  0  0  0  0  0  0  0  0  0  0
  -12.5047  -25.8400   29.0663 H   0  0  0  0  0  0  0  0  0  0  0  0
  1  2  1  0
  2  3  1  0
  3  4  1  0
  4  5  1  0
  5  6  1  0
  6  7  2  0
  7  8  1  0
  8  9  2  0
  9 10  1  0
 10 11  2  0
 11 12  1  0
 12 13  1  0
 13 14  1  0
  2 15  1  0
 15 16  2  0
 16 17  1  0
 17 18  2  0
 18 19  1  0
 19 20  2  0
 13  5  2  0
 20 15  1  0
 12  7  1  0
  1 21  1  0
  1 22  1  0
  1 23  1  0
  2 24  1  0
  3 25  1  0
  4 26  1  0
  4 27  1  0
  8 28  1  0
  9 29  1  0
 10 30  1  0
 11 31  1  0
 16 32  1  0
 18 33  1  0
 20 34  1  0
M  END
>  <Energy>  (1591) 
86.885918601297803

>  <compound_id>  (1591) 
36104

>  <target_id>  (1591) 
1

>  <reference_id>  (1591) 
54

>  <inspiration_ids>  (1591) 
[45, 54]

>  <energy_score>  (1591) 
30.01046356716708

>  <distance_score>  (1591) 
2.5633934292996643

>  <path>  (1591) 
/opt/xchem-fragalysis-2/maxwin/BulkDock/SCRATCH/511013/C36104-P54/C36104-P54.minimised.mol

>  <scratch_subdir>  (1591) 
/opt/xchem-fragalysis-2/maxwin/BulkDock/SCRATCH/511013/C36104-P54

>  <fragmenstein_runtime>  (1591) 
2.769535779953003

>  <fragmenstein_outcome>  (1591) 
too moved

>  <fragmenstein_mode>  (1591) 
expansion

>  <fragmenstein_error>  (1591) 


$$$$
C36105-P45
     RDKit          3D

 39 41  0  0  0  0  0  0  0  0999 V2000
   -9.4949  -23.1133   28.1491 O   0  0  0  0  0  0  0  0  0  0  0  0
   -8.9274  -23.8670   27.4539 C   0  0  0  0  0  0  0  0  0  0  0  0
   -7.4313  -24.0769   27.6195 C   0  0  0  0  0  0  0  0  0  0  0  0
   -7.2194  -25.5118   27.5499 C   0  0  0  0  0  0  0  0  0  0  0  0
   -8.2819  -26.3340   27.8413 N   0  0  0  0  0  0  0  0  0  0  0  0
   -8.0129  -27.4463   27.2241 C   0  0  0  0  0  0  0  0  0  0  0  0
   -8.8507  -28.5282   26.8783 C   0  0  0  0  0  0  0  0  0  0  0  0
   -8.3467  -29.5034   26.1097 C   0  0  0  0  0  0  0  0  0  0  0  0
   -6.9677  -29.4629   25.6701 C   0  0  0  0  0  0  0  0  0  0  0  0
   -6.1546  -28.4832   26.0812 C   0  0  0  0  0  0  0  0  0  0  0  0
   -6.6966  -27.4590   26.8025 N   0  0  0  0  0  0  0  0  0  0  0  0
   -6.1611  -26.2501   27.1150 C   0  0  0  0  0  0  0  0  0  0  0  0
   -4.3926  -25.7118   26.9490 Br  0  0  0  0  0  0  0  0  0  0  0  0
   -9.4424  -24.7048   26.2243 N   0  0  0  0  0  0  0  0  0  0  0  0
  -10.7194  -24.7022   25.5628 C   0  0  0  0  0  0  0  0  0  0  0  0
  -11.8833  -24.3116   26.4309 C   0  0  0  0  0  0  0  0  0  0  0  0
  -11.9235  -25.2104   27.6553 C   0  0  0  0  0  0  0  0  0  0  0  0
  -11.5273  -24.5605   28.9338 C   0  0  0  0  0  0  0  0  0  0  0  0
  -10.6331  -25.1737   29.7787 C   0  0  0  0  0  0  0  0  0  0  0  0
  -10.3782  -24.7198   31.0245 N   0  0  0  0  0  0  0  0  0  0  0  0
  -10.9826  -23.5649   31.3814 C   0  0  0  0  0  0  0  0  0  0  0  0
  -11.7791  -22.8293   30.6073 N   0  0  0  0  0  0  0  0  0  0  0  0
  -12.0002  -23.3365   29.3790 C   0  0  0  0  0  0  0  0  0  0  0  0
   -7.1033  -23.6810   28.5805 H   0  0  0  0  0  0  0  0  0  0  0  0
   -6.9118  -23.5396   26.8213 H   0  0  0  0  0  0  0  0  0  0  0  0
   -9.8787  -28.5407   27.2159 H   0  0  0  0  0  0  0  0  0  0  0  0
   -8.9441  -30.3576   25.8109 H   0  0  0  0  0  0  0  0  0  0  0  0
   -6.6269  -30.2199   24.9751 H   0  0  0  0  0  0  0  0  0  0  0  0
   -5.1263  -28.3704   25.7780 H   0  0  0  0  0  0  0  0  0  0  0  0
   -8.7093  -25.3180   25.9023 H   0  0  0  0  0  0  0  0  0  0  0  0
  -10.8783  -25.7254   25.2074 H   0  0  0  0  0  0  0  0  0  0  0  0
  -10.6643  -24.0740   24.6727 H   0  0  0  0  0  0  0  0  0  0  0  0
  -11.8325  -23.2474   26.6752 H   0  0  0  0  0  0  0  0  0  0  0  0
  -12.7802  -24.4583   25.8228 H   0  0  0  0  0  0  0  0  0  0  0  0
  -12.9137  -25.6247   27.8305 H   0  0  0  0  0  0  0  0  0  0  0  0
  -11.3144  -26.1102   27.4922 H   0  0  0  0  0  0  0  0  0  0  0  0
  -10.1388  -26.1052   29.5235 H   0  0  0  0  0  0  0  0  0  0  0  0
  -10.8255  -23.2233   32.3988 H   0  0  0  0  0  0  0  0  0  0  0  0
  -12.5974  -22.6983   28.7420 H   0  0  0  0  0  0  0  0  0  0  0  0
  1  2  2  0
  2  3  1  0
  3  4  1  0
  4  5  1  0
  5  6  2  0
  6  7  1  0
  7  8  2  0
  8  9  1  0
  9 10  2  0
 10 11  1  0
 11 12  1  0
 12 13  1  0
  2 14  1  0
 14 15  1  0
 15 16  1  0
 16 17  1  0
 17 18  1  0
 18 19  2  0
 19 20  1  0
 20 21  2  0
 21 22  1  0
 22 23  2  0
 12  4  2  0
 23 18  1  0
 11  6  1  0
  3 24  1  0
  3 25  1  0
  7 26  1  0
  8 27  1  0
  9 28  1  0
 10 29  1  0
 14 30  1  0
 15 31  1  0
 15 32  1  0
 16 33  1  0
 16 34  1  0
 17 35  1  0
 17 36  1  0
 19 37  1  0
 21 38  1  0
 23 39  1  0
M  END
>  <Energy>  (1592) 
80.133341138405115

>  <compound_id>  (1592) 
36105

>  <target_id>  (1592) 
1

>  <reference_id>  (1592) 
45

>  <inspiration_ids>  (1592) 
[45, 54]

>  <energy_score>  (1592) 
19.552776370873346

>  <distance_score>  (1592) 
1.5220061641916232

>  <path>  (1592) 
/opt/xchem-fragalysis-2/maxwin/BulkDock/SCRATCH/511013/C36105-P45/C36105-P45.minimised.mol

>  <scratch_subdir>  (1592) 
/opt/xchem-fragalysis-2/maxwin/BulkDock/SCRATCH/511013/C36105-P45

>  <fragmenstein_runtime>  (1592) 
5.392654895782471

>  <fragmenstein_outcome>  (1592) 
too moved

>  <fragmenstein_mode>  (1592) 
expansion

>  <fragmenstein_error>  (1592) 


$$$$
C36105-P54
     RDKit          3D

 39 41  0  0  0  0  0  0  0  0999 V2000
   -9.5426  -23.5664   28.0034 O   0  0  0  0  0  0  0  0  0  0  0  0
  -10.4447  -23.0859   27.3814 C   0  0  0  0  0  0  0  0  0  0  0  0
  -11.0102  -23.8459   26.1893 C   0  0  0  0  0  0  0  0  0  0  0  0
  -11.5307  -25.2048   26.5250 C   0  0  0  0  0  0  0  0  0  0  0  0
  -12.8894  -25.4455   26.3888 N   0  0  0  0  0  0  0  0  0  0  0  0
  -13.0794  -26.6804   26.8089 C   0  0  0  0  0  0  0  0  0  0  0  0
  -14.2580  -27.4574   26.9683 C   0  0  0  0  0  0  0  0  0  0  0  0
  -14.1822  -28.6873   27.5161 C   0  0  0  0  0  0  0  0  0  0  0  0
  -12.9194  -29.2563   27.9578 C   0  0  0  0  0  0  0  0  0  0  0  0
  -11.8013  -28.5353   27.7922 C   0  0  0  0  0  0  0  0  0  0  0  0
  -11.8905  -27.2706   27.2036 N   0  0  0  0  0  0  0  0  0  0  0  0
  -10.9095  -26.3787   26.8866 C   0  0  0  0  0  0  0  0  0  0  0  0
   -9.1013  -26.8035   26.9722 Br  0  0  0  0  0  0  0  0  0  0  0  0
  -11.1567  -21.8505   27.5648 N   0  0  0  0  0  0  0  0  0  0  0  0
  -10.9473  -20.7748   28.4843 C   0  0  0  0  0  0  0  0  0  0  0  0
  -10.8511  -21.2213   29.9208 C   0  0  0  0  0  0  0  0  0  0  0  0
  -11.9863  -22.1075   30.3425 C   0  0  0  0  0  0  0  0  0  0  0  0
  -11.7123  -23.5717   30.2283 C   0  0  0  0  0  0  0  0  0  0  0  0
  -10.7799  -24.2009   31.0227 C   0  0  0  0  0  0  0  0  0  0  0  0
  -10.7362  -25.5314   31.1948 N   0  0  0  0  0  0  0  0  0  0  0  0
  -11.6315  -26.2413   30.5075 C   0  0  0  0  0  0  0  0  0  0  0  0
  -12.5464  -25.7456   29.6748 N   0  0  0  0  0  0  0  0  0  0  0  0
  -12.5257  -24.4131   29.5032 C   0  0  0  0  0  0  0  0  0  0  0  0
  -10.2207  -23.9048   25.4417 H   0  0  0  0  0  0  0  0  0  0  0  0
  -11.8196  -23.2744   25.7217 H   0  0  0  0  0  0  0  0  0  0  0  0
  -15.2064  -27.0277   26.6661 H   0  0  0  0  0  0  0  0  0  0  0  0
  -15.0811  -29.2797   27.6622 H   0  0  0  0  0  0  0  0  0  0  0  0
  -12.9108  -30.2402   28.4145 H   0  0  0  0  0  0  0  0  0  0  0  0
  -10.8252  -28.8915   28.0972 H   0  0  0  0  0  0  0  0  0  0  0  0
  -11.8105  -21.7260   26.7937 H   0  0  0  0  0  0  0  0  0  0  0  0
  -11.7654  -20.0707   28.3766 H   0  0  0  0  0  0  0  0  0  0  0  0
  -10.0256  -20.2689   28.2159 H   0  0  0  0  0  0  0  0  0  0  0  0
   -9.9119  -21.7447   30.1003 H   0  0  0  0  0  0  0  0  0  0  0  0
  -10.8660  -20.3200   30.5445 H   0  0  0  0  0  0  0  0  0  0  0  0
  -12.1512  -21.8950   31.4032 H   0  0  0  0  0  0  0  0  0  0  0  0
  -12.9160  -21.8351   29.8368 H   0  0  0  0  0  0  0  0  0  0  0  0
  -10.0766  -23.6393   31.6307 H   0  0  0  0  0  0  0  0  0  0  0  0
  -11.6211  -27.3161   30.6438 H   0  0  0  0  0  0  0  0  0  0  0  0
  -13.2819  -24.0328   28.8220 H   0  0  0  0  0  0  0  0  0  0  0  0
  1  2  2  0
  2  3  1  0
  3  4  1  0
  4  5  1  0
  5  6  2  0
  6  7  1  0
  7  8  2  0
  8  9  1  0
  9 10  2  0
 10 11  1  0
 11 12  1  0
 12 13  1  0
  2 14  1  0
 14 15  1  0
 15 16  1  0
 16 17  1  0
 17 18  1  0
 18 19  2  0
 19 20  1  0
 20 21  2  0
 21 22  1  0
 22 23  2  0
 12  4  2  0
 23 18  1  0
 11  6  1  0
  3 24  1  0
  3 25  1  0
  7 26  1  0
  8 27  1  0
  9 28  1  0
 10 29  1  0
 14 30  1  0
 15 31  1  0
 15 32  1  0
 16 33  1  0
 16 34  1  0
 17 35  1  0
 17 36  1  0
 19 37  1  0
 21 38  1  0
 23 39  1  0
M  END
>  <Energy>  (1593) 
44.13026720837199

>  <compound_id>  (1593) 
36105

>  <target_id>  (1593) 
1

>  <reference_id>  (1593) 
54

>  <inspiration_ids>  (1593) 
[45, 54]

>  <energy_score>  (1593) 
-17.945237904785415

>  <distance_score>  (1593) 
5.126260817791922

>  <path>  (1593) 
/opt/xchem-fragalysis-2/maxwin/BulkDock/SCRATCH/511013/C36105-P54/C36105-P54.minimised.mol

>  <scratch_subdir>  (1593) 
/opt/xchem-fragalysis-2/maxwin/BulkDock/SCRATCH/511013/C36105-P54

>  <fragmenstein_runtime>  (1593) 
8.084136724472046

>  <fragmenstein_outcome>  (1593) 
too moved

>  <fragmenstein_mode>  (1593) 
expansion

>  <fragmenstein_error>  (1593) 


$$$$
C36106-P45
     RDKit          3D

 43 45  0  0  0  0  0  0  0  0999 V2000
  -13.5307  -25.9006   24.9181 C   0  0  0  0  0  0  0  0  0  0  0  0
  -12.8257  -24.5806   25.2598 C   0  0  0  0  0  0  0  0  0  0  0  0
  -11.6961  -24.8126   26.2594 C   0  0  0  0  0  0  0  0  0  0  0  0
  -10.5242  -24.3407   25.5503 N   0  0  0  0  0  0  0  0  0  0  0  0
   -9.3065  -24.8457   26.1217 C   0  0  0  0  0  0  0  0  0  0  0  0
   -8.6327  -24.1740   27.3575 C   0  0  0  0  0  0  0  0  0  0  0  0
   -7.8723  -25.2868   27.9001 C   0  0  0  0  0  0  0  0  0  0  0  0
   -6.6667  -25.6916   27.3720 C   0  0  0  0  0  0  0  0  0  0  0  0
   -6.8909  -27.0272   27.1356 N   0  0  0  0  0  0  0  0  0  0  0  0
   -6.0955  -27.9482   26.4974 C   0  0  0  0  0  0  0  0  0  0  0  0
   -4.6448  -27.6603   26.4511 C   0  0  0  0  0  0  0  0  0  0  0  0
   -6.7080  -29.0429   26.0101 C   0  0  0  0  0  0  0  0  0  0  0  0
   -8.1131  -29.2875   26.2670 C   0  0  0  0  0  0  0  0  0  0  0  0
   -8.8106  -28.4765   27.0719 C   0  0  0  0  0  0  0  0  0  0  0  0
   -8.1783  -27.3148   27.5685 C   0  0  0  0  0  0  0  0  0  0  0  0
   -8.6397  -26.3419   28.3123 N   0  0  0  0  0  0  0  0  0  0  0  0
  -11.7962  -24.1711   27.6098 C   0  0  0  0  0  0  0  0  0  0  0  0
  -11.6965  -24.9018   28.7767 C   0  0  0  0  0  0  0  0  0  0  0  0
  -11.6118  -24.3566   30.0107 N   0  0  0  0  0  0  0  0  0  0  0  0
  -11.6670  -23.0178   30.0588 C   0  0  0  0  0  0  0  0  0  0  0  0
  -11.7420  -22.2012   29.0100 N   0  0  0  0  0  0  0  0  0  0  0  0
  -11.7748  -22.8065   27.8063 C   0  0  0  0  0  0  0  0  0  0  0  0
  -12.8843  -26.5341   24.3055 H   0  0  0  0  0  0  0  0  0  0  0  0
  -14.4568  -25.7133   24.3663 H   0  0  0  0  0  0  0  0  0  0  0  0
  -13.7785  -26.4983   25.7993 H   0  0  0  0  0  0  0  0  0  0  0  0
  -12.4301  -24.1518   24.3385 H   0  0  0  0  0  0  0  0  0  0  0  0
  -13.4958  -23.7804   25.5552 H   0  0  0  0  0  0  0  0  0  0  0  0
  -11.6117  -25.8983   26.4072 H   0  0  0  0  0  0  0  0  0  0  0  0
  -10.5498  -24.6242   24.5703 H   0  0  0  0  0  0  0  0  0  0  0  0
   -8.5477  -24.8377   25.3394 H   0  0  0  0  0  0  0  0  0  0  0  0
   -9.5161  -25.9025   26.2565 H   0  0  0  0  0  0  0  0  0  0  0  0
   -9.3103  -23.7847   28.1079 H   0  0  0  0  0  0  0  0  0  0  0  0
   -7.9218  -23.3885   27.0878 H   0  0  0  0  0  0  0  0  0  0  0  0
   -5.8624  -25.1494   26.8966 H   0  0  0  0  0  0  0  0  0  0  0  0
   -4.1596  -28.2005   25.6498 H   0  0  0  0  0  0  0  0  0  0  0  0
   -4.2069  -27.9643   27.4056 H   0  0  0  0  0  0  0  0  0  0  0  0
   -4.4036  -26.6053   26.3068 H   0  0  0  0  0  0  0  0  0  0  0  0
   -6.2052  -29.8041   25.4378 H   0  0  0  0  0  0  0  0  0  0  0  0
   -8.5573  -30.1825   25.8434 H   0  0  0  0  0  0  0  0  0  0  0  0
   -9.8494  -28.6629   27.3090 H   0  0  0  0  0  0  0  0  0  0  0  0
  -11.6195  -25.9857   28.7602 H   0  0  0  0  0  0  0  0  0  0  0  0
  -11.6259  -22.5518   31.0367 H   0  0  0  0  0  0  0  0  0  0  0  0
  -11.7160  -22.1348   26.9579 H   0  0  0  0  0  0  0  0  0  0  0  0
  1  2  1  0
  2  3  1  0
  3  4  1  0
  4  5  1  0
  5  6  1  0
  6  7  1  0
  7  8  2  0
  8  9  1  0
  9 10  1  0
 10 11  1  0
 10 12  2  0
 12 13  1  0
 13 14  2  0
 14 15  1  0
 15 16  2  0
  3 17  1  0
 17 18  2  0
 18 19  1  0
 19 20  2  0
 20 21  1  0
 21 22  2  0
 16  7  1  0
 22 17  1  0
 15  9  1  0
  1 23  1  0
  1 24  1  0
  1 25  1  0
  2 26  1  0
  2 27  1  0
  3 28  1  0
  4 29  1  0
  5 30  1  0
  5 31  1  0
  6 32  1  0
  6 33  1  0
  8 34  1  0
 11 35  1  0
 11 36  1  0
 11 37  1  0
 12 38  1  0
 13 39  1  0
 14 40  1  0
 18 41  1  0
 20 42  1  0
 22 43  1  0
M  END
>  <Energy>  (1594) 
93.231335231187728

>  <compound_id>  (1594) 
36106

>  <target_id>  (1594) 
1

>  <reference_id>  (1594) 
45

>  <inspiration_ids>  (1594) 
[45, 54]

>  <energy_score>  (1594) 
27.883557700195524

>  <distance_score>  (1594) 
1.1807574250425252

>  <path>  (1594) 
/opt/xchem-fragalysis-2/maxwin/BulkDock/SCRATCH/511013/C36106-P45/C36106-P45.minimised.mol

>  <scratch_subdir>  (1594) 
/opt/xchem-fragalysis-2/maxwin/BulkDock/SCRATCH/511013/C36106-P45

>  <fragmenstein_runtime>  (1594) 
2.627464532852173

>  <fragmenstein_outcome>  (1594) 
too moved

>  <fragmenstein_mode>  (1594) 
expansion

>  <fragmenstein_error>  (1594) 


$$$$
C36106-P54
     RDKit          3D

 43 45  0  0  0  0  0  0  0  0999 V2000
  -14.8476  -25.4023   26.0376 C   0  0  0  0  0  0  0  0  0  0  0  0
  -14.4865  -24.3794   27.1135 C   0  0  0  0  0  0  0  0  0  0  0  0
  -12.9621  -24.2687   27.3240 C   0  0  0  0  0  0  0  0  0  0  0  0
  -12.3169  -23.5096   26.2607 N   0  0  0  0  0  0  0  0  0  0  0  0
  -10.8797  -23.2243   26.4054 C   0  0  0  0  0  0  0  0  0  0  0  0
   -9.9309  -23.9103   27.4140 C   0  0  0  0  0  0  0  0  0  0  0  0
   -9.7327  -25.3686   27.2547 C   0  0  0  0  0  0  0  0  0  0  0  0
   -8.5988  -26.1363   27.1872 C   0  0  0  0  0  0  0  0  0  0  0  0
   -8.9920  -27.4202   26.9903 N   0  0  0  0  0  0  0  0  0  0  0  0
   -8.2455  -28.5666   26.8167 C   0  0  0  0  0  0  0  0  0  0  0  0
   -7.2869  -28.7840   25.6555 C   0  0  0  0  0  0  0  0  0  0  0  0
   -8.6306  -29.6186   27.5557 C   0  0  0  0  0  0  0  0  0  0  0  0
   -9.9643  -29.6452   28.1209 C   0  0  0  0  0  0  0  0  0  0  0  0
  -10.7878  -28.5938   28.0250 C   0  0  0  0  0  0  0  0  0  0  0  0
  -10.2819  -27.4073   27.4681 C   0  0  0  0  0  0  0  0  0  0  0  0
  -10.7886  -26.2098   27.4000 N   0  0  0  0  0  0  0  0  0  0  0  0
  -12.5358  -23.8676   28.7180 C   0  0  0  0  0  0  0  0  0  0  0  0
  -12.1561  -24.8500   29.6200 C   0  0  0  0  0  0  0  0  0  0  0  0
  -11.4604  -24.6136   30.7521 N   0  0  0  0  0  0  0  0  0  0  0  0
  -11.1585  -23.3230   30.9891 C   0  0  0  0  0  0  0  0  0  0  0  0
  -11.4984  -22.2776   30.2244 N   0  0  0  0  0  0  0  0  0  0  0  0
  -12.1801  -22.5810   29.1036 C   0  0  0  0  0  0  0  0  0  0  0  0
  -14.5471  -26.4110   26.3396 H   0  0  0  0  0  0  0  0  0  0  0  0
  -14.3557  -25.1702   25.0893 H   0  0  0  0  0  0  0  0  0  0  0  0
  -15.9292  -25.4095   25.8703 H   0  0  0  0  0  0  0  0  0  0  0  0
  -14.9785  -24.6754   28.0473 H   0  0  0  0  0  0  0  0  0  0  0  0
  -14.9162  -23.4267   26.8022 H   0  0  0  0  0  0  0  0  0  0  0  0
  -12.6557  -25.2992   27.1790 H   0  0  0  0  0  0  0  0  0  0  0  0
  -12.8147  -22.6408   26.0491 H   0  0  0  0  0  0  0  0  0  0  0  0
  -10.8314  -22.1601   26.6550 H   0  0  0  0  0  0  0  0  0  0  0  0
  -10.4401  -23.3110   25.4066 H   0  0  0  0  0  0  0  0  0  0  0  0
  -10.1555  -23.7242   28.4533 H   0  0  0  0  0  0  0  0  0  0  0  0
   -9.0041  -23.3564   27.3662 H   0  0  0  0  0  0  0  0  0  0  0  0
   -7.5618  -25.9377   27.3466 H   0  0  0  0  0  0  0  0  0  0  0  0
   -6.9382  -29.8238   25.5774 H   0  0  0  0  0  0  0  0  0  0  0  0
   -6.4015  -28.1476   25.7151 H   0  0  0  0  0  0  0  0  0  0  0  0
   -7.7848  -28.6434   24.6916 H   0  0  0  0  0  0  0  0  0  0  0  0
   -8.1143  -30.5620   27.4235 H   0  0  0  0  0  0  0  0  0  0  0  0
  -10.3373  -30.5917   28.4947 H   0  0  0  0  0  0  0  0  0  0  0  0
  -11.8049  -28.6217   28.3938 H   0  0  0  0  0  0  0  0  0  0  0  0
  -12.3364  -25.9019   29.4163 H   0  0  0  0  0  0  0  0  0  0  0  0
  -10.5992  -23.1056   31.8920 H   0  0  0  0  0  0  0  0  0  0  0  0
  -12.2968  -21.7288   28.4433 H   0  0  0  0  0  0  0  0  0  0  0  0
  1  2  1  0
  2  3  1  0
  3  4  1  0
  4  5  1  0
  5  6  1  0
  6  7  1  0
  7  8  2  0
  8  9  1  0
  9 10  1  0
 10 11  1  0
 10 12  2  0
 12 13  1  0
 13 14  2  0
 14 15  1  0
 15 16  2  0
  3 17  1  0
 17 18  2  0
 18 19  1  0
 19 20  2  0
 20 21  1  0
 21 22  2  0
 16  7  1  0
 22 17  1  0
 15  9  1  0
  1 23  1  0
  1 24  1  0
  1 25  1  0
  2 26  1  0
  2 27  1  0
  3 28  1  0
  4 29  1  0
  5 30  1  0
  5 31  1  0
  6 32  1  0
  6 33  1  0
  8 34  1  0
 11 35  1  0
 11 36  1  0
 11 37  1  0
 12 38  1  0
 13 39  1  0
 14 40  1  0
 18 41  1  0
 20 42  1  0
 22 43  1  0
M  END
>  <Energy>  (1595) 
92.18101545634353

>  <compound_id>  (1595) 
36106

>  <target_id>  (1595) 
1

>  <reference_id>  (1595) 
54

>  <inspiration_ids>  (1595) 
[45, 54]

>  <energy_score>  (1595) 
26.83323792535313

>  <distance_score>  (1595) 
2.5672186985332313

>  <path>  (1595) 
/opt/xchem-fragalysis-2/maxwin/BulkDock/SCRATCH/511013/C36106-P54/C36106-P54.minimised.mol

>  <scratch_subdir>  (1595) 
/opt/xchem-fragalysis-2/maxwin/BulkDock/SCRATCH/511013/C36106-P54

>  <fragmenstein_runtime>  (1595) 
3.1771461963653564

>  <fragmenstein_outcome>  (1595) 
too moved

>  <fragmenstein_mode>  (1595) 
expansion

>  <fragmenstein_error>  (1595) 


$$$$
C36090-P45
     RDKit          3D

 47 50  0  0  0  0  0  0  0  0999 V2000
  -12.2591  -25.1245   27.2006 C   0  0  0  0  0  0  0  0  0  0  0  0
  -11.3869  -23.9359   27.4150 N   0  0  0  0  0  0  0  0  0  0  0  0
  -11.9449  -23.0891   28.3883 C   0  0  0  0  0  0  0  0  0  0  0  0
  -12.6891  -22.1688   28.2784 O   0  0  0  0  0  0  0  0  0  0  0  0
  -11.4897  -23.2719   29.7482 C   0  0  0  0  0  0  0  0  0  0  0  0
  -11.7455  -22.3495   30.7358 C   0  0  0  0  0  0  0  0  0  0  0  0
  -11.4462  -22.5404   32.0403 N   0  0  0  0  0  0  0  0  0  0  0  0
  -10.7924  -23.6733   32.3279 C   0  0  0  0  0  0  0  0  0  0  0  0
  -10.4382  -24.6096   31.4261 N   0  0  0  0  0  0  0  0  0  0  0  0
  -10.8368  -24.3863   30.1504 C   0  0  0  0  0  0  0  0  0  0  0  0
  -11.4578  -23.8849   25.9034 C   0  0  0  0  0  0  0  0  0  0  0  0
  -10.4288  -24.7557   25.2083 C   0  0  0  0  0  0  0  0  0  0  0  0
   -9.5684  -25.4500   26.0865 N   0  0  0  0  0  0  0  0  0  0  0  0
   -8.2461  -25.1430   26.5504 C   0  0  0  0  0  0  0  0  0  0  0  0
   -7.5008  -24.2626   26.2543 O   0  0  0  0  0  0  0  0  0  0  0  0
   -7.9563  -26.1819   27.4836 C   0  0  0  0  0  0  0  0  0  0  0  0
   -8.7192  -26.2748   28.6205 C   0  0  0  0  0  0  0  0  0  0  0  0
   -9.5246  -27.3784   28.5513 N   0  0  0  0  0  0  0  0  0  0  0  0
   -8.9972  -28.0983   27.5789 C   0  0  0  0  0  0  0  0  0  0  0  0
   -9.3953  -29.3048   26.9522 C   0  0  0  0  0  0  0  0  0  0  0  0
   -8.5538  -29.8901   26.0855 C   0  0  0  0  0  0  0  0  0  0  0  0
   -7.2462  -29.3248   25.8010 C   0  0  0  0  0  0  0  0  0  0  0  0
   -6.9105  -28.1317   26.3091 C   0  0  0  0  0  0  0  0  0  0  0  0
   -7.8260  -27.4990   27.1185 N   0  0  0  0  0  0  0  0  0  0  0  0
  -12.4856  -23.3609   24.8513 C   0  0  0  0  0  0  0  0  0  0  0  0
  -11.9274  -22.8503   23.4635 C   0  0  0  0  0  0  0  0  0  0  0  0
  -12.5827  -21.9223   24.3307 C   0  0  0  0  0  0  0  0  0  0  0  0
  -12.8576  -25.3012   26.3010 H   0  0  0  0  0  0  0  0  0  0  0  0
  -12.8931  -25.2426   28.0867 H   0  0  0  0  0  0  0  0  0  0  0  0
  -11.6320  -26.0182   27.3001 H   0  0  0  0  0  0  0  0  0  0  0  0
  -12.2242  -21.4099   30.5046 H   0  0  0  0  0  0  0  0  0  0  0  0
  -10.5494  -23.8625   33.3645 H   0  0  0  0  0  0  0  0  0  0  0  0
  -10.7400  -25.2290   29.4859 H   0  0  0  0  0  0  0  0  0  0  0  0
  -11.0456  -22.9231   26.0459 H   0  0  0  0  0  0  0  0  0  0  0  0
  -11.0115  -25.5574   24.7529 H   0  0  0  0  0  0  0  0  0  0  0  0
   -9.8770  -24.2630   24.4242 H   0  0  0  0  0  0  0  0  0  0  0  0
   -9.8683  -26.3198   26.4969 H   0  0  0  0  0  0  0  0  0  0  0  0
   -8.8281  -25.4850   29.3432 H   0  0  0  0  0  0  0  0  0  0  0  0
  -10.3477  -29.7490   27.2081 H   0  0  0  0  0  0  0  0  0  0  0  0
   -8.8046  -30.8302   25.6054 H   0  0  0  0  0  0  0  0  0  0  0  0
   -6.5821  -29.8723   25.1447 H   0  0  0  0  0  0  0  0  0  0  0  0
   -5.9802  -27.6219   26.0899 H   0  0  0  0  0  0  0  0  0  0  0  0
  -13.4150  -23.9123   24.8509 H   0  0  0  0  0  0  0  0  0  0  0  0
  -12.4575  -22.7605   22.5209 H   0  0  0  0  0  0  0  0  0  0  0  0
  -10.8679  -22.6800   23.2945 H   0  0  0  0  0  0  0  0  0  0  0  0
  -11.9807  -21.1128   24.7122 H   0  0  0  0  0  0  0  0  0  0  0  0
  -13.5762  -21.6123   24.0231 H   0  0  0  0  0  0  0  0  0  0  0  0
  1  2  1  0
  2  3  1  0
  3  4  2  0
  3  5  1  0
  5  6  2  0
  6  7  1  0
  7  8  2  0
  8  9  1  0
  9 10  2  0
  2 11  1  0
 11 12  1  0
 12 13  1  0
 13 14  1  0
 14 15  2  0
 14 16  1  0
 16 17  2  0
 17 18  1  0
 18 19  2  0
 19 20  1  0
 20 21  2  0
 21 22  1  0
 22 23  2  0
 23 24  1  0
 11 25  1  0
 25 26  1  0
 26 27  1  0
 10  5  1  0
 24 16  1  0
 27 25  1  0
 24 19  1  0
  1 28  1  0
  1 29  1  0
  1 30  1  0
  6 31  1  0
  8 32  1  0
 10 33  1  0
 11 34  1  0
 12 35  1  0
 12 36  1  0
 13 37  1  0
 17 38  1  0
 20 39  1  0
 21 40  1  0
 22 41  1  0
 23 42  1  0
 25 43  1  0
 26 44  1  0
 26 45  1  0
 27 46  1  0
 27 47  1  0
M  END
>  <Energy>  (1596) 
195.90066887057489

>  <compound_id>  (1596) 
36090

>  <target_id>  (1596) 
1

>  <reference_id>  (1596) 
45

>  <inspiration_ids>  (1596) 
[45, 54]

>  <energy_score>  (1596) 
122.42319380036963

>  <distance_score>  (1596) 
2.366278421176096

>  <path>  (1596) 
/opt/xchem-fragalysis-2/maxwin/BulkDock/SCRATCH/511013/C36090-P45/C36090-P45.minimised.mol

>  <scratch_subdir>  (1596) 
/opt/xchem-fragalysis-2/maxwin/BulkDock/SCRATCH/511013/C36090-P45

>  <fragmenstein_runtime>  (1596) 
9.855901956558228

>  <fragmenstein_outcome>  (1596) 
too moved

>  <fragmenstein_mode>  (1596) 
expansion

>  <fragmenstein_error>  (1596) 


$$$$
C36090-P54
     RDKit          3D

 47 50  0  0  0  0  0  0  0  0999 V2000
  -13.0744  -23.8784   28.3850 C   0  0  0  0  0  0  0  0  0  0  0  0
  -13.4511  -24.4404   27.0559 N   0  0  0  0  0  0  0  0  0  0  0  0
  -13.9102  -25.7734   27.2052 C   0  0  0  0  0  0  0  0  0  0  0  0
  -13.3169  -26.8133   27.1598 O   0  0  0  0  0  0  0  0  0  0  0  0
  -15.3190  -25.8259   27.5633 C   0  0  0  0  0  0  0  0  0  0  0  0
  -15.7044  -26.5339   28.6781 C   0  0  0  0  0  0  0  0  0  0  0  0
  -16.9561  -26.4923   29.1668 N   0  0  0  0  0  0  0  0  0  0  0  0
  -17.8249  -25.7427   28.4654 C   0  0  0  0  0  0  0  0  0  0  0  0
  -17.5602  -25.0580   27.3377 N   0  0  0  0  0  0  0  0  0  0  0  0
  -16.2810  -25.0878   26.9246 C   0  0  0  0  0  0  0  0  0  0  0  0
  -12.0480  -23.8860   26.6675 C   0  0  0  0  0  0  0  0  0  0  0  0
  -10.6780  -24.0193   27.4493 C   0  0  0  0  0  0  0  0  0  0  0  0
  -10.7451  -25.2455   28.1730 N   0  0  0  0  0  0  0  0  0  0  0  0
  -10.6536  -26.5897   27.7361 C   0  0  0  0  0  0  0  0  0  0  0  0
  -10.4134  -27.0443   26.6594 O   0  0  0  0  0  0  0  0  0  0  0  0
  -11.0261  -27.4718   28.8414 C   0  0  0  0  0  0  0  0  0  0  0  0
  -11.6743  -27.2032   30.0426 C   0  0  0  0  0  0  0  0  0  0  0  0
  -12.3996  -28.2761   30.4759 N   0  0  0  0  0  0  0  0  0  0  0  0
  -12.1437  -29.2179   29.5953 C   0  0  0  0  0  0  0  0  0  0  0  0
  -12.6623  -30.5303   29.4271 C   0  0  0  0  0  0  0  0  0  0  0  0
  -12.0385  -31.3872   28.5954 C   0  0  0  0  0  0  0  0  0  0  0  0
  -10.8097  -31.0150   27.9141 C   0  0  0  0  0  0  0  0  0  0  0  0
  -10.3908  -29.7389   27.9862 C   0  0  0  0  0  0  0  0  0  0  0  0
  -11.1139  -28.8362   28.7467 N   0  0  0  0  0  0  0  0  0  0  0  0
  -12.2712  -22.5654   25.9825 C   0  0  0  0  0  0  0  0  0  0  0  0
  -11.9407  -22.1043   24.5752 C   0  0  0  0  0  0  0  0  0  0  0  0
  -13.3197  -22.5881   24.8703 C   0  0  0  0  0  0  0  0  0  0  0  0
  -12.7187  -24.6262   29.0942 H   0  0  0  0  0  0  0  0  0  0  0  0
  -12.6050  -22.8930   28.5014 H   0  0  0  0  0  0  0  0  0  0  0  0
  -14.0600  -23.6953   28.8300 H   0  0  0  0  0  0  0  0  0  0  0  0
  -15.0011  -27.1400   29.2433 H   0  0  0  0  0  0  0  0  0  0  0  0
  -18.8421  -25.6922   28.8393 H   0  0  0  0  0  0  0  0  0  0  0  0
  -16.0537  -24.4735   26.0610 H   0  0  0  0  0  0  0  0  0  0  0  0
  -11.8469  -24.6102   25.8764 H   0  0  0  0  0  0  0  0  0  0  0  0
   -9.8719  -24.0566   26.7287 H   0  0  0  0  0  0  0  0  0  0  0  0
  -10.4955  -23.1943   28.1440 H   0  0  0  0  0  0  0  0  0  0  0  0
  -10.8823  -25.2340   29.1681 H   0  0  0  0  0  0  0  0  0  0  0  0
  -11.7952  -26.2627   30.5607 H   0  0  0  0  0  0  0  0  0  0  0  0
  -13.5499  -30.8154   29.9797 H   0  0  0  0  0  0  0  0  0  0  0  0
  -12.4133  -32.3970   28.4570 H   0  0  0  0  0  0  0  0  0  0  0  0
  -10.2698  -31.7855   27.3756 H   0  0  0  0  0  0  0  0  0  0  0  0
   -9.4970  -29.3449   27.5200 H   0  0  0  0  0  0  0  0  0  0  0  0
  -12.1888  -21.7708   26.7077 H   0  0  0  0  0  0  0  0  0  0  0  0
  -11.1890  -22.6408   24.0290 H   0  0  0  0  0  0  0  0  0  0  0  0
  -11.8873  -21.0395   24.3542 H   0  0  0  0  0  0  0  0  0  0  0  0
  -14.1335  -21.8750   24.9000 H   0  0  0  0  0  0  0  0  0  0  0  0
  -13.6410  -23.5362   24.4616 H   0  0  0  0  0  0  0  0  0  0  0  0
  1  2  1  0
  2  3  1  0
  3  4  2  0
  3  5  1  0
  5  6  2  0
  6  7  1  0
  7  8  2  0
  8  9  1  0
  9 10  2  0
  2 11  1  0
 11 12  1  0
 12 13  1  0
 13 14  1  0
 14 15  2  0
 14 16  1  0
 16 17  2  0
 17 18  1  0
 18 19  2  0
 19 20  1  0
 20 21  2  0
 21 22  1  0
 22 23  2  0
 23 24  1  0
 11 25  1  0
 25 26  1  0
 26 27  1  0
 10  5  1  0
 24 16  1  0
 27 25  1  0
 24 19  1  0
  1 28  1  0
  1 29  1  0
  1 30  1  0
  6 31  1  0
  8 32  1  0
 10 33  1  0
 11 34  1  0
 12 35  1  0
 12 36  1  0
 13 37  1  0
 17 38  1  0
 20 39  1  0
 21 40  1  0
 22 41  1  0
 23 42  1  0
 25 43  1  0
 26 44  1  0
 26 45  1  0
 27 46  1  0
 27 47  1  0
M  END
>  <Energy>  (1597) 
131.34455622477719

>  <compound_id>  (1597) 
36090

>  <target_id>  (1597) 
1

>  <reference_id>  (1597) 
54

>  <inspiration_ids>  (1597) 
[45, 54]

>  <energy_score>  (1597) 
57.867081154575715

>  <distance_score>  (1597) 
6.219202379175764

>  <path>  (1597) 
/opt/xchem-fragalysis-2/maxwin/BulkDock/SCRATCH/511013/C36090-P54/C36090-P54.minimised.mol

>  <scratch_subdir>  (1597) 
/opt/xchem-fragalysis-2/maxwin/BulkDock/SCRATCH/511013/C36090-P54

>  <fragmenstein_runtime>  (1597) 
11.80055546760559

>  <fragmenstein_outcome>  (1597) 
too moved

>  <fragmenstein_mode>  (1597) 
expansion

>  <fragmenstein_error>  (1597) 


$$$$
C36107-P45
     RDKit          3D

 35 38  0  0  0  0  0  0  0  0999 V2000
   -7.3105  -22.4607   37.1696 O   0  0  0  0  0  0  0  0  0  0  0  0
   -8.1144  -21.7873   36.3877 C   0  0  0  0  0  0  0  0  0  0  0  0
   -7.8332  -22.0572   34.2978 C   0  0  0  0  0  0  0  0  0  0  0  0
   -8.1275  -20.7529   33.6079 C   0  0  0  0  0  0  0  0  0  0  0  0
   -9.6848  -20.5075   32.9335 C   0  0  0  0  0  0  0  0  0  0  0  0
  -10.6527  -21.6251   32.6051 C   0  0  0  0  0  0  0  0  0  0  0  0
  -11.4557  -21.5186   31.3740 C   0  0  0  0  0  0  0  0  0  0  0  0
  -12.6343  -22.1404   31.0722 C   0  0  0  0  0  0  0  0  0  0  0  0
  -12.2475  -22.8954   29.9837 N   0  0  0  0  0  0  0  0  0  0  0  0
  -12.4573  -24.2034   29.5527 C   0  0  0  0  0  0  0  0  0  0  0  0
  -11.9105  -24.6696   28.4189 C   0  0  0  0  0  0  0  0  0  0  0  0
  -11.3098  -23.6950   27.5469 C   0  0  0  0  0  0  0  0  0  0  0  0
  -11.1406  -22.4316   27.9727 C   0  0  0  0  0  0  0  0  0  0  0  0
  -11.3972  -22.0681   29.3096 C   0  0  0  0  0  0  0  0  0  0  0  0
  -10.8858  -21.1982   30.1567 N   0  0  0  0  0  0  0  0  0  0  0  0
  -10.1607  -23.0248   32.9578 C   0  0  0  0  0  0  0  0  0  0  0  0
   -8.7845  -23.2573   33.6344 C   0  0  0  0  0  0  0  0  0  0  0  0
  -10.4656  -21.4519   36.6682 C   0  0  0  0  0  0  0  0  0  0  0  0
  -11.5143  -21.8581   35.4859 C   0  0  0  0  0  0  0  0  0  0  0  0
  -12.5362  -21.2137   34.7548 N   0  0  0  0  0  0  0  0  0  0  0  0
  -12.8206  -19.9512   35.0685 C   0  0  0  0  0  0  0  0  0  0  0  0
  -12.2388  -19.2371   36.0173 N   0  0  0  0  0  0  0  0  0  0  0  0
  -11.2016  -19.8770   36.6591 C   0  0  0  0  0  0  0  0  0  0  0  0
   -7.6284  -19.8520   33.9911 H   0  0  0  0  0  0  0  0  0  0  0  0
  -10.0126  -19.4793   32.8361 H   0  0  0  0  0  0  0  0  0  0  0  0
  -13.5624  -22.2156   31.6159 H   0  0  0  0  0  0  0  0  0  0  0  0
  -13.1664  -24.8025   30.0968 H   0  0  0  0  0  0  0  0  0  0  0  0
  -12.0973  -25.6733   28.0583 H   0  0  0  0  0  0  0  0  0  0  0  0
  -11.1411  -23.9591   26.5083 H   0  0  0  0  0  0  0  0  0  0  0  0
  -10.8702  -21.6540   27.2955 H   0  0  0  0  0  0  0  0  0  0  0  0
  -10.7130  -23.8980   32.6178 H   0  0  0  0  0  0  0  0  0  0  0  0
   -8.5376  -24.2985   33.8506 H   0  0  0  0  0  0  0  0  0  0  0  0
  -11.4954  -22.9065   35.1349 H   0  0  0  0  0  0  0  0  0  0  0  0
  -13.6259  -19.4782   34.5225 H   0  0  0  0  0  0  0  0  0  0  0  0
  -10.8176  -19.1463   37.3944 H   0  0  0  0  0  0  0  0  0  0  0  0
  1  2  2  0
  2  3  1  0
  3  4  2  0
  4  5  1  0
  5  6  2  0
  6  7  1  0
  7  8  2  0
  8  9  1  0
  9 10  1  0
 10 11  2  0
 11 12  1  0
 12 13  2  0
 13 14  1  0
 14 15  2  0
  6 16  1  0
 16 17  2  0
  2 18  1  0
 18 19  2  0
 19 20  1  0
 20 21  2  0
 21 22  1  0
 22 23  2  0
 17  3  1  0
 23 18  1  0
 15  7  1  0
 14  9  1  0
  4 24  1  0
  5 25  1  0
  8 26  1  0
 10 27  1  0
 11 28  1  0
 12 29  1  0
 13 30  1  0
 16 31  1  0
 17 32  1  0
 19 33  1  0
 21 34  1  0
 23 35  1  0
M  END
>  <Energy>  (1598) 
777.12906098520955

>  <compound_id>  (1598) 
36107

>  <target_id>  (1598) 
1

>  <reference_id>  (1598) 
45

>  <inspiration_ids>  (1598) 
[45, 54]

>  <energy_score>  (1598) 
687.8826765843007

>  <distance_score>  (1598) 
1.8097558955109714

>  <path>  (1598) 
/opt/xchem-fragalysis-2/maxwin/BulkDock/SCRATCH/511013/C36107-P45/C36107-P45.minimised.mol

>  <scratch_subdir>  (1598) 
/opt/xchem-fragalysis-2/maxwin/BulkDock/SCRATCH/511013/C36107-P45

>  <fragmenstein_runtime>  (1598) 
6.162601470947266

>  <fragmenstein_outcome>  (1598) 
too moved

>  <fragmenstein_mode>  (1598) 
expansion

>  <fragmenstein_error>  (1598) 


$$$$
C36107-P54
     RDKit          3D

 35 38  0  0  0  0  0  0  0  0999 V2000
   -7.4235  -21.5711   36.1195 O   0  0  0  0  0  0  0  0  0  0  0  0
   -8.6220  -21.7087   35.8850 C   0  0  0  0  0  0  0  0  0  0  0  0
   -9.1323  -22.0986   34.4683 C   0  0  0  0  0  0  0  0  0  0  0  0
  -10.1311  -21.3480   33.8173 C   0  0  0  0  0  0  0  0  0  0  0  0
  -10.5899  -21.7097   32.5470 C   0  0  0  0  0  0  0  0  0  0  0  0
  -10.0811  -22.8434   31.9160 C   0  0  0  0  0  0  0  0  0  0  0  0
  -10.5811  -23.2467   30.6267 C   0  0  0  0  0  0  0  0  0  0  0  0
  -10.9076  -24.5382   30.2719 C   0  0  0  0  0  0  0  0  0  0  0  0
  -11.4036  -24.4429   29.0016 N   0  0  0  0  0  0  0  0  0  0  0  0
  -11.9539  -25.4312   28.1908 C   0  0  0  0  0  0  0  0  0  0  0  0
  -12.4270  -25.0876   26.9819 C   0  0  0  0  0  0  0  0  0  0  0  0
  -12.3318  -23.6980   26.5615 C   0  0  0  0  0  0  0  0  0  0  0  0
  -11.7510  -22.7619   27.3328 C   0  0  0  0  0  0  0  0  0  0  0  0
  -11.2950  -23.1088   28.6280 C   0  0  0  0  0  0  0  0  0  0  0  0
  -10.8165  -22.3696   29.6016 N   0  0  0  0  0  0  0  0  0  0  0  0
   -9.0874  -23.5833   32.5491 C   0  0  0  0  0  0  0  0  0  0  0  0
   -8.5924  -23.1881   33.7913 C   0  0  0  0  0  0  0  0  0  0  0  0
   -9.6416  -21.0043   37.0746 C   0  0  0  0  0  0  0  0  0  0  0  0
  -10.6810  -22.5620   36.7642 C   0  0  0  0  0  0  0  0  0  0  0  0
  -12.0811  -22.7588   38.0280 N   0  0  0  0  0  0  0  0  0  0  0  0
  -11.9945  -22.0351   39.7545 C   0  0  0  0  0  0  0  0  0  0  0  0
  -10.8336  -20.6500   40.3224 N   0  0  0  0  0  0  0  0  0  0  0  0
   -9.6333  -20.0468   38.8040 C   0  0  0  0  0  0  0  0  0  0  0  0
  -10.5869  -20.4770   34.2846 H   0  0  0  0  0  0  0  0  0  0  0  0
  -11.3676  -21.1174   32.0659 H   0  0  0  0  0  0  0  0  0  0  0  0
  -10.8711  -25.4724   30.8100 H   0  0  0  0  0  0  0  0  0  0  0  0
  -11.9889  -26.4407   28.5788 H   0  0  0  0  0  0  0  0  0  0  0  0
  -12.8736  -25.8132   26.3103 H   0  0  0  0  0  0  0  0  0  0  0  0
  -12.7514  -23.4103   25.6038 H   0  0  0  0  0  0  0  0  0  0  0  0
  -11.6712  -21.7285   27.0164 H   0  0  0  0  0  0  0  0  0  0  0  0
   -8.6641  -24.4616   32.0708 H   0  0  0  0  0  0  0  0  0  0  0  0
   -7.7710  -23.7581   34.1834 H   0  0  0  0  0  0  0  0  0  0  0  0
  -11.0522  -22.4135   35.7254 H   0  0  0  0  0  0  0  0  0  0  0  0
  -12.7113  -22.3945   40.4838 H   0  0  0  0  0  0  0  0  0  0  0  0
   -8.7227  -19.7189   39.3679 H   0  0  0  0  0  0  0  0  0  0  0  0
  1  2  2  0
  2  3  1  0
  3  4  2  0
  4  5  1  0
  5  6  2  0
  6  7  1  0
  7  8  2  0
  8  9  1  0
  9 10  1  0
 10 11  2  0
 11 12  1  0
 12 13  2  0
 13 14  1  0
 14 15  2  0
  6 16  1  0
 16 17  2  0
  2 18  1  0
 18 19  2  0
 19 20  1  0
 20 21  2  0
 21 22  1  0
 22 23  2  0
 17  3  1  0
 23 18  1  0
 15  7  1  0
 14  9  1  0
  4 24  1  0
  5 25  1  0
  8 26  1  0
 10 27  1  0
 11 28  1  0
 12 29  1  0
 13 30  1  0
 16 31  1  0
 17 32  1  0
 19 33  1  0
 21 34  1  0
 23 35  1  0
M  END
>  <Energy>  (1599) 
720.46365499640706

>  <compound_id>  (1599) 
36107

>  <target_id>  (1599) 
1

>  <reference_id>  (1599) 
54

>  <inspiration_ids>  (1599) 
[45, 54]

>  <energy_score>  (1599) 
631.2172705954974

>  <distance_score>  (1599) 
1.4300234726726424

>  <path>  (1599) 
/opt/xchem-fragalysis-2/maxwin/BulkDock/SCRATCH/511013/C36107-P54/C36107-P54.minimised.mol

>  <scratch_subdir>  (1599) 
/opt/xchem-fragalysis-2/maxwin/BulkDock/SCRATCH/511013/C36107-P54

>  <fragmenstein_runtime>  (1599) 
5.201697587966919

>  <fragmenstein_outcome>  (1599) 
too moved

>  <fragmenstein_mode>  (1599) 
expansion

>  <fragmenstein_error>  (1599) 


$$$$
C36094-P45
     RDKit          3D

 32 34  0  0  0  0  0  0  0  0999 V2000
   -9.2707  -31.4712   26.0416 C   0  0  0  0  0  0  0  0  0  0  0  0
   -8.6691  -30.3031   25.5149 O   0  0  0  0  0  0  0  0  0  0  0  0
   -8.6944  -29.2302   26.3564 C   0  0  0  0  0  0  0  0  0  0  0  0
   -7.5186  -28.3809   26.2324 C   0  0  0  0  0  0  0  0  0  0  0  0
   -7.5525  -27.1497   26.7664 C   0  0  0  0  0  0  0  0  0  0  0  0
   -8.6287  -26.8321   27.5746 N   0  0  0  0  0  0  0  0  0  0  0  0
   -9.0350  -25.6787   28.1717 C   0  0  0  0  0  0  0  0  0  0  0  0
   -9.2630  -24.4397   27.4234 C   0  0  0  0  0  0  0  0  0  0  0  0
  -10.7002  -24.3182   27.0223 N   0  0  0  0  0  0  0  0  0  0  0  0
  -11.4296  -23.6826   28.0494 C   0  0  0  0  0  0  0  0  0  0  0  0
  -11.4842  -22.3218   28.1924 C   0  0  0  0  0  0  0  0  0  0  0  0
  -11.8002  -21.6685   29.3271 N   0  0  0  0  0  0  0  0  0  0  0  0
  -12.0399  -22.4329   30.3838 C   0  0  0  0  0  0  0  0  0  0  0  0
  -12.0962  -23.7656   30.3659 N   0  0  0  0  0  0  0  0  0  0  0  0
  -11.8821  -24.3434   29.1609 C   0  0  0  0  0  0  0  0  0  0  0  0
   -9.5758  -26.1193   29.3570 C   0  0  0  0  0  0  0  0  0  0  0  0
  -10.0799  -27.3767   29.1502 N   0  0  0  0  0  0  0  0  0  0  0  0
   -9.5706  -27.7489   27.9904 C   0  0  0  0  0  0  0  0  0  0  0  0
   -9.6918  -28.9195   27.2095 C   0  0  0  0  0  0  0  0  0  0  0  0
  -10.3476  -31.3718   26.1813 H   0  0  0  0  0  0  0  0  0  0  0  0
   -8.8292  -31.7579   27.0005 H   0  0  0  0  0  0  0  0  0  0  0  0
   -9.1028  -32.2660   25.3113 H   0  0  0  0  0  0  0  0  0  0  0  0
   -6.6767  -28.7402   25.6529 H   0  0  0  0  0  0  0  0  0  0  0  0
   -6.7639  -26.4201   26.6428 H   0  0  0  0  0  0  0  0  0  0  0  0
   -8.9106  -23.5773   28.0000 H   0  0  0  0  0  0  0  0  0  0  0  0
   -8.6639  -24.4739   26.5083 H   0  0  0  0  0  0  0  0  0  0  0  0
  -10.7800  -23.7682   26.1689 H   0  0  0  0  0  0  0  0  0  0  0  0
  -11.2304  -21.6950   27.3535 H   0  0  0  0  0  0  0  0  0  0  0  0
  -12.2103  -21.9322   31.3294 H   0  0  0  0  0  0  0  0  0  0  0  0
  -12.0293  -25.4194   29.1280 H   0  0  0  0  0  0  0  0  0  0  0  0
   -9.8586  -25.5472   30.2306 H   0  0  0  0  0  0  0  0  0  0  0  0
  -10.5763  -29.5235   27.3406 H   0  0  0  0  0  0  0  0  0  0  0  0
  1  2  1  0
  2  3  1  0
  3  4  1  0
  4  5  2  0
  5  6  1  0
  6  7  1  0
  7  8  1  0
  8  9  1  0
  9 10  1  0
 10 11  2  0
 11 12  1  0
 12 13  2  0
 13 14  1  0
 14 15  2  0
  7 16  2  0
 16 17  1  0
 17 18  2  0
 18 19  1  0
 19  3  2  0
 18  6  1  0
 15 10  1  0
  1 20  1  0
  1 21  1  0
  1 22  1  0
  4 23  1  0
  5 24  1  0
  8 25  1  0
  8 26  1  0
  9 27  1  0
 11 28  1  0
 13 29  1  0
 15 30  1  0
 16 31  1  0
 19 32  1  0
M  END
>  <Energy>  (1600) 
76.018752092325713

>  <compound_id>  (1600) 
36094

>  <target_id>  (1600) 
1

>  <reference_id>  (1600) 
45

>  <inspiration_ids>  (1600) 
[45, 54]

>  <energy_score>  (1600) 
17.758753661219828

>  <distance_score>  (1600) 
2.2436125515994614

>  <path>  (1600) 
/opt/xchem-fragalysis-2/maxwin/BulkDock/SCRATCH/511013/C36094-P45/C36094-P45.minimised.mol

>  <scratch_subdir>  (1600) 
/opt/xchem-fragalysis-2/maxwin/BulkDock/SCRATCH/511013/C36094-P45

>  <fragmenstein_runtime>  (1600) 
2.560600757598877

>  <fragmenstein_outcome>  (1600) 
too moved

>  <fragmenstein_mode>  (1600) 
expansion

>  <fragmenstein_error>  (1600) 


$$$$
C36094-P54
     RDKit          3D

 32 34  0  0  0  0  0  0  0  0999 V2000
  -11.1476  -30.8709   27.8929 C   0  0  0  0  0  0  0  0  0  0  0  0
   -9.9245  -30.2121   27.6204 O   0  0  0  0  0  0  0  0  0  0  0  0
   -9.9364  -28.8481   27.6848 C   0  0  0  0  0  0  0  0  0  0  0  0
   -8.7501  -28.2833   27.0842 C   0  0  0  0  0  0  0  0  0  0  0  0
   -8.6518  -26.9581   26.9883 C   0  0  0  0  0  0  0  0  0  0  0  0
   -9.6794  -26.1479   27.4186 N   0  0  0  0  0  0  0  0  0  0  0  0
   -9.7962  -24.7916   27.5723 C   0  0  0  0  0  0  0  0  0  0  0  0
  -10.2881  -23.8462   26.5259 C   0  0  0  0  0  0  0  0  0  0  0  0
  -11.7087  -23.4833   26.5962 N   0  0  0  0  0  0  0  0  0  0  0  0
  -11.9268  -22.7711   27.7920 C   0  0  0  0  0  0  0  0  0  0  0  0
  -11.3793  -21.5276   28.0636 C   0  0  0  0  0  0  0  0  0  0  0  0
  -11.2898  -20.9722   29.2900 N   0  0  0  0  0  0  0  0  0  0  0  0
  -11.7710  -21.7099   30.2848 C   0  0  0  0  0  0  0  0  0  0  0  0
  -12.3669  -22.8918   30.1301 N   0  0  0  0  0  0  0  0  0  0  0  0
  -12.4784  -23.3838   28.8909 C   0  0  0  0  0  0  0  0  0  0  0  0
   -9.9399  -24.7124   28.9375 C   0  0  0  0  0  0  0  0  0  0  0  0
  -10.7493  -25.7918   29.2846 N   0  0  0  0  0  0  0  0  0  0  0  0
  -10.6384  -26.6517   28.2815 C   0  0  0  0  0  0  0  0  0  0  0  0
  -10.8811  -28.0520   28.2351 C   0  0  0  0  0  0  0  0  0  0  0  0
  -11.9586  -30.5393   27.2385 H   0  0  0  0  0  0  0  0  0  0  0  0
  -11.4594  -30.7405   28.9318 H   0  0  0  0  0  0  0  0  0  0  0  0
  -10.9980  -31.9415   27.7236 H   0  0  0  0  0  0  0  0  0  0  0  0
   -7.9392  -28.9319   26.7927 H   0  0  0  0  0  0  0  0  0  0  0  0
   -7.7094  -26.5079   26.7837 H   0  0  0  0  0  0  0  0  0  0  0  0
   -9.6818  -22.9414   26.5566 H   0  0  0  0  0  0  0  0  0  0  0  0
  -10.1616  -24.2961   25.5436 H   0  0  0  0  0  0  0  0  0  0  0  0
  -12.3005  -24.3089   26.5727 H   0  0  0  0  0  0  0  0  0  0  0  0
  -10.9672  -20.9172   27.2719 H   0  0  0  0  0  0  0  0  0  0  0  0
  -11.6964  -21.3173   31.2925 H   0  0  0  0  0  0  0  0  0  0  0  0
  -12.9425  -24.3624   28.8299 H   0  0  0  0  0  0  0  0  0  0  0  0
   -9.8694  -23.8553   29.5961 H   0  0  0  0  0  0  0  0  0  0  0  0
  -11.7492  -28.4320   28.7559 H   0  0  0  0  0  0  0  0  0  0  0  0
  1  2  1  0
  2  3  1  0
  3  4  1  0
  4  5  2  0
  5  6  1  0
  6  7  1  0
  7  8  1  0
  8  9  1  0
  9 10  1  0
 10 11  2  0
 11 12  1  0
 12 13  2  0
 13 14  1  0
 14 15  2  0
  7 16  2  0
 16 17  1  0
 17 18  2  0
 18 19  1  0
 19  3  2  0
 18  6  1  0
 15 10  1  0
  1 20  1  0
  1 21  1  0
  1 22  1  0
  4 23  1  0
  5 24  1  0
  8 25  1  0
  8 26  1  0
  9 27  1  0
 11 28  1  0
 13 29  1  0
 15 30  1  0
 16 31  1  0
 19 32  1  0
M  END
>  <Energy>  (1601) 
93.892984840017419

>  <compound_id>  (1601) 
36094

>  <target_id>  (1601) 
1

>  <reference_id>  (1601) 
54

>  <inspiration_ids>  (1601) 
[45, 54]

>  <energy_score>  (1601) 
30.51866234109707

>  <distance_score>  (1601) 
2.720682373242783

>  <path>  (1601) 
/opt/xchem-fragalysis-2/maxwin/BulkDock/SCRATCH/511013/C36094-P54/C36094-P54.minimised.mol

>  <scratch_subdir>  (1601) 
/opt/xchem-fragalysis-2/maxwin/BulkDock/SCRATCH/511013/C36094-P54

>  <fragmenstein_runtime>  (1601) 
1.9979116916656494

>  <fragmenstein_outcome>  (1601) 
too moved

>  <fragmenstein_mode>  (1601) 
expansion

>  <fragmenstein_error>  (1601) 


$$$$
C36110-P45
     RDKit          3D

 42 44  0  0  0  0  0  0  0  0999 V2000
   -5.9765  -22.6393   28.0668 C   0  0  0  0  0  0  0  0  0  0  0  0
   -5.5432  -23.9276   28.6188 C   0  0  0  0  0  0  0  0  0  0  0  0
   -5.9429  -25.1958   28.0798 C   0  0  0  0  0  0  0  0  0  0  0  0
   -4.9937  -26.1814   27.9991 C   0  0  0  0  0  0  0  0  0  0  0  0
   -5.6464  -27.3054   27.5043 N   0  0  0  0  0  0  0  0  0  0  0  0
   -5.1692  -27.8265   26.3265 C   0  0  0  0  0  0  0  0  0  0  0  0
   -4.5755  -26.4479   25.8628 C   0  0  0  0  0  0  0  0  0  0  0  0
   -3.4380  -26.1263   25.6641 O   0  0  0  0  0  0  0  0  0  0  0  0
   -5.8641  -25.6136   25.8480 N   0  0  0  0  0  0  0  0  0  0  0  0
   -6.0657  -24.2230   25.6949 C   0  0  0  0  0  0  0  0  0  0  0  0
   -7.5164  -23.9725   26.2853 C   0  0  0  0  0  0  0  0  0  0  0  0
   -8.8001  -24.8360   25.9806 C   0  0  0  0  0  0  0  0  0  0  0  0
  -10.0044  -24.8169   26.9128 C   0  0  0  0  0  0  0  0  0  0  0  0
   -9.9383  -24.7284   28.2921 C   0  0  0  0  0  0  0  0  0  0  0  0
  -10.9743  -24.9231   29.1376 N   0  0  0  0  0  0  0  0  0  0  0  0
  -12.1300  -25.2360   28.5464 C   0  0  0  0  0  0  0  0  0  0  0  0
  -12.3428  -25.3595   27.2261 N   0  0  0  0  0  0  0  0  0  0  0  0
  -11.2676  -25.1251   26.4411 C   0  0  0  0  0  0  0  0  0  0  0  0
   -6.0039  -28.7385   25.7789 C   0  0  0  0  0  0  0  0  0  0  0  0
   -7.3491  -28.9950   26.3063 C   0  0  0  0  0  0  0  0  0  0  0  0
   -7.8986  -28.1368   27.1771 C   0  0  0  0  0  0  0  0  0  0  0  0
   -7.0501  -27.1136   27.6566 C   0  0  0  0  0  0  0  0  0  0  0  0
   -7.2453  -25.8432   28.0086 N   0  0  0  0  0  0  0  0  0  0  0  0
   -7.0171  -22.3875   28.2504 H   0  0  0  0  0  0  0  0  0  0  0  0
   -5.6913  -22.3528   27.0736 H   0  0  0  0  0  0  0  0  0  0  0  0
   -5.3382  -22.0003   28.5926 H   0  0  0  0  0  0  0  0  0  0  0  0
   -5.8584  -24.0146   29.6277 H   0  0  0  0  0  0  0  0  0  0  0  0
   -4.4553  -23.9169   28.6607 H   0  0  0  0  0  0  0  0  0  0  0  0
   -3.9275  -26.0051   27.8701 H   0  0  0  0  0  0  0  0  0  0  0  0
   -6.6507  -26.2154   25.9735 H   0  0  0  0  0  0  0  0  0  0  0  0
   -5.2710  -23.8844   26.3042 H   0  0  0  0  0  0  0  0  0  0  0  0
   -5.8742  -23.7523   24.7302 H   0  0  0  0  0  0  0  0  0  0  0  0
   -7.5577  -22.9128   26.2429 H   0  0  0  0  0  0  0  0  0  0  0  0
   -7.5947  -23.9654   27.3518 H   0  0  0  0  0  0  0  0  0  0  0  0
   -9.1525  -24.6767   24.9615 H   0  0  0  0  0  0  0  0  0  0  0  0
   -8.5153  -25.8753   26.0153 H   0  0  0  0  0  0  0  0  0  0  0  0
   -9.0045  -24.5359   28.8051 H   0  0  0  0  0  0  0  0  0  0  0  0
  -12.9766  -25.4247   29.1970 H   0  0  0  0  0  0  0  0  0  0  0  0
  -11.4545  -25.2403   25.3766 H   0  0  0  0  0  0  0  0  0  0  0  0
   -5.8529  -29.2307   24.8454 H   0  0  0  0  0  0  0  0  0  0  0  0
   -7.9227  -29.8124   25.8780 H   0  0  0  0  0  0  0  0  0  0  0  0
   -8.9298  -28.2005   27.5004 H   0  0  0  0  0  0  0  0  0  0  0  0
  1  2  1  0
  2  3  1  0
  3  4  2  0
  4  5  1  0
  5  6  1  0
  6  7  1  0
  7  8  2  0
  7  9  1  0
  9 10  1  0
 10 11  1  0
 11 12  1  0
 12 13  1  0
 13 14  2  0
 14 15  1  0
 15 16  2  0
 16 17  1  0
 17 18  2  0
  6 19  2  0
 19 20  1  0
 20 21  2  0
 21 22  1  0
 22 23  2  0
 23  3  1  0
 22  5  1  0
 18 13  1  0
  1 24  1  0
  1 25  1  0
  1 26  1  0
  2 27  1  0
  2 28  1  0
  4 29  1  0
  9 30  1  0
 10 31  1  0
 10 32  1  0
 11 33  1  0
 11 34  1  0
 12 35  1  0
 12 36  1  0
 14 37  1  0
 16 38  1  0
 18 39  1  0
 19 40  1  0
 20 41  1  0
 21 42  1  0
M  END
>  <Energy>  (1602) 
295.17029114659397

>  <compound_id>  (1602) 
36110

>  <target_id>  (1602) 
1

>  <reference_id>  (1602) 
45

>  <inspiration_ids>  (1602) 
[45, 54]

>  <energy_score>  (1602) 
266.4089588155314

>  <distance_score>  (1602) 
2.095798381991733

>  <path>  (1602) 
/opt/xchem-fragalysis-2/maxwin/BulkDock/SCRATCH/511013/C36110-P45/C36110-P45.minimised.mol

>  <scratch_subdir>  (1602) 
/opt/xchem-fragalysis-2/maxwin/BulkDock/SCRATCH/511013/C36110-P45

>  <fragmenstein_runtime>  (1602) 
7.905035972595215

>  <fragmenstein_outcome>  (1602) 
too moved

>  <fragmenstein_mode>  (1602) 
expansion

>  <fragmenstein_error>  (1602) 


$$$$
C36110-P54
     RDKit          3D

 42 44  0  0  0  0  0  0  0  0999 V2000
  -13.4133  -27.6516   31.6959 C   0  0  0  0  0  0  0  0  0  0  0  0
  -13.6447  -27.4689   30.2039 C   0  0  0  0  0  0  0  0  0  0  0  0
  -12.3951  -27.6095   29.4045 C   0  0  0  0  0  0  0  0  0  0  0  0
  -11.9749  -26.8958   28.3097 C   0  0  0  0  0  0  0  0  0  0  0  0
  -10.7659  -27.4274   27.9922 N   0  0  0  0  0  0  0  0  0  0  0  0
   -9.8195  -26.9770   27.1154 C   0  0  0  0  0  0  0  0  0  0  0  0
  -10.3685  -26.0293   26.1684 C   0  0  0  0  0  0  0  0  0  0  0  0
  -10.8207  -26.4689   25.1962 O   0  0  0  0  0  0  0  0  0  0  0  0
  -10.3372  -24.6020   26.6820 N   0  0  0  0  0  0  0  0  0  0  0  0
  -10.9384  -23.4095   26.1588 C   0  0  0  0  0  0  0  0  0  0  0  0
  -11.0496  -22.2904   27.1524 C   0  0  0  0  0  0  0  0  0  0  0  0
  -11.9969  -22.6344   28.2797 C   0  0  0  0  0  0  0  0  0  0  0  0
  -11.2684  -23.1162   29.4690 C   0  0  0  0  0  0  0  0  0  0  0  0
  -11.4440  -24.3410   30.0381 C   0  0  0  0  0  0  0  0  0  0  0  0
  -10.6950  -24.8225   31.0361 N   0  0  0  0  0  0  0  0  0  0  0  0
   -9.7789  -23.9752   31.5212 C   0  0  0  0  0  0  0  0  0  0  0  0
   -9.5903  -22.7151   31.1177 N   0  0  0  0  0  0  0  0  0  0  0  0
  -10.3691  -22.3104   30.1101 C   0  0  0  0  0  0  0  0  0  0  0  0
   -8.6691  -27.6654   27.0154 C   0  0  0  0  0  0  0  0  0  0  0  0
   -8.6635  -29.0111   27.5296 C   0  0  0  0  0  0  0  0  0  0  0  0
   -9.6756  -29.4783   28.2586 C   0  0  0  0  0  0  0  0  0  0  0  0
  -10.6614  -28.5887   28.6895 C   0  0  0  0  0  0  0  0  0  0  0  0
  -11.5575  -28.6580   29.6326 N   0  0  0  0  0  0  0  0  0  0  0  0
  -14.3375  -27.4615   32.2505 H   0  0  0  0  0  0  0  0  0  0  0  0
  -12.6419  -26.9682   32.0639 H   0  0  0  0  0  0  0  0  0  0  0  0
  -13.0878  -28.6724   31.9240 H   0  0  0  0  0  0  0  0  0  0  0  0
  -14.0911  -26.4844   30.0255 H   0  0  0  0  0  0  0  0  0  0  0  0
  -14.3718  -28.2127   29.8575 H   0  0  0  0  0  0  0  0  0  0  0  0
  -12.4269  -26.0704   27.7787 H   0  0  0  0  0  0  0  0  0  0  0  0
   -9.9298  -24.5863   27.6140 H   0  0  0  0  0  0  0  0  0  0  0  0
  -10.3640  -23.1134   25.2790 H   0  0  0  0  0  0  0  0  0  0  0  0
  -11.9422  -23.6774   25.8184 H   0  0  0  0  0  0  0  0  0  0  0  0
  -11.4613  -21.4234   26.6355 H   0  0  0  0  0  0  0  0  0  0  0  0
  -10.0563  -22.0198   27.5191 H   0  0  0  0  0  0  0  0  0  0  0  0
  -12.4605  -21.7039   28.6162 H   0  0  0  0  0  0  0  0  0  0  0  0
  -12.7807  -23.3355   27.9751 H   0  0  0  0  0  0  0  0  0  0  0  0
  -12.2592  -24.9670   29.7240 H   0  0  0  0  0  0  0  0  0  0  0  0
   -9.1435  -24.3378   32.3223 H   0  0  0  0  0  0  0  0  0  0  0  0
  -10.2553  -21.2750   29.8101 H   0  0  0  0  0  0  0  0  0  0  0  0
   -7.7812  -27.4448   26.4717 H   0  0  0  0  0  0  0  0  0  0  0  0
   -7.9308  -29.7030   27.1457 H   0  0  0  0  0  0  0  0  0  0  0  0
   -9.7890  -30.5254   28.4855 H   0  0  0  0  0  0  0  0  0  0  0  0
  1  2  1  0
  2  3  1  0
  3  4  2  0
  4  5  1  0
  5  6  1  0
  6  7  1  0
  7  8  2  0
  7  9  1  0
  9 10  1  0
 10 11  1  0
 11 12  1  0
 12 13  1  0
 13 14  2  0
 14 15  1  0
 15 16  2  0
 16 17  1  0
 17 18  2  0
  6 19  2  0
 19 20  1  0
 20 21  2  0
 21 22  1  0
 22 23  2  0
 23  3  1  0
 22  5  1  0
 18 13  1  0
  1 24  1  0
  1 25  1  0
  1 26  1  0
  2 27  1  0
  2 28  1  0
  4 29  1  0
  9 30  1  0
 10 31  1  0
 10 32  1  0
 11 33  1  0
 11 34  1  0
 12 35  1  0
 12 36  1  0
 14 37  1  0
 16 38  1  0
 18 39  1  0
 19 40  1  0
 20 41  1  0
 21 42  1  0
M  END
>  <Energy>  (1603) 
46.661258913603262

>  <compound_id>  (1603) 
36110

>  <target_id>  (1603) 
1

>  <reference_id>  (1603) 
54

>  <inspiration_ids>  (1603) 
[45, 54]

>  <energy_score>  (1603) 
16.166965588596042

>  <distance_score>  (1603) 
3.7237025855776564

>  <path>  (1603) 
/opt/xchem-fragalysis-2/maxwin/BulkDock/SCRATCH/511013/C36110-P54/C36110-P54.minimised.mol

>  <scratch_subdir>  (1603) 
/opt/xchem-fragalysis-2/maxwin/BulkDock/SCRATCH/511013/C36110-P54

>  <fragmenstein_runtime>  (1603) 
8.758243322372437

>  <fragmenstein_outcome>  (1603) 
too moved

>  <fragmenstein_mode>  (1603) 
expansion

>  <fragmenstein_error>  (1603) 


$$$$
C36112-P45
     RDKit          3D

 40 42  0  0  0  0  0  0  0  0999 V2000
  -10.5695  -27.2120   28.2629 C   0  0  0  0  0  0  0  0  0  0  0  0
   -9.9174  -28.3351   27.5337 C   0  0  0  0  0  0  0  0  0  0  0  0
  -10.6317  -29.4700   27.3625 C   0  0  0  0  0  0  0  0  0  0  0  0
  -10.1005  -30.6121   26.6550 C   0  0  0  0  0  0  0  0  0  0  0  0
   -8.9250  -30.4977   26.0330 C   0  0  0  0  0  0  0  0  0  0  0  0
   -8.1480  -29.3862   26.2831 N   0  0  0  0  0  0  0  0  0  0  0  0
   -6.8549  -29.1508   25.9257 C   0  0  0  0  0  0  0  0  0  0  0  0
   -6.4225  -28.1078   26.7008 C   0  0  0  0  0  0  0  0  0  0  0  0
   -5.0165  -27.5474   26.8145 C   0  0  0  0  0  0  0  0  0  0  0  0
   -4.9042  -26.0124   26.8366 C   0  0  0  0  0  0  0  0  0  0  0  0
   -6.2311  -25.5036   26.7712 N   0  0  0  0  0  0  0  0  0  0  0  0
   -6.8608  -24.5088   27.4934 C   0  0  0  0  0  0  0  0  0  0  0  0
   -6.4414  -23.7510   28.3098 O   0  0  0  0  0  0  0  0  0  0  0  0
   -8.3870  -24.5489   27.1757 C   0  0  0  0  0  0  0  0  0  0  0  0
   -8.8364  -24.7049   26.0884 O   0  0  0  0  0  0  0  0  0  0  0  0
   -9.0184  -24.3126   28.4070 N   0  0  0  0  0  0  0  0  0  0  0  0
  -10.3456  -24.0968   28.7207 C   0  0  0  0  0  0  0  0  0  0  0  0
  -11.2184  -23.3677   27.9587 C   0  0  0  0  0  0  0  0  0  0  0  0
  -12.2182  -22.6731   28.5267 N   0  0  0  0  0  0  0  0  0  0  0  0
  -12.3699  -22.8087   29.8543 C   0  0  0  0  0  0  0  0  0  0  0  0
  -11.6941  -23.6405   30.6507 N   0  0  0  0  0  0  0  0  0  0  0  0
  -10.6873  -24.2696   30.0433 C   0  0  0  0  0  0  0  0  0  0  0  0
   -7.5183  -27.5695   27.3787 N   0  0  0  0  0  0  0  0  0  0  0  0
   -8.5514  -28.3321   27.0808 C   0  0  0  0  0  0  0  0  0  0  0  0
  -10.7874  -26.4128   27.5522 H   0  0  0  0  0  0  0  0  0  0  0  0
  -11.5151  -27.4989   28.7361 H   0  0  0  0  0  0  0  0  0  0  0  0
   -9.9068  -26.8626   29.0581 H   0  0  0  0  0  0  0  0  0  0  0  0
  -11.6541  -29.5533   27.7206 H   0  0  0  0  0  0  0  0  0  0  0  0
  -10.7305  -31.4717   26.4912 H   0  0  0  0  0  0  0  0  0  0  0  0
   -8.5303  -31.2621   25.3806 H   0  0  0  0  0  0  0  0  0  0  0  0
   -6.3513  -29.8063   25.2379 H   0  0  0  0  0  0  0  0  0  0  0  0
   -4.4229  -27.9290   25.9817 H   0  0  0  0  0  0  0  0  0  0  0  0
   -4.5593  -27.9633   27.7161 H   0  0  0  0  0  0  0  0  0  0  0  0
   -4.2840  -25.6268   26.0370 H   0  0  0  0  0  0  0  0  0  0  0  0
   -4.4482  -25.6523   27.7590 H   0  0  0  0  0  0  0  0  0  0  0  0
   -6.9303  -26.0058   26.2232 H   0  0  0  0  0  0  0  0  0  0  0  0
   -8.3172  -24.3147   29.1429 H   0  0  0  0  0  0  0  0  0  0  0  0
  -11.0894  -23.2012   26.8982 H   0  0  0  0  0  0  0  0  0  0  0  0
  -13.1371  -22.2139   30.3311 H   0  0  0  0  0  0  0  0  0  0  0  0
  -10.0483  -24.8465   30.7107 H   0  0  0  0  0  0  0  0  0  0  0  0
  1  2  1  0
  2  3  2  0
  3  4  1  0
  4  5  2  0
  5  6  1  0
  6  7  1  0
  7  8  2  0
  8  9  1  0
  9 10  1  0
 10 11  1  0
 11 12  1  0
 12 13  2  0
 12 14  1  0
 14 15  2  0
 14 16  1  0
 16 17  1  0
 17 18  2  0
 18 19  1  0
 19 20  2  0
 20 21  1  0
 21 22  2  0
  8 23  1  0
 23 24  2  0
 24  2  1  0
 24  6  1  0
 22 17  1  0
  1 25  1  0
  1 26  1  0
  1 27  1  0
  3 28  1  0
  4 29  1  0
  5 30  1  0
  7 31  1  0
  9 32  1  0
  9 33  1  0
 10 34  1  0
 10 35  1  0
 11 36  1  0
 16 37  1  0
 18 38  1  0
 20 39  1  0
 22 40  1  0
M  END
>  <Energy>  (1604) 
115.85737815291868

>  <compound_id>  (1604) 
36112

>  <target_id>  (1604) 
1

>  <reference_id>  (1604) 
45

>  <inspiration_ids>  (1604) 
[45, 54]

>  <energy_score>  (1604) 
-18.215137110989474

>  <distance_score>  (1604) 
3.1854149892076467

>  <path>  (1604) 
/opt/xchem-fragalysis-2/maxwin/BulkDock/SCRATCH/511013/C36112-P45/C36112-P45.minimised.mol

>  <scratch_subdir>  (1604) 
/opt/xchem-fragalysis-2/maxwin/BulkDock/SCRATCH/511013/C36112-P45

>  <fragmenstein_runtime>  (1604) 
9.366966009140015

>  <fragmenstein_outcome>  (1604) 
too moved

>  <fragmenstein_mode>  (1604) 
expansion

>  <fragmenstein_error>  (1604) 


$$$$
C36112-P54
     RDKit          3D

 40 42  0  0  0  0  0  0  0  0999 V2000
  -10.6767  -30.0850   27.9956 C   0  0  0  0  0  0  0  0  0  0  0  0
  -10.6404  -28.5775   28.0220 C   0  0  0  0  0  0  0  0  0  0  0  0
   -9.9764  -27.8207   27.1147 C   0  0  0  0  0  0  0  0  0  0  0  0
  -10.0421  -26.3653   27.1132 C   0  0  0  0  0  0  0  0  0  0  0  0
  -10.6999  -25.7329   28.0977 C   0  0  0  0  0  0  0  0  0  0  0  0
  -11.3020  -26.5026   29.0848 N   0  0  0  0  0  0  0  0  0  0  0  0
  -11.9777  -26.1322   30.2261 C   0  0  0  0  0  0  0  0  0  0  0  0
  -12.4378  -27.3115   30.7869 C   0  0  0  0  0  0  0  0  0  0  0  0
  -13.4786  -27.6170   31.8247 C   0  0  0  0  0  0  0  0  0  0  0  0
  -14.6046  -28.4983   31.2297 C   0  0  0  0  0  0  0  0  0  0  0  0
  -14.9786  -27.9652   29.9408 N   0  0  0  0  0  0  0  0  0  0  0  0
  -16.1584  -27.3133   29.5108 C   0  0  0  0  0  0  0  0  0  0  0  0
  -17.1864  -27.1034   30.0785 O   0  0  0  0  0  0  0  0  0  0  0  0
  -15.9327  -26.7278   28.0870 C   0  0  0  0  0  0  0  0  0  0  0  0
  -15.0525  -27.1672   27.4066 O   0  0  0  0  0  0  0  0  0  0  0  0
  -16.8218  -25.6383   27.8712 N   0  0  0  0  0  0  0  0  0  0  0  0
  -16.8795  -24.6982   26.8529 C   0  0  0  0  0  0  0  0  0  0  0  0
  -15.8420  -24.4649   25.9752 C   0  0  0  0  0  0  0  0  0  0  0  0
  -15.8044  -23.4063   25.1328 N   0  0  0  0  0  0  0  0  0  0  0  0
  -16.8450  -22.5599   25.2061 C   0  0  0  0  0  0  0  0  0  0  0  0
  -17.9267  -22.7179   25.9758 N   0  0  0  0  0  0  0  0  0  0  0  0
  -17.9138  -23.7902   26.7917 C   0  0  0  0  0  0  0  0  0  0  0  0
  -11.9410  -28.3793   30.1014 N   0  0  0  0  0  0  0  0  0  0  0  0
  -11.3056  -27.8843   29.0716 C   0  0  0  0  0  0  0  0  0  0  0  0
  -11.3014  -30.4779   27.1964 H   0  0  0  0  0  0  0  0  0  0  0  0
   -9.6729  -30.5033   27.9378 H   0  0  0  0  0  0  0  0  0  0  0  0
  -11.1647  -30.4896   28.8848 H   0  0  0  0  0  0  0  0  0  0  0  0
   -9.3687  -28.2610   26.3318 H   0  0  0  0  0  0  0  0  0  0  0  0
   -9.5435  -25.8209   26.3272 H   0  0  0  0  0  0  0  0  0  0  0  0
  -10.7704  -24.6556   28.1772 H   0  0  0  0  0  0  0  0  0  0  0  0
  -12.1177  -25.0881   30.4523 H   0  0  0  0  0  0  0  0  0  0  0  0
  -13.9313  -26.6945   32.1853 H   0  0  0  0  0  0  0  0  0  0  0  0
  -13.0217  -28.1202   32.6833 H   0  0  0  0  0  0  0  0  0  0  0  0
  -14.2555  -29.5235   31.0704 H   0  0  0  0  0  0  0  0  0  0  0  0
  -15.4750  -28.5138   31.8923 H   0  0  0  0  0  0  0  0  0  0  0  0
  -14.3295  -28.0321   29.1528 H   0  0  0  0  0  0  0  0  0  0  0  0
  -17.5005  -25.6073   28.6338 H   0  0  0  0  0  0  0  0  0  0  0  0
  -14.9608  -25.0977   25.9409 H   0  0  0  0  0  0  0  0  0  0  0  0
  -16.8097  -21.6694   24.5867 H   0  0  0  0  0  0  0  0  0  0  0  0
  -18.7697  -23.8594   27.4565 H   0  0  0  0  0  0  0  0  0  0  0  0
  1  2  1  0
  2  3  2  0
  3  4  1  0
  4  5  2  0
  5  6  1  0
  6  7  1  0
  7  8  2  0
  8  9  1  0
  9 10  1  0
 10 11  1  0
 11 12  1  0
 12 13  2  0
 12 14  1  0
 14 15  2  0
 14 16  1  0
 16 17  1  0
 17 18  2  0
 18 19  1  0
 19 20  2  0
 20 21  1  0
 21 22  2  0
  8 23  1  0
 23 24  2  0
 24  2  1  0
 24  6  1  0
 22 17  1  0
  1 25  1  0
  1 26  1  0
  1 27  1  0
  3 28  1  0
  4 29  1  0
  5 30  1  0
  7 31  1  0
  9 32  1  0
  9 33  1  0
 10 34  1  0
 10 35  1  0
 11 36  1  0
 16 37  1  0
 18 38  1  0
 20 39  1  0
 22 40  1  0
M  END
>  <Energy>  (1605) 
88.985559169946853

>  <compound_id>  (1605) 
36112

>  <target_id>  (1605) 
1

>  <reference_id>  (1605) 
54

>  <inspiration_ids>  (1605) 
[45, 54]

>  <energy_score>  (1605) 
-45.086956093960765

>  <distance_score>  (1605) 
5.915558923787303

>  <path>  (1605) 
/opt/xchem-fragalysis-2/maxwin/BulkDock/SCRATCH/511013/C36112-P54/C36112-P54.minimised.mol

>  <scratch_subdir>  (1605) 
/opt/xchem-fragalysis-2/maxwin/BulkDock/SCRATCH/511013/C36112-P54

>  <fragmenstein_runtime>  (1605) 
10.815647602081299

>  <fragmenstein_outcome>  (1605) 
too moved

>  <fragmenstein_mode>  (1605) 
expansion

>  <fragmenstein_error>  (1605) 


$$$$
C36113-P45
     RDKit          3D

 33 35  0  0  0  0  0  0  0  0999 V2000
   -7.4510  -29.2437   26.1653 C   0  0  0  0  0  0  0  0  0  0  0  0
   -6.8719  -27.9592   26.6831 C   0  0  0  0  0  0  0  0  0  0  0  0
   -5.5394  -27.7440   26.6904 C   0  0  0  0  0  0  0  0  0  0  0  0
   -4.9438  -26.4506   26.9621 C   0  0  0  0  0  0  0  0  0  0  0  0
   -5.7455  -25.3905   27.1233 C   0  0  0  0  0  0  0  0  0  0  0  0
   -7.1141  -25.6001   27.0991 N   0  0  0  0  0  0  0  0  0  0  0  0
   -8.1467  -24.6941   27.0467 C   0  0  0  0  0  0  0  0  0  0  0  0
   -9.2476  -25.4616   26.6965 C   0  0  0  0  0  0  0  0  0  0  0  0
  -10.4610  -25.2119   25.8593 C   0  0  0  0  0  0  0  0  0  0  0  0
  -12.0256  -25.1863   26.6924 S   0  0  0  0  0  0  0  0  0  0  0  0
  -11.8569  -23.5259   27.3265 C   0  0  0  0  0  0  0  0  0  0  0  0
  -11.5341  -23.4384   28.7661 C   0  0  0  0  0  0  0  0  0  0  0  0
  -11.7955  -22.2740   29.4561 C   0  0  0  0  0  0  0  0  0  0  0  0
  -11.6617  -22.1350   30.7836 N   0  0  0  0  0  0  0  0  0  0  0  0
  -11.1932  -23.2041   31.4269 C   0  0  0  0  0  0  0  0  0  0  0  0
  -10.8217  -24.3608   30.8544 N   0  0  0  0  0  0  0  0  0  0  0  0
  -10.9950  -24.4500   29.5216 C   0  0  0  0  0  0  0  0  0  0  0  0
   -9.0015  -26.7667   26.9919 N   0  0  0  0  0  0  0  0  0  0  0  0
   -7.6981  -26.8460   26.9848 C   0  0  0  0  0  0  0  0  0  0  0  0
   -7.7811  -29.8819   26.9838 H   0  0  0  0  0  0  0  0  0  0  0  0
   -8.3235  -29.0526   25.5314 H   0  0  0  0  0  0  0  0  0  0  0  0
   -6.7269  -29.7727   25.5428 H   0  0  0  0  0  0  0  0  0  0  0  0
   -4.8360  -28.4978   26.3785 H   0  0  0  0  0  0  0  0  0  0  0  0
   -3.8651  -26.3455   26.9359 H   0  0  0  0  0  0  0  0  0  0  0  0
   -5.3831  -24.3806   27.2530 H   0  0  0  0  0  0  0  0  0  0  0  0
   -7.9265  -23.6421   27.0264 H   0  0  0  0  0  0  0  0  0  0  0  0
  -10.3453  -24.3614   25.1898 H   0  0  0  0  0  0  0  0  0  0  0  0
  -10.6103  -26.0676   25.2026 H   0  0  0  0  0  0  0  0  0  0  0  0
  -11.1569  -22.9317   26.7533 H   0  0  0  0  0  0  0  0  0  0  0  0
  -12.8193  -23.0669   27.1726 H   0  0  0  0  0  0  0  0  0  0  0  0
  -12.1523  -21.3847   28.9521 H   0  0  0  0  0  0  0  0  0  0  0  0
  -11.0951  -23.1340   32.5060 H   0  0  0  0  0  0  0  0  0  0  0  0
  -10.7020  -25.4117   29.1100 H   0  0  0  0  0  0  0  0  0  0  0  0
  1  2  1  0
  2  3  2  0
  3  4  1  0
  4  5  2  0
  5  6  1  0
  6  7  1  0
  7  8  2  0
  8  9  1  0
  9 10  1  0
 10 11  1  0
 11 12  1  0
 12 13  2  0
 13 14  1  0
 14 15  2  0
 15 16  1  0
 16 17  2  0
  8 18  1  0
 18 19  2  0
 19  2  1  0
 19  6  1  0
 17 12  1  0
  1 20  1  0
  1 21  1  0
  1 22  1  0
  3 23  1  0
  4 24  1  0
  5 25  1  0
  7 26  1  0
  9 27  1  0
  9 28  1  0
 11 29  1  0
 11 30  1  0
 13 31  1  0
 15 32  1  0
 17 33  1  0
M  END
>  <Energy>  (1606) 
53.985133825260192

>  <compound_id>  (1606) 
36113

>  <target_id>  (1606) 
1

>  <reference_id>  (1606) 
45

>  <inspiration_ids>  (1606) 
[45, 54]

>  <energy_score>  (1606) 
0.6638021066944475

>  <distance_score>  (1606) 
1.9868726497805866

>  <path>  (1606) 
/opt/xchem-fragalysis-2/maxwin/BulkDock/SCRATCH/511013/C36113-P45/C36113-P45.minimised.mol

>  <scratch_subdir>  (1606) 
/opt/xchem-fragalysis-2/maxwin/BulkDock/SCRATCH/511013/C36113-P45

>  <fragmenstein_runtime>  (1606) 
2.6137895584106445

>  <fragmenstein_outcome>  (1606) 
too moved

>  <fragmenstein_mode>  (1606) 
expansion

>  <fragmenstein_error>  (1606) 


$$$$
C36113-P54
     RDKit          3D

 33 35  0  0  0  0  0  0  0  0999 V2000
  -12.4542  -28.5601   27.9357 C   0  0  0  0  0  0  0  0  0  0  0  0
  -11.0059  -28.2798   27.6354 C   0  0  0  0  0  0  0  0  0  0  0  0
  -10.0654  -29.2259   27.8463 C   0  0  0  0  0  0  0  0  0  0  0  0
   -8.6755  -29.0130   27.4963 C   0  0  0  0  0  0  0  0  0  0  0  0
   -8.2577  -27.7839   27.1787 C   0  0  0  0  0  0  0  0  0  0  0  0
   -9.1979  -26.7845   27.1729 N   0  0  0  0  0  0  0  0  0  0  0  0
   -9.1422  -25.4427   27.4037 C   0  0  0  0  0  0  0  0  0  0  0  0
  -10.2643  -24.9586   26.7631 C   0  0  0  0  0  0  0  0  0  0  0  0
  -10.6388  -23.5650   26.3745 C   0  0  0  0  0  0  0  0  0  0  0  0
  -12.4364  -23.2804   26.2666 S   0  0  0  0  0  0  0  0  0  0  0  0
  -12.9718  -24.0909   27.7870 C   0  0  0  0  0  0  0  0  0  0  0  0
  -12.1041  -23.7870   28.9639 C   0  0  0  0  0  0  0  0  0  0  0  0
  -11.6899  -22.5149   29.3132 C   0  0  0  0  0  0  0  0  0  0  0  0
  -10.8387  -22.2584   30.3206 N   0  0  0  0  0  0  0  0  0  0  0  0
  -10.4239  -23.3258   31.0155 C   0  0  0  0  0  0  0  0  0  0  0  0
  -10.7672  -24.6039   30.7894 N   0  0  0  0  0  0  0  0  0  0  0  0
  -11.6049  -24.7994   29.7575 C   0  0  0  0  0  0  0  0  0  0  0  0
  -11.1443  -26.0021   26.5898 N   0  0  0  0  0  0  0  0  0  0  0  0
  -10.5440  -27.0344   27.1249 C   0  0  0  0  0  0  0  0  0  0  0  0
  -12.8113  -27.9037   28.7351 H   0  0  0  0  0  0  0  0  0  0  0  0
  -13.0675  -28.3830   27.0460 H   0  0  0  0  0  0  0  0  0  0  0  0
  -12.6188  -29.5952   28.2531 H   0  0  0  0  0  0  0  0  0  0  0  0
  -10.3353  -30.2097   28.2170 H   0  0  0  0  0  0  0  0  0  0  0  0
   -8.0218  -29.8689   27.5020 H   0  0  0  0  0  0  0  0  0  0  0  0
   -7.2344  -27.5282   26.9571 H   0  0  0  0  0  0  0  0  0  0  0  0
   -8.3076  -24.9847   27.9076 H   0  0  0  0  0  0  0  0  0  0  0  0
  -10.1859  -22.8393   27.0554 H   0  0  0  0  0  0  0  0  0  0  0  0
  -10.2386  -23.3541   25.3798 H   0  0  0  0  0  0  0  0  0  0  0  0
  -13.9982  -23.7965   28.0176 H   0  0  0  0  0  0  0  0  0  0  0  0
  -13.0607  -25.1679   27.6193 H   0  0  0  0  0  0  0  0  0  0  0  0
  -11.9977  -21.6346   28.7553 H   0  0  0  0  0  0  0  0  0  0  0  0
   -9.7468  -23.1382   31.8417 H   0  0  0  0  0  0  0  0  0  0  0  0
  -11.8575  -25.8383   29.5723 H   0  0  0  0  0  0  0  0  0  0  0  0
  1  2  1  0
  2  3  2  0
  3  4  1  0
  4  5  2  0
  5  6  1  0
  6  7  1  0
  7  8  2  0
  8  9  1  0
  9 10  1  0
 10 11  1  0
 11 12  1  0
 12 13  2  0
 13 14  1  0
 14 15  2  0
 15 16  1  0
 16 17  2  0
  8 18  1  0
 18 19  2  0
 19  2  1  0
 19  6  1  0
 17 12  1  0
  1 20  1  0
  1 21  1  0
  1 22  1  0
  3 23  1  0
  4 24  1  0
  5 25  1  0
  7 26  1  0
  9 27  1  0
  9 28  1  0
 11 29  1  0
 11 30  1  0
 13 31  1  0
 15 32  1  0
 17 33  1  0
M  END
>  <Energy>  (1607) 
52.249372259343431

>  <compound_id>  (1607) 
36113

>  <target_id>  (1607) 
1

>  <reference_id>  (1607) 
54

>  <inspiration_ids>  (1607) 
[45, 54]

>  <energy_score>  (1607) 
-1.0719594592222847

>  <distance_score>  (1607) 
2.685366951179055

>  <path>  (1607) 
/opt/xchem-fragalysis-2/maxwin/BulkDock/SCRATCH/511013/C36113-P54/C36113-P54.minimised.mol

>  <scratch_subdir>  (1607) 
/opt/xchem-fragalysis-2/maxwin/BulkDock/SCRATCH/511013/C36113-P54

>  <fragmenstein_runtime>  (1607) 
2.3191583156585693

>  <fragmenstein_outcome>  (1607) 
too moved

>  <fragmenstein_mode>  (1607) 
expansion

>  <fragmenstein_error>  (1607) 


$$$$
C36114-P45
     RDKit          3D

 36 38  0  0  0  0  0  0  0  0999 V2000
  -10.6787  -29.2102   27.3140 C   0  0  0  0  0  0  0  0  0  0  0  0
   -9.2940  -28.6556   27.1451 C   0  0  0  0  0  0  0  0  0  0  0  0
   -8.3571  -29.2860   26.3996 C   0  0  0  0  0  0  0  0  0  0  0  0
   -7.0237  -28.7366   26.1937 C   0  0  0  0  0  0  0  0  0  0  0  0
   -6.7600  -27.4897   26.6113 C   0  0  0  0  0  0  0  0  0  0  0  0
   -7.7428  -26.8388   27.3302 N   0  0  0  0  0  0  0  0  0  0  0  0
   -7.9082  -25.5403   27.7248 C   0  0  0  0  0  0  0  0  0  0  0  0
   -8.0223  -24.4667   26.7461 C   0  0  0  0  0  0  0  0  0  0  0  0
   -9.5424  -24.5718   26.2873 C   0  0  0  0  0  0  0  0  0  0  0  0
   -9.9268  -25.1891   25.3895 O   0  0  0  0  0  0  0  0  0  0  0  0
  -10.2996  -23.7163   27.2925 N   0  0  0  0  0  0  0  0  0  0  0  0
  -11.6747  -23.3618   27.3536 C   0  0  0  0  0  0  0  0  0  0  0  0
  -11.8607  -23.1600   28.7952 C   0  0  0  0  0  0  0  0  0  0  0  0
  -11.9131  -21.9404   29.4067 C   0  0  0  0  0  0  0  0  0  0  0  0
  -11.7349  -21.7528   30.7217 N   0  0  0  0  0  0  0  0  0  0  0  0
  -11.4234  -22.8323   31.4254 C   0  0  0  0  0  0  0  0  0  0  0  0
  -11.3218  -24.0673   30.9255 N   0  0  0  0  0  0  0  0  0  0  0  0
  -11.6140  -24.2135   29.6236 C   0  0  0  0  0  0  0  0  0  0  0  0
   -8.6823  -25.6266   28.8579 C   0  0  0  0  0  0  0  0  0  0  0  0
   -9.4155  -26.7747   28.7895 N   0  0  0  0  0  0  0  0  0  0  0  0
   -8.9003  -27.4455   27.7778 C   0  0  0  0  0  0  0  0  0  0  0  0
  -10.7298  -30.2706   27.0509 H   0  0  0  0  0  0  0  0  0  0  0  0
  -11.0336  -29.1170   28.3441 H   0  0  0  0  0  0  0  0  0  0  0  0
  -11.3772  -28.6326   26.7014 H   0  0  0  0  0  0  0  0  0  0  0  0
   -8.5746  -30.2236   25.8951 H   0  0  0  0  0  0  0  0  0  0  0  0
   -6.3175  -29.3161   25.6158 H   0  0  0  0  0  0  0  0  0  0  0  0
   -5.8310  -26.9712   26.4160 H   0  0  0  0  0  0  0  0  0  0  0  0
   -7.7864  -23.5040   27.2094 H   0  0  0  0  0  0  0  0  0  0  0  0
   -7.3552  -24.5788   25.9057 H   0  0  0  0  0  0  0  0  0  0  0  0
   -9.6585  -23.3807   28.0009 H   0  0  0  0  0  0  0  0  0  0  0  0
  -11.7974  -22.4526   26.7730 H   0  0  0  0  0  0  0  0  0  0  0  0
  -12.2809  -24.1637   26.9285 H   0  0  0  0  0  0  0  0  0  0  0  0
  -12.0621  -21.0336   28.8484 H   0  0  0  0  0  0  0  0  0  0  0  0
  -11.2531  -22.7086   32.4897 H   0  0  0  0  0  0  0  0  0  0  0  0
  -11.5331  -25.2274   29.2331 H   0  0  0  0  0  0  0  0  0  0  0  0
   -8.9459  -24.8634   29.5700 H   0  0  0  0  0  0  0  0  0  0  0  0
  1  2  1  0
  2  3  2  0
  3  4  1  0
  4  5  2  0
  5  6  1  0
  6  7  1  0
  7  8  1  0
  8  9  1  0
  9 10  2  0
  9 11  1  0
 11 12  1  0
 12 13  1  0
 13 14  2  0
 14 15  1  0
 15 16  2  0
 16 17  1  0
 17 18  2  0
  7 19  2  0
 19 20  1  0
 20 21  2  0
 21  2  1  0
 21  6  1  0
 18 13  1  0
  1 22  1  0
  1 23  1  0
  1 24  1  0
  3 25  1  0
  4 26  1  0
  5 27  1  0
  8 28  1  0
  8 29  1  0
 11 30  1  0
 12 31  1  0
 12 32  1  0
 14 33  1  0
 16 34  1  0
 18 35  1  0
 19 36  1  0
M  END
>  <Energy>  (1608) 
68.527084719805501

>  <compound_id>  (1608) 
36114

>  <target_id>  (1608) 
1

>  <reference_id>  (1608) 
45

>  <inspiration_ids>  (1608) 
[45, 54]

>  <energy_score>  (1608) 
33.604931307502454

>  <distance_score>  (1608) 
1.767073567187567

>  <path>  (1608) 
/opt/xchem-fragalysis-2/maxwin/BulkDock/SCRATCH/511013/C36114-P45/C36114-P45.minimised.mol

>  <scratch_subdir>  (1608) 
/opt/xchem-fragalysis-2/maxwin/BulkDock/SCRATCH/511013/C36114-P45

>  <fragmenstein_runtime>  (1608) 
5.349141597747803

>  <fragmenstein_outcome>  (1608) 
too moved

>  <fragmenstein_mode>  (1608) 
expansion

>  <fragmenstein_error>  (1608) 


$$$$
C36114-P54
     RDKit          3D

 36 38  0  0  0  0  0  0  0  0999 V2000
   -5.8649  -30.2722   25.0681 C   0  0  0  0  0  0  0  0  0  0  0  0
   -4.5520  -29.7467   24.4638 C   0  0  0  0  0  0  0  0  0  0  0  0
   -4.3392  -30.4179   23.3168 C   0  0  0  0  0  0  0  0  0  0  0  0
   -5.2463  -29.8408   22.3335 C   0  0  0  0  0  0  0  0  0  0  0  0
   -5.8543  -28.6401   22.6028 C   0  0  0  0  0  0  0  0  0  0  0  0
   -5.1642  -27.6900   23.5804 N   0  0  0  0  0  0  0  0  0  0  0  0
   -4.7128  -25.9103   23.3875 C   0  0  0  0  0  0  0  0  0  0  0  0
   -5.4121  -24.2296   23.0153 C   0  0  0  0  0  0  0  0  0  0  0  0
   -6.5714  -22.9823   23.7646 C   0  0  0  0  0  0  0  0  0  0  0  0
   -6.0238  -22.3017   24.6092 O   0  0  0  0  0  0  0  0  0  0  0  0
   -8.1559  -22.9260   23.1848 N   0  0  0  0  0  0  0  0  0  0  0  0
   -9.2044  -22.0295   23.4547 C   0  0  0  0  0  0  0  0  0  0  0  0
  -10.4977  -22.4004   24.1944 C   0  0  0  0  0  0  0  0  0  0  0  0
  -11.7036  -21.9220   23.7044 C   0  0  0  0  0  0  0  0  0  0  0  0
  -12.9104  -22.1693   24.2524 N   0  0  0  0  0  0  0  0  0  0  0  0
  -12.9064  -22.7986   25.4352 C   0  0  0  0  0  0  0  0  0  0  0  0
  -11.8220  -23.2550   26.0727 N   0  0  0  0  0  0  0  0  0  0  0  0
  -10.6478  -23.0244   25.4363 C   0  0  0  0  0  0  0  0  0  0  0  0
   -3.3068  -26.0865   23.7605 C   0  0  0  0  0  0  0  0  0  0  0  0
   -3.1371  -27.4990   24.0165 N   0  0  0  0  0  0  0  0  0  0  0  0
   -4.2541  -28.3000   24.2865 C   0  0  0  0  0  0  0  0  0  0  0  0
   -6.5269  -29.4491   25.3497 H   0  0  0  0  0  0  0  0  0  0  0  0
   -6.4619  -30.8810   24.3736 H   0  0  0  0  0  0  0  0  0  0  0  0
   -5.6644  -30.9453   25.8770 H   0  0  0  0  0  0  0  0  0  0  0  0
   -4.3964  -31.5085   23.2973 H   0  0  0  0  0  0  0  0  0  0  0  0
   -5.3578  -30.4369   21.4371 H   0  0  0  0  0  0  0  0  0  0  0  0
   -6.4453  -28.1940   21.8616 H   0  0  0  0  0  0  0  0  0  0  0  0
   -4.4934  -23.7256   23.3667 H   0  0  0  0  0  0  0  0  0  0  0  0
   -5.3336  -23.9998   21.9724 H   0  0  0  0  0  0  0  0  0  0  0  0
   -8.2685  -23.5853   22.4086 H   0  0  0  0  0  0  0  0  0  0  0  0
   -8.6256  -21.1828   23.4844 H   0  0  0  0  0  0  0  0  0  0  0  0
   -9.6036  -21.7900   22.4533 H   0  0  0  0  0  0  0  0  0  0  0  0
  -11.7320  -21.3183   22.8037 H   0  0  0  0  0  0  0  0  0  0  0  0
  -13.8699  -22.9652   25.8994 H   0  0  0  0  0  0  0  0  0  0  0  0
   -9.8085  -23.3182   26.0401 H   0  0  0  0  0  0  0  0  0  0  0  0
   -2.4871  -25.3783   23.8077 H   0  0  0  0  0  0  0  0  0  0  0  0
  1  2  1  0
  2  3  2  0
  3  4  1  0
  4  5  2  0
  5  6  1  0
  6  7  1  0
  7  8  1  0
  8  9  1  0
  9 10  2  0
  9 11  1  0
 11 12  1  0
 12 13  1  0
 13 14  2  0
 14 15  1  0
 15 16  2  0
 16 17  1  0
 17 18  2  0
  7 19  2  0
 19 20  1  0
 20 21  2  0
 21  2  1  0
 21  6  1  0
 18 13  1  0
  1 22  1  0
  1 23  1  0
  1 24  1  0
  3 25  1  0
  4 26  1  0
  5 27  1  0
  8 28  1  0
  8 29  1  0
 11 30  1  0
 12 31  1  0
 12 32  1  0
 14 33  1  0
 16 34  1  0
 18 35  1  0
 19 36  1  0
M  END
>  <Energy>  (1609) 
362.18098603033042

>  <compound_id>  (1609) 
36114

>  <target_id>  (1609) 
1

>  <reference_id>  (1609) 
54

>  <inspiration_ids>  (1609) 
[45, 54]

>  <energy_score>  (1609) 
327.94696038929743

>  <distance_score>  (1609) 
4.839187862320612

>  <path>  (1609) 
/opt/xchem-fragalysis-2/maxwin/BulkDock/SCRATCH/511013/C36114-P54/C36114-P54.minimised.mol

>  <scratch_subdir>  (1609) 
/opt/xchem-fragalysis-2/maxwin/BulkDock/SCRATCH/511013/C36114-P54

>  <fragmenstein_runtime>  (1609) 
6.5564353466033936

>  <fragmenstein_outcome>  (1609) 
too moved

>  <fragmenstein_mode>  (1609) 
expansion

>  <fragmenstein_error>  (1609) 


$$$$
C36115-P45
     RDKit          3D

 39 41  0  0  0  0  0  0  0  0999 V2000
  -10.1081  -28.2906   27.2212 C   0  0  0  0  0  0  0  0  0  0  0  0
   -8.6383  -28.2224   26.9227 C   0  0  0  0  0  0  0  0  0  0  0  0
   -8.0415  -29.2246   26.2538 C   0  0  0  0  0  0  0  0  0  0  0  0
   -6.6423  -29.1688   25.8963 C   0  0  0  0  0  0  0  0  0  0  0  0
   -5.8798  -28.1172   26.2304 C   0  0  0  0  0  0  0  0  0  0  0  0
   -6.4959  -27.0562   26.8437 N   0  0  0  0  0  0  0  0  0  0  0  0
   -6.0421  -25.7748   27.0595 C   0  0  0  0  0  0  0  0  0  0  0  0
   -7.1333  -25.1428   27.6046 C   0  0  0  0  0  0  0  0  0  0  0  0
   -7.5158  -23.7368   27.6995 C   0  0  0  0  0  0  0  0  0  0  0  0
   -8.9478  -23.8336   27.5820 N   0  0  0  0  0  0  0  0  0  0  0  0
   -9.8302  -24.5101   26.4878 C   0  0  0  0  0  0  0  0  0  0  0  0
   -9.5277  -25.0214   25.4812 O   0  0  0  0  0  0  0  0  0  0  0  0
  -11.3276  -24.4860   26.8061 C   0  0  0  0  0  0  0  0  0  0  0  0
  -12.0801  -23.9796   25.5712 C   0  0  0  0  0  0  0  0  0  0  0  0
  -11.6445  -23.8387   28.1021 C   0  0  0  0  0  0  0  0  0  0  0  0
  -11.7674  -22.4833   28.2792 C   0  0  0  0  0  0  0  0  0  0  0  0
  -11.8207  -21.8855   29.4786 N   0  0  0  0  0  0  0  0  0  0  0  0
  -11.6915  -22.6863   30.5332 C   0  0  0  0  0  0  0  0  0  0  0  0
  -11.5102  -24.0140   30.4868 N   0  0  0  0  0  0  0  0  0  0  0  0
  -11.5119  -24.5636   29.2599 C   0  0  0  0  0  0  0  0  0  0  0  0
   -8.0996  -26.0597   27.9759 N   0  0  0  0  0  0  0  0  0  0  0  0
   -7.8145  -27.1127   27.2698 C   0  0  0  0  0  0  0  0  0  0  0  0
  -10.3227  -27.8841   28.2146 H   0  0  0  0  0  0  0  0  0  0  0  0
  -10.4855  -29.3182   27.1985 H   0  0  0  0  0  0  0  0  0  0  0  0
  -10.6674  -27.7050   26.4854 H   0  0  0  0  0  0  0  0  0  0  0  0
   -8.5911  -30.1044   25.9323 H   0  0  0  0  0  0  0  0  0  0  0  0
   -6.2773  -29.9799   25.2860 H   0  0  0  0  0  0  0  0  0  0  0  0
   -4.8405  -28.0007   25.9573 H   0  0  0  0  0  0  0  0  0  0  0  0
   -5.0929  -25.4319   26.6752 H   0  0  0  0  0  0  0  0  0  0  0  0
   -7.2393  -23.2897   28.6455 H   0  0  0  0  0  0  0  0  0  0  0  0
   -7.1140  -23.1630   26.8662 H   0  0  0  0  0  0  0  0  0  0  0  0
   -9.5368  -23.4223   28.2809 H   0  0  0  0  0  0  0  0  0  0  0  0
  -11.6111  -25.5446   26.8987 H   0  0  0  0  0  0  0  0  0  0  0  0
  -11.6934  -24.4283   24.6534 H   0  0  0  0  0  0  0  0  0  0  0  0
  -12.0092  -22.9016   25.4471 H   0  0  0  0  0  0  0  0  0  0  0  0
  -13.1335  -24.2353   25.5988 H   0  0  0  0  0  0  0  0  0  0  0  0
  -11.7337  -21.8089   27.4340 H   0  0  0  0  0  0  0  0  0  0  0  0
  -11.7128  -22.2176   31.5114 H   0  0  0  0  0  0  0  0  0  0  0  0
  -11.3145  -25.6334   29.2312 H   0  0  0  0  0  0  0  0  0  0  0  0
  1  2  1  0
  2  3  2  0
  3  4  1  0
  4  5  2  0
  5  6  1  0
  6  7  1  0
  7  8  2  0
  8  9  1  0
  9 10  1  0
 10 11  1  0
 11 12  2  0
 11 13  1  0
 13 14  1  0
 13 15  1  0
 15 16  2  0
 16 17  1  0
 17 18  2  0
 18 19  1  0
 19 20  2  0
  8 21  1  0
 21 22  2  0
 22  2  1  0
 22  6  1  0
 20 15  1  0
  1 23  1  0
  1 24  1  0
  1 25  1  0
  3 26  1  0
  4 27  1  0
  5 28  1  0
  7 29  1  0
  9 30  1  0
  9 31  1  0
 10 32  1  0
 13 33  1  0
 14 34  1  0
 14 35  1  0
 14 36  1  0
 16 37  1  0
 18 38  1  0
 20 39  1  0
M  END
>  <Energy>  (1610) 
66.373155950423154

>  <compound_id>  (1610) 
36115

>  <target_id>  (1610) 
1

>  <reference_id>  (1610) 
45

>  <inspiration_ids>  (1610) 
[45, 54]

>  <energy_score>  (1610) 
21.094955657377398

>  <distance_score>  (1610) 
1.0798808338327726

>  <path>  (1610) 
/opt/xchem-fragalysis-2/maxwin/BulkDock/SCRATCH/511013/C36115-P45/C36115-P45.minimised.mol

>  <scratch_subdir>  (1610) 
/opt/xchem-fragalysis-2/maxwin/BulkDock/SCRATCH/511013/C36115-P45

>  <fragmenstein_runtime>  (1610) 
5.021064758300781

>  <fragmenstein_outcome>  (1610) 
too moved

>  <fragmenstein_mode>  (1610) 
expansion

>  <fragmenstein_error>  (1610) 


$$$$
C36115-P54
     RDKit          3D

 39 41  0  0  0  0  0  0  0  0999 V2000
  -12.2795  -28.7325   28.0132 C   0  0  0  0  0  0  0  0  0  0  0  0
  -10.8413  -28.4480   27.6884 C   0  0  0  0  0  0  0  0  0  0  0  0
   -9.9102  -29.4005   27.8878 C   0  0  0  0  0  0  0  0  0  0  0  0
   -8.5322  -29.1975   27.4964 C   0  0  0  0  0  0  0  0  0  0  0  0
   -8.1021  -27.9729   27.1749 C   0  0  0  0  0  0  0  0  0  0  0  0
   -9.0261  -26.9767   27.1723 N   0  0  0  0  0  0  0  0  0  0  0  0
   -8.9640  -25.6283   27.3294 C   0  0  0  0  0  0  0  0  0  0  0  0
  -10.0124  -25.1974   26.5516 C   0  0  0  0  0  0  0  0  0  0  0  0
  -10.5701  -23.8323   26.1701 C   0  0  0  0  0  0  0  0  0  0  0  0
  -11.8604  -24.2259   26.5551 N   0  0  0  0  0  0  0  0  0  0  0  0
  -13.2284  -23.6840   26.1455 C   0  0  0  0  0  0  0  0  0  0  0  0
  -13.5140  -22.8759   25.3661 O   0  0  0  0  0  0  0  0  0  0  0  0
  -14.1178  -24.4575   27.1498 C   0  0  0  0  0  0  0  0  0  0  0  0
  -15.6051  -24.3127   26.9285 C   0  0  0  0  0  0  0  0  0  0  0  0
  -13.4539  -24.3248   28.5692 C   0  0  0  0  0  0  0  0  0  0  0  0
  -12.5862  -23.2724   28.9286 C   0  0  0  0  0  0  0  0  0  0  0  0
  -11.5898  -23.3491   29.8359 N   0  0  0  0  0  0  0  0  0  0  0  0
  -11.4422  -24.5338   30.4224 C   0  0  0  0  0  0  0  0  0  0  0  0
  -12.2318  -25.6076   30.2258 N   0  0  0  0  0  0  0  0  0  0  0  0
  -13.2160  -25.4758   29.2997 C   0  0  0  0  0  0  0  0  0  0  0  0
  -10.8976  -26.2871   26.4130 N   0  0  0  0  0  0  0  0  0  0  0  0
  -10.3638  -27.2381   27.1212 C   0  0  0  0  0  0  0  0  0  0  0  0
  -12.5194  -28.3606   29.0126 H   0  0  0  0  0  0  0  0  0  0  0  0
  -12.4977  -29.8059   27.9927 H   0  0  0  0  0  0  0  0  0  0  0  0
  -12.9443  -28.2524   27.2874 H   0  0  0  0  0  0  0  0  0  0  0  0
  -10.1843  -30.3809   28.2619 H   0  0  0  0  0  0  0  0  0  0  0  0
   -7.9101  -30.0751   27.4417 H   0  0  0  0  0  0  0  0  0  0  0  0
   -7.0989  -27.6983   26.8962 H   0  0  0  0  0  0  0  0  0  0  0  0
   -8.1794  -25.1482   27.8908 H   0  0  0  0  0  0  0  0  0  0  0  0
  -10.2126  -23.0492   26.8416 H   0  0  0  0  0  0  0  0  0  0  0  0
  -10.4833  -23.5392   25.1315 H   0  0  0  0  0  0  0  0  0  0  0  0
  -11.9811  -24.9887   27.2096 H   0  0  0  0  0  0  0  0  0  0  0  0
  -13.9467  -25.5134   26.8711 H   0  0  0  0  0  0  0  0  0  0  0  0
  -16.1778  -24.7664   27.7418 H   0  0  0  0  0  0  0  0  0  0  0  0
  -15.8900  -24.8341   26.0056 H   0  0  0  0  0  0  0  0  0  0  0  0
  -15.9148  -23.2835   26.7684 H   0  0  0  0  0  0  0  0  0  0  0  0
  -12.5054  -22.3481   28.3628 H   0  0  0  0  0  0  0  0  0  0  0  0
  -10.6302  -24.6357   31.1332 H   0  0  0  0  0  0  0  0  0  0  0  0
  -13.7783  -26.3852   29.1064 H   0  0  0  0  0  0  0  0  0  0  0  0
  1  2  1  0
  2  3  2  0
  3  4  1  0
  4  5  2  0
  5  6  1  0
  6  7  1  0
  7  8  2  0
  8  9  1  0
  9 10  1  0
 10 11  1  0
 11 12  2  0
 11 13  1  0
 13 14  1  0
 13 15  1  0
 15 16  2  0
 16 17  1  0
 17 18  2  0
 18 19  1  0
 19 20  2  0
  8 21  1  0
 21 22  2  0
 22  2  1  0
 22  6  1  0
 20 15  1  0
  1 23  1  0
  1 24  1  0
  1 25  1  0
  3 26  1  0
  4 27  1  0
  5 28  1  0
  7 29  1  0
  9 30  1  0
  9 31  1  0
 10 32  1  0
 13 33  1  0
 14 34  1  0
 14 35  1  0
 14 36  1  0
 16 37  1  0
 18 38  1  0
 20 39  1  0
M  END
>  <Energy>  (1611) 
105.31743883965075

>  <compound_id>  (1611) 
36115

>  <target_id>  (1611) 
1

>  <reference_id>  (1611) 
54

>  <inspiration_ids>  (1611) 
[45, 54]

>  <energy_score>  (1611) 
60.039238546605986

>  <distance_score>  (1611) 
2.7490448433123076

>  <path>  (1611) 
/opt/xchem-fragalysis-2/maxwin/BulkDock/SCRATCH/511013/C36115-P54/C36115-P54.minimised.mol

>  <scratch_subdir>  (1611) 
/opt/xchem-fragalysis-2/maxwin/BulkDock/SCRATCH/511013/C36115-P54

>  <fragmenstein_runtime>  (1611) 
3.578646183013916

>  <fragmenstein_outcome>  (1611) 
too moved

>  <fragmenstein_mode>  (1611) 
expansion

>  <fragmenstein_error>  (1611) 


$$$$
C36116-P45
     RDKit          3D

 32 34  0  0  0  0  0  0  0  0999 V2000
   -8.7855  -29.2918   26.4466 C   0  0  0  0  0  0  0  0  0  0  0  0
   -7.6510  -28.3547   26.7556 C   0  0  0  0  0  0  0  0  0  0  0  0
   -6.3918  -28.6449   26.3889 C   0  0  0  0  0  0  0  0  0  0  0  0
   -5.2803  -27.7208   26.5743 C   0  0  0  0  0  0  0  0  0  0  0  0
   -5.5441  -26.4280   26.8217 C   0  0  0  0  0  0  0  0  0  0  0  0
   -6.8675  -26.0871   27.0270 N   0  0  0  0  0  0  0  0  0  0  0  0
   -7.5610  -24.8979   26.8555 C   0  0  0  0  0  0  0  0  0  0  0  0
   -8.8716  -25.3653   26.8760 C   0  0  0  0  0  0  0  0  0  0  0  0
  -10.0079  -25.1563   25.9952 C   0  0  0  0  0  0  0  0  0  0  0  0
  -10.1174  -24.4242   25.0286 O   0  0  0  0  0  0  0  0  0  0  0  0
  -11.0126  -26.0040   26.3232 O   0  0  0  0  0  0  0  0  0  0  0  0
  -12.1329  -25.2356   26.6567 C   0  0  0  0  0  0  0  0  0  0  0  0
  -11.8623  -24.3894   27.8548 C   0  0  0  0  0  0  0  0  0  0  0  0
  -11.8012  -23.0163   27.8319 C   0  0  0  0  0  0  0  0  0  0  0  0
  -11.6690  -22.2564   28.9325 N   0  0  0  0  0  0  0  0  0  0  0  0
  -11.5246  -22.9183   30.0807 C   0  0  0  0  0  0  0  0  0  0  0  0
  -11.4224  -24.2494   30.2090 N   0  0  0  0  0  0  0  0  0  0  0  0
  -11.5957  -24.9552   29.0745 C   0  0  0  0  0  0  0  0  0  0  0  0
   -8.9284  -26.4621   27.6795 N   0  0  0  0  0  0  0  0  0  0  0  0
   -7.8475  -27.0445   27.2529 C   0  0  0  0  0  0  0  0  0  0  0  0
   -9.4192  -29.4446   27.3221 H   0  0  0  0  0  0  0  0  0  0  0  0
   -9.4113  -28.8568   25.6623 H   0  0  0  0  0  0  0  0  0  0  0  0
   -8.4472  -30.2697   26.0975 H   0  0  0  0  0  0  0  0  0  0  0  0
   -6.2064  -29.5679   25.8541 H   0  0  0  0  0  0  0  0  0  0  0  0
   -4.2772  -28.0487   26.3495 H   0  0  0  0  0  0  0  0  0  0  0  0
   -4.7963  -25.6469   26.8005 H   0  0  0  0  0  0  0  0  0  0  0  0
   -7.0812  -24.0483   26.3942 H   0  0  0  0  0  0  0  0  0  0  0  0
  -12.8811  -25.9870   26.9110 H   0  0  0  0  0  0  0  0  0  0  0  0
  -12.5100  -24.6655   25.7986 H   0  0  0  0  0  0  0  0  0  0  0  0
  -11.8641  -22.4690   26.8981 H   0  0  0  0  0  0  0  0  0  0  0  0
  -11.4570  -22.3224   30.9842 H   0  0  0  0  0  0  0  0  0  0  0  0
  -11.5202  -26.0354   29.1816 H   0  0  0  0  0  0  0  0  0  0  0  0
  1  2  1  0
  2  3  2  0
  3  4  1  0
  4  5  2  0
  5  6  1  0
  6  7  1  0
  7  8  2  0
  8  9  1  0
  9 10  2  0
  9 11  1  0
 11 12  1  0
 12 13  1  0
 13 14  2  0
 14 15  1  0
 15 16  2  0
 16 17  1  0
 17 18  2  0
  8 19  1  0
 19 20  2  0
 20  2  1  0
 20  6  1  0
 18 13  1  0
  1 21  1  0
  1 22  1  0
  1 23  1  0
  3 24  1  0
  4 25  1  0
  5 26  1  0
  7 27  1  0
 12 28  1  0
 12 29  1  0
 14 30  1  0
 16 31  1  0
 18 32  1  0
M  END
>  <Energy>  (1612) 
95.950755004431514

>  <compound_id>  (1612) 
36116

>  <target_id>  (1612) 
1

>  <reference_id>  (1612) 
45

>  <inspiration_ids>  (1612) 
[45, 54]

>  <energy_score>  (1612) 
28.967212706651992

>  <distance_score>  (1612) 
1.4583739387514612

>  <path>  (1612) 
/opt/xchem-fragalysis-2/maxwin/BulkDock/SCRATCH/511013/C36116-P45/C36116-P45.minimised.mol

>  <scratch_subdir>  (1612) 
/opt/xchem-fragalysis-2/maxwin/BulkDock/SCRATCH/511013/C36116-P45

>  <fragmenstein_runtime>  (1612) 
1.7602336406707764

>  <fragmenstein_outcome>  (1612) 
too moved

>  <fragmenstein_mode>  (1612) 
expansion

>  <fragmenstein_error>  (1612) 


$$$$
C36116-P54
     RDKit          3D

 32 34  0  0  0  0  0  0  0  0999 V2000
  -12.4016  -28.9941   28.2426 C   0  0  0  0  0  0  0  0  0  0  0  0
  -11.0148  -28.5763   27.8322 C   0  0  0  0  0  0  0  0  0  0  0  0
   -9.9853  -29.4374   27.9292 C   0  0  0  0  0  0  0  0  0  0  0  0
   -8.6486  -29.0848   27.5093 C   0  0  0  0  0  0  0  0  0  0  0  0
   -8.3609  -27.8257   27.1665 C   0  0  0  0  0  0  0  0  0  0  0  0
   -9.3957  -26.9200   27.1749 N   0  0  0  0  0  0  0  0  0  0  0  0
   -9.4413  -25.5621   27.2171 C   0  0  0  0  0  0  0  0  0  0  0  0
  -10.7022  -25.2388   26.7595 C   0  0  0  0  0  0  0  0  0  0  0  0
  -11.2247  -23.9358   26.3690 C   0  0  0  0  0  0  0  0  0  0  0  0
  -10.5390  -23.1151   25.7807 O   0  0  0  0  0  0  0  0  0  0  0  0
  -12.5546  -23.7124   26.6250 O   0  0  0  0  0  0  0  0  0  0  0  0
  -13.0796  -24.2230   27.8599 C   0  0  0  0  0  0  0  0  0  0  0  0
  -12.1680  -23.8820   28.9926 C   0  0  0  0  0  0  0  0  0  0  0  0
  -11.6573  -22.6125   29.1917 C   0  0  0  0  0  0  0  0  0  0  0  0
  -10.7615  -22.3203   30.1474 N   0  0  0  0  0  0  0  0  0  0  0  0
  -10.3740  -23.3456   30.9185 C   0  0  0  0  0  0  0  0  0  0  0  0
  -10.7881  -24.6198   30.8118 N   0  0  0  0  0  0  0  0  0  0  0  0
  -11.6840  -24.8554   29.8410 C   0  0  0  0  0  0  0  0  0  0  0  0
  -11.4999  -26.3496   26.8490 N   0  0  0  0  0  0  0  0  0  0  0  0
  -10.7153  -27.2933   27.2992 C   0  0  0  0  0  0  0  0  0  0  0  0
  -12.7672  -28.3477   29.0473 H   0  0  0  0  0  0  0  0  0  0  0  0
  -13.0896  -28.9124   27.3946 H   0  0  0  0  0  0  0  0  0  0  0  0
  -12.4351  -30.0278   28.6026 H   0  0  0  0  0  0  0  0  0  0  0  0
  -10.1438  -30.4559   28.2676 H   0  0  0  0  0  0  0  0  0  0  0  0
   -7.9348  -29.8878   27.4719 H   0  0  0  0  0  0  0  0  0  0  0  0
   -7.3696  -27.4910   26.9038 H   0  0  0  0  0  0  0  0  0  0  0  0
   -8.6203  -24.9768   27.5836 H   0  0  0  0  0  0  0  0  0  0  0  0
  -13.3024  -25.2908   27.7782 H   0  0  0  0  0  0  0  0  0  0  0  0
  -14.0577  -23.7734   28.0319 H   0  0  0  0  0  0  0  0  0  0  0  0
  -11.9222  -21.7764   28.5484 H   0  0  0  0  0  0  0  0  0  0  0  0
   -9.6553  -23.1253   31.7007 H   0  0  0  0  0  0  0  0  0  0  0  0
  -11.9955  -25.8922   29.7516 H   0  0  0  0  0  0  0  0  0  0  0  0
  1  2  1  0
  2  3  2  0
  3  4  1  0
  4  5  2  0
  5  6  1  0
  6  7  1  0
  7  8  2  0
  8  9  1  0
  9 10  2  0
  9 11  1  0
 11 12  1  0
 12 13  1  0
 13 14  2  0
 14 15  1  0
 15 16  2  0
 16 17  1  0
 17 18  2  0
  8 19  1  0
 19 20  2  0
 20  2  1  0
 20  6  1  0
 18 13  1  0
  1 21  1  0
  1 22  1  0
  1 23  1  0
  3 24  1  0
  4 25  1  0
  5 26  1  0
  7 27  1  0
 12 28  1  0
 12 29  1  0
 14 30  1  0
 16 31  1  0
 18 32  1  0
M  END
>  <Energy>  (1613) 
66.239235538665085

>  <compound_id>  (1613) 
36116

>  <target_id>  (1613) 
1

>  <reference_id>  (1613) 
54

>  <inspiration_ids>  (1613) 
[45, 54]

>  <energy_score>  (1613) 
-0.7443067591131012

>  <distance_score>  (1613) 
2.833153333554752

>  <path>  (1613) 
/opt/xchem-fragalysis-2/maxwin/BulkDock/SCRATCH/511013/C36116-P54/C36116-P54.minimised.mol

>  <scratch_subdir>  (1613) 
/opt/xchem-fragalysis-2/maxwin/BulkDock/SCRATCH/511013/C36116-P54

>  <fragmenstein_runtime>  (1613) 
2.30899715423584

>  <fragmenstein_outcome>  (1613) 
too moved

>  <fragmenstein_mode>  (1613) 
expansion

>  <fragmenstein_error>  (1613) 


$$$$
C36117-P45
     RDKit          3D

 36 38  0  0  0  0  0  0  0  0999 V2000
   -8.6795  -29.2234   26.2487 C   0  0  0  0  0  0  0  0  0  0  0  0
   -7.4589  -28.3848   26.5119 C   0  0  0  0  0  0  0  0  0  0  0  0
   -6.2491  -28.7905   26.1101 C   0  0  0  0  0  0  0  0  0  0  0  0
   -5.0446  -28.0028   26.3189 C   0  0  0  0  0  0  0  0  0  0  0  0
   -5.1143  -26.7536   26.7744 C   0  0  0  0  0  0  0  0  0  0  0  0
   -6.3593  -26.2857   27.0785 N   0  0  0  0  0  0  0  0  0  0  0  0
   -6.7489  -25.0233   27.4115 C   0  0  0  0  0  0  0  0  0  0  0  0
   -8.0952  -25.1811   27.6136 C   0  0  0  0  0  0  0  0  0  0  0  0
   -9.1146  -24.2140   27.5710 C   0  0  0  0  0  0  0  0  0  0  0  0
   -9.0740  -23.1757   28.0931 O   0  0  0  0  0  0  0  0  0  0  0  0
  -10.1920  -24.8316   26.6513 N   0  0  0  0  0  0  0  0  0  0  0  0
  -11.4652  -24.3418   26.2680 C   0  0  0  0  0  0  0  0  0  0  0  0
  -11.9539  -23.1951   27.1015 C   0  0  0  0  0  0  0  0  0  0  0  0
  -11.8107  -23.2501   28.5807 C   0  0  0  0  0  0  0  0  0  0  0  0
  -11.5297  -24.3801   29.2995 C   0  0  0  0  0  0  0  0  0  0  0  0
  -11.2047  -24.3561   30.6034 N   0  0  0  0  0  0  0  0  0  0  0  0
  -11.2992  -23.1690   31.2214 C   0  0  0  0  0  0  0  0  0  0  0  0
  -11.6610  -22.0265   30.6539 N   0  0  0  0  0  0  0  0  0  0  0  0
  -11.8604  -22.0944   29.3301 C   0  0  0  0  0  0  0  0  0  0  0  0
   -8.5187  -26.4724   27.5562 N   0  0  0  0  0  0  0  0  0  0  0  0
   -7.4953  -27.0904   27.0695 C   0  0  0  0  0  0  0  0  0  0  0  0
   -9.4474  -28.6259   25.7488 H   0  0  0  0  0  0  0  0  0  0  0  0
   -9.1058  -29.5920   27.1831 H   0  0  0  0  0  0  0  0  0  0  0  0
   -8.4672  -30.0852   25.6084 H   0  0  0  0  0  0  0  0  0  0  0  0
   -6.1822  -29.7265   25.5715 H   0  0  0  0  0  0  0  0  0  0  0  0
   -4.0868  -28.3468   25.9869 H   0  0  0  0  0  0  0  0  0  0  0  0
   -4.2591  -26.0948   26.8565 H   0  0  0  0  0  0  0  0  0  0  0  0
   -6.1003  -24.1608   27.3612 H   0  0  0  0  0  0  0  0  0  0  0  0
   -9.8669  -25.7308   26.3026 H   0  0  0  0  0  0  0  0  0  0  0  0
  -11.4272  -24.0748   25.2072 H   0  0  0  0  0  0  0  0  0  0  0  0
  -12.1510  -25.1929   26.3503 H   0  0  0  0  0  0  0  0  0  0  0  0
  -11.4820  -22.2731   26.7602 H   0  0  0  0  0  0  0  0  0  0  0  0
  -12.9996  -23.1281   26.8751 H   0  0  0  0  0  0  0  0  0  0  0  0
  -11.4882  -25.3661   28.8487 H   0  0  0  0  0  0  0  0  0  0  0  0
  -11.0799  -23.1491   32.2842 H   0  0  0  0  0  0  0  0  0  0  0  0
  -12.0561  -21.1371   28.8730 H   0  0  0  0  0  0  0  0  0  0  0  0
  1  2  1  0
  2  3  2  0
  3  4  1  0
  4  5  2  0
  5  6  1  0
  6  7  1  0
  7  8  2  0
  8  9  1  0
  9 10  2  0
  9 11  1  0
 11 12  1  0
 12 13  1  0
 13 14  1  0
 14 15  2  0
 15 16  1  0
 16 17  2  0
 17 18  1  0
 18 19  2  0
  8 20  1  0
 20 21  2  0
 21  2  1  0
 21  6  1  0
 19 14  1  0
  1 22  1  0
  1 23  1  0
  1 24  1  0
  3 25  1  0
  4 26  1  0
  5 27  1  0
  7 28  1  0
 11 29  1  0
 12 30  1  0
 12 31  1  0
 13 32  1  0
 13 33  1  0
 15 34  1  0
 17 35  1  0
 19 36  1  0
M  END
>  <Energy>  (1614) 
74.543568662803551

>  <compound_id>  (1614) 
36117

>  <target_id>  (1614) 
1

>  <reference_id>  (1614) 
45

>  <inspiration_ids>  (1614) 
[45, 54]

>  <energy_score>  (1614) 
10.731775174909615

>  <distance_score>  (1614) 
1.39216383539504

>  <path>  (1614) 
/opt/xchem-fragalysis-2/maxwin/BulkDock/SCRATCH/511013/C36117-P45/C36117-P45.minimised.mol

>  <scratch_subdir>  (1614) 
/opt/xchem-fragalysis-2/maxwin/BulkDock/SCRATCH/511013/C36117-P45

>  <fragmenstein_runtime>  (1614) 
4.223613023757935

>  <fragmenstein_outcome>  (1614) 
too moved

>  <fragmenstein_mode>  (1614) 
expansion

>  <fragmenstein_error>  (1614) 


$$$$
C36117-P54
     RDKit          3D

 36 38  0  0  0  0  0  0  0  0999 V2000
  -12.3158  -29.3682   28.4619 C   0  0  0  0  0  0  0  0  0  0  0  0
  -10.9276  -29.0150   28.0015 C   0  0  0  0  0  0  0  0  0  0  0  0
   -9.9378  -29.9284   28.0298 C   0  0  0  0  0  0  0  0  0  0  0  0
   -8.5865  -29.6326   27.5855 C   0  0  0  0  0  0  0  0  0  0  0  0
   -8.2817  -28.4130   27.1561 C   0  0  0  0  0  0  0  0  0  0  0  0
   -9.2724  -27.5029   27.1651 N   0  0  0  0  0  0  0  0  0  0  0  0
   -9.1790  -26.1874   26.9796 C   0  0  0  0  0  0  0  0  0  0  0  0
  -10.4317  -25.8458   26.5711 C   0  0  0  0  0  0  0  0  0  0  0  0
  -10.8352  -24.5274   26.2374 C   0  0  0  0  0  0  0  0  0  0  0  0
  -10.2544  -23.8008   25.5608 O   0  0  0  0  0  0  0  0  0  0  0  0
  -12.0779  -24.3243   27.0348 N   0  0  0  0  0  0  0  0  0  0  0  0
  -12.8281  -23.1834   27.2576 C   0  0  0  0  0  0  0  0  0  0  0  0
  -11.8084  -22.1265   27.7250 C   0  0  0  0  0  0  0  0  0  0  0  0
  -11.0784  -22.5450   28.9630 C   0  0  0  0  0  0  0  0  0  0  0  0
   -9.8979  -23.2548   28.9445 C   0  0  0  0  0  0  0  0  0  0  0  0
   -9.2867  -23.7460   30.0339 N   0  0  0  0  0  0  0  0  0  0  0  0
   -9.8546  -23.4212   31.1956 C   0  0  0  0  0  0  0  0  0  0  0  0
  -10.9619  -22.6885   31.3445 N   0  0  0  0  0  0  0  0  0  0  0  0
  -11.5610  -22.2744   30.2166 C   0  0  0  0  0  0  0  0  0  0  0  0
  -11.3380  -26.7874   26.9876 N   0  0  0  0  0  0  0  0  0  0  0  0
  -10.5907  -27.7594   27.4368 C   0  0  0  0  0  0  0  0  0  0  0  0
  -13.0302  -29.2525   27.6400 H   0  0  0  0  0  0  0  0  0  0  0  0
  -12.6195  -28.7070   29.2803 H   0  0  0  0  0  0  0  0  0  0  0  0
  -12.3841  -30.3998   28.8228 H   0  0  0  0  0  0  0  0  0  0  0  0
  -10.1490  -30.9504   28.3297 H   0  0  0  0  0  0  0  0  0  0  0  0
   -7.8882  -30.4429   27.4479 H   0  0  0  0  0  0  0  0  0  0  0  0
   -7.3453  -28.0825   26.7397 H   0  0  0  0  0  0  0  0  0  0  0  0
   -8.2660  -25.6829   27.1925 H   0  0  0  0  0  0  0  0  0  0  0  0
  -12.2678  -25.1624   27.5858 H   0  0  0  0  0  0  0  0  0  0  0  0
  -13.3155  -22.8966   26.3221 H   0  0  0  0  0  0  0  0  0  0  0  0
  -13.5431  -23.4874   28.0278 H   0  0  0  0  0  0  0  0  0  0  0  0
  -11.0873  -21.8976   26.9365 H   0  0  0  0  0  0  0  0  0  0  0  0
  -12.2703  -21.1714   27.9573 H   0  0  0  0  0  0  0  0  0  0  0  0
   -9.3659  -23.4355   28.0203 H   0  0  0  0  0  0  0  0  0  0  0  0
   -9.3700  -23.7743   32.0987 H   0  0  0  0  0  0  0  0  0  0  0  0
  -12.4675  -21.6990   30.3757 H   0  0  0  0  0  0  0  0  0  0  0  0
  1  2  1  0
  2  3  2  0
  3  4  1  0
  4  5  2  0
  5  6  1  0
  6  7  1  0
  7  8  2  0
  8  9  1  0
  9 10  2  0
  9 11  1  0
 11 12  1  0
 12 13  1  0
 13 14  1  0
 14 15  2  0
 15 16  1  0
 16 17  2  0
 17 18  1  0
 18 19  2  0
  8 20  1  0
 20 21  2  0
 21  2  1  0
 21  6  1  0
 19 14  1  0
  1 22  1  0
  1 23  1  0
  1 24  1  0
  3 25  1  0
  4 26  1  0
  5 27  1  0
  7 28  1  0
 11 29  1  0
 12 30  1  0
 12 31  1  0
 13 32  1  0
 13 33  1  0
 15 34  1  0
 17 35  1  0
 19 36  1  0
M  END
>  <Energy>  (1615) 
67.735354173677521

>  <compound_id>  (1615) 
36117

>  <target_id>  (1615) 
1

>  <reference_id>  (1615) 
54

>  <inspiration_ids>  (1615) 
[45, 54]

>  <energy_score>  (1615) 
3.9235606857861285

>  <distance_score>  (1615) 
3.0626121772220407

>  <path>  (1615) 
/opt/xchem-fragalysis-2/maxwin/BulkDock/SCRATCH/511013/C36117-P54/C36117-P54.minimised.mol

>  <scratch_subdir>  (1615) 
/opt/xchem-fragalysis-2/maxwin/BulkDock/SCRATCH/511013/C36117-P54

>  <fragmenstein_runtime>  (1615) 
4.717887878417969

>  <fragmenstein_outcome>  (1615) 
too moved

>  <fragmenstein_mode>  (1615) 
expansion

>  <fragmenstein_error>  (1615) 


$$$$
C36118-P45
     RDKit          3D

 30 32  0  0  0  0  0  0  0  0999 V2000
   -8.8289  -29.1197   26.3030 C   0  0  0  0  0  0  0  0  0  0  0  0
   -7.6139  -28.2608   26.5192 C   0  0  0  0  0  0  0  0  0  0  0  0
   -6.3863  -28.7245   26.2386 C   0  0  0  0  0  0  0  0  0  0  0  0
   -5.1792  -27.9450   26.4541 C   0  0  0  0  0  0  0  0  0  0  0  0
   -5.2626  -26.6585   26.7948 C   0  0  0  0  0  0  0  0  0  0  0  0
   -6.5205  -26.1390   26.9734 N   0  0  0  0  0  0  0  0  0  0  0  0
   -6.8944  -24.8595   27.2646 C   0  0  0  0  0  0  0  0  0  0  0  0
   -8.2488  -24.9640   27.4673 C   0  0  0  0  0  0  0  0  0  0  0  0
   -9.2218  -24.0259   27.9781 C   0  0  0  0  0  0  0  0  0  0  0  0
  -10.4830  -24.1003   27.2494 O   0  0  0  0  0  0  0  0  0  0  0  0
  -11.3932  -23.6592   28.1593 C   0  0  0  0  0  0  0  0  0  0  0  0
  -11.6409  -22.3227   28.2538 C   0  0  0  0  0  0  0  0  0  0  0  0
  -11.9775  -21.7231   29.4028 N   0  0  0  0  0  0  0  0  0  0  0  0
  -12.0381  -22.5224   30.4663 C   0  0  0  0  0  0  0  0  0  0  0  0
  -11.9105  -23.8614   30.4578 N   0  0  0  0  0  0  0  0  0  0  0  0
  -11.6736  -24.4187   29.2582 C   0  0  0  0  0  0  0  0  0  0  0  0
   -8.7181  -26.2243   27.2951 N   0  0  0  0  0  0  0  0  0  0  0  0
   -7.6775  -26.9083   26.9334 C   0  0  0  0  0  0  0  0  0  0  0  0
   -9.3726  -29.2548   27.2413 H   0  0  0  0  0  0  0  0  0  0  0  0
   -9.5088  -28.6407   25.5949 H   0  0  0  0  0  0  0  0  0  0  0  0
   -8.5812  -30.1104   25.9103 H   0  0  0  0  0  0  0  0  0  0  0  0
   -6.2901  -29.7085   25.7992 H   0  0  0  0  0  0  0  0  0  0  0  0
   -4.2091  -28.3609   26.2638 H   0  0  0  0  0  0  0  0  0  0  0  0
   -4.4014  -26.0119   26.9029 H   0  0  0  0  0  0  0  0  0  0  0  0
   -6.1905  -24.0457   27.3591 H   0  0  0  0  0  0  0  0  0  0  0  0
   -9.3355  -24.3733   29.0125 H   0  0  0  0  0  0  0  0  0  0  0  0
   -8.8202  -23.0144   28.0273 H   0  0  0  0  0  0  0  0  0  0  0  0
  -11.4550  -21.6884   27.4013 H   0  0  0  0  0  0  0  0  0  0  0  0
  -12.2115  -22.0417   31.4233 H   0  0  0  0  0  0  0  0  0  0  0  0
  -11.5158  -25.4929   29.2375 H   0  0  0  0  0  0  0  0  0  0  0  0
  1  2  1  0
  2  3  2  0
  3  4  1  0
  4  5  2  0
  5  6  1  0
  6  7  1  0
  7  8  2  0
  8  9  1  0
  9 10  1  0
 10 11  1  0
 11 12  2  0
 12 13  1  0
 13 14  2  0
 14 15  1  0
 15 16  2  0
  8 17  1  0
 17 18  2  0
 18  2  1  0
 18  6  1  0
 16 11  1  0
  1 19  1  0
  1 20  1  0
  1 21  1  0
  3 22  1  0
  4 23  1  0
  5 24  1  0
  7 25  1  0
  9 26  1  0
  9 27  1  0
 12 28  1  0
 14 29  1  0
 16 30  1  0
M  END
>  <Energy>  (1616) 
88.354310362987178

>  <compound_id>  (1616) 
36118

>  <target_id>  (1616) 
1

>  <reference_id>  (1616) 
45

>  <inspiration_ids>  (1616) 
[45, 54]

>  <energy_score>  (1616) 
-5.3331532882265265

>  <distance_score>  (1616) 
1.4128840061021661

>  <path>  (1616) 
/opt/xchem-fragalysis-2/maxwin/BulkDock/SCRATCH/511013/C36118-P45/C36118-P45.minimised.mol

>  <scratch_subdir>  (1616) 
/opt/xchem-fragalysis-2/maxwin/BulkDock/SCRATCH/511013/C36118-P45

>  <fragmenstein_runtime>  (1616) 
1.7538511753082275

>  <fragmenstein_outcome>  (1616) 
too moved

>  <fragmenstein_mode>  (1616) 
expansion

>  <fragmenstein_error>  (1616) 


$$$$
C36118-P54
     RDKit          3D

 30 32  0  0  0  0  0  0  0  0999 V2000
  -12.4688  -28.5358   28.0294 C   0  0  0  0  0  0  0  0  0  0  0  0
  -11.0264  -28.2671   27.6936 C   0  0  0  0  0  0  0  0  0  0  0  0
  -10.0899  -29.2270   27.8597 C   0  0  0  0  0  0  0  0  0  0  0  0
   -8.7022  -29.0205   27.4966 C   0  0  0  0  0  0  0  0  0  0  0  0
   -8.2847  -27.7951   27.1688 C   0  0  0  0  0  0  0  0  0  0  0  0
   -9.2167  -26.7866   27.1873 N   0  0  0  0  0  0  0  0  0  0  0  0
   -9.1140  -25.4511   27.4295 C   0  0  0  0  0  0  0  0  0  0  0  0
  -10.2659  -24.9326   26.8840 C   0  0  0  0  0  0  0  0  0  0  0  0
  -10.6746  -23.5276   26.6037 C   0  0  0  0  0  0  0  0  0  0  0  0
  -11.9409  -23.2078   27.2046 O   0  0  0  0  0  0  0  0  0  0  0  0
  -11.7111  -23.0600   28.5380 C   0  0  0  0  0  0  0  0  0  0  0  0
  -11.3086  -21.8547   29.0596 C   0  0  0  0  0  0  0  0  0  0  0  0
  -10.9149  -21.7154   30.3356 N   0  0  0  0  0  0  0  0  0  0  0  0
  -10.9298  -22.8363   31.0796 C   0  0  0  0  0  0  0  0  0  0  0  0
  -11.3104  -24.0625   30.6770 N   0  0  0  0  0  0  0  0  0  0  0  0
  -11.7390  -24.1326   29.4048 C   0  0  0  0  0  0  0  0  0  0  0  0
  -11.1978  -25.9341   26.7940 N   0  0  0  0  0  0  0  0  0  0  0  0
  -10.5714  -27.0074   27.2111 C   0  0  0  0  0  0  0  0  0  0  0  0
  -12.8064  -27.8538   28.8168 H   0  0  0  0  0  0  0  0  0  0  0  0
  -13.0984  -28.3829   27.1466 H   0  0  0  0  0  0  0  0  0  0  0  0
  -12.6292  -29.5603   28.3815 H   0  0  0  0  0  0  0  0  0  0  0  0
  -10.3644  -30.2161   28.2126 H   0  0  0  0  0  0  0  0  0  0  0  0
   -8.0459  -29.8749   27.4996 H   0  0  0  0  0  0  0  0  0  0  0  0
   -7.2612  -27.5469   26.9393 H   0  0  0  0  0  0  0  0  0  0  0  0
   -8.2461  -25.0236   27.9012 H   0  0  0  0  0  0  0  0  0  0  0  0
  -10.7833  -23.3849   25.5261 H   0  0  0  0  0  0  0  0  0  0  0  0
   -9.8966  -22.8267   26.9290 H   0  0  0  0  0  0  0  0  0  0  0  0
  -11.2492  -20.9593   28.4469 H   0  0  0  0  0  0  0  0  0  0  0  0
  -10.6115  -22.7363   32.1119 H   0  0  0  0  0  0  0  0  0  0  0  0
  -12.0733  -25.1115   29.0785 H   0  0  0  0  0  0  0  0  0  0  0  0
  1  2  1  0
  2  3  2  0
  3  4  1  0
  4  5  2  0
  5  6  1  0
  6  7  1  0
  7  8  2  0
  8  9  1  0
  9 10  1  0
 10 11  1  0
 11 12  2  0
 12 13  1  0
 13 14  2  0
 14 15  1  0
 15 16  2  0
  8 17  1  0
 17 18  2  0
 18  2  1  0
 18  6  1  0
 16 11  1  0
  1 19  1  0
  1 20  1  0
  1 21  1  0
  3 22  1  0
  4 23  1  0
  5 24  1  0
  7 25  1  0
  9 26  1  0
  9 27  1  0
 12 28  1  0
 14 29  1  0
 16 30  1  0
M  END
>  <Energy>  (1617) 
85.155520355945384

>  <compound_id>  (1617) 
36118

>  <target_id>  (1617) 
1

>  <reference_id>  (1617) 
54

>  <inspiration_ids>  (1617) 
[45, 54]

>  <energy_score>  (1617) 
-8.531943295268889

>  <distance_score>  (1617) 
2.6696291616114878

>  <path>  (1617) 
/opt/xchem-fragalysis-2/maxwin/BulkDock/SCRATCH/511013/C36118-P54/C36118-P54.minimised.mol

>  <scratch_subdir>  (1617) 
/opt/xchem-fragalysis-2/maxwin/BulkDock/SCRATCH/511013/C36118-P54

>  <fragmenstein_runtime>  (1617) 
2.5891740322113037

>  <fragmenstein_outcome>  (1617) 
too moved

>  <fragmenstein_mode>  (1617) 
expansion

>  <fragmenstein_error>  (1617) 


$$$$
C36119-P45
     RDKit          3D

 34 36  0  0  0  0  0  0  0  0999 V2000
  -10.3462  -28.8039   27.1789 C   0  0  0  0  0  0  0  0  0  0  0  0
   -8.8872  -28.5676   26.9120 C   0  0  0  0  0  0  0  0  0  0  0  0
   -8.1668  -29.4489   26.1959 C   0  0  0  0  0  0  0  0  0  0  0  0
   -6.7694  -29.2245   25.8859 C   0  0  0  0  0  0  0  0  0  0  0  0
   -6.1417  -28.1115   26.2889 C   0  0  0  0  0  0  0  0  0  0  0  0
   -6.8991  -27.1672   26.9368 N   0  0  0  0  0  0  0  0  0  0  0  0
   -6.6473  -25.8373   27.1550 C   0  0  0  0  0  0  0  0  0  0  0  0
   -7.8541  -25.3843   27.6470 C   0  0  0  0  0  0  0  0  0  0  0  0
   -8.5128  -24.1128   27.4102 C   0  0  0  0  0  0  0  0  0  0  0  0
   -9.5855  -24.3998   26.4285 N   0  0  0  0  0  0  0  0  0  0  0  0
  -10.9272  -24.7265   26.8681 C   0  0  0  0  0  0  0  0  0  0  0  0
  -11.3234  -24.0123   28.1008 C   0  0  0  0  0  0  0  0  0  0  0  0
  -11.2077  -24.6230   29.3220 C   0  0  0  0  0  0  0  0  0  0  0  0
  -11.4040  -23.9937   30.4950 N   0  0  0  0  0  0  0  0  0  0  0  0
  -11.7287  -22.6932   30.4033 C   0  0  0  0  0  0  0  0  0  0  0  0
  -11.8667  -21.9949   29.2752 N   0  0  0  0  0  0  0  0  0  0  0  0
  -11.6392  -22.6767   28.1394 C   0  0  0  0  0  0  0  0  0  0  0  0
   -8.6663  -26.3986   28.0399 N   0  0  0  0  0  0  0  0  0  0  0  0
   -8.2068  -27.3980   27.3438 C   0  0  0  0  0  0  0  0  0  0  0  0
  -10.6311  -28.4388   28.1705 H   0  0  0  0  0  0  0  0  0  0  0  0
  -10.6035  -29.8666   27.1350 H   0  0  0  0  0  0  0  0  0  0  0  0
  -10.9508  -28.2556   26.4500 H   0  0  0  0  0  0  0  0  0  0  0  0
   -8.6102  -30.3622   25.8094 H   0  0  0  0  0  0  0  0  0  0  0  0
   -6.2942  -29.9620   25.2578 H   0  0  0  0  0  0  0  0  0  0  0  0
   -5.1168  -27.8682   26.0425 H   0  0  0  0  0  0  0  0  0  0  0  0
   -5.7817  -25.3440   26.7369 H   0  0  0  0  0  0  0  0  0  0  0  0
   -8.8475  -23.6369   28.3251 H   0  0  0  0  0  0  0  0  0  0  0  0
   -7.7625  -23.4440   26.9750 H   0  0  0  0  0  0  0  0  0  0  0  0
   -9.2628  -25.0989   25.7657 H   0  0  0  0  0  0  0  0  0  0  0  0
  -11.0282  -25.8081   27.0107 H   0  0  0  0  0  0  0  0  0  0  0  0
  -11.6310  -24.4786   26.0641 H   0  0  0  0  0  0  0  0  0  0  0  0
  -10.8874  -25.6602   29.3967 H   0  0  0  0  0  0  0  0  0  0  0  0
  -11.8767  -22.1516   31.3314 H   0  0  0  0  0  0  0  0  0  0  0  0
  -11.6699  -22.0915   27.2274 H   0  0  0  0  0  0  0  0  0  0  0  0
  1  2  1  0
  2  3  2  0
  3  4  1  0
  4  5  2  0
  5  6  1  0
  6  7  1  0
  7  8  2  0
  8  9  1  0
  9 10  1  0
 10 11  1  0
 11 12  1  0
 12 13  2  0
 13 14  1  0
 14 15  2  0
 15 16  1  0
 16 17  2  0
  8 18  1  0
 18 19  2  0
 19  2  1  0
 19  6  1  0
 17 12  1  0
  1 20  1  0
  1 21  1  0
  1 22  1  0
  3 23  1  0
  4 24  1  0
  5 25  1  0
  7 26  1  0
  9 27  1  0
  9 28  1  0
 10 29  1  0
 11 30  1  0
 11 31  1  0
 13 32  1  0
 15 33  1  0
 17 34  1  0
M  END
>  <Energy>  (1618) 
49.400876564569423

>  <compound_id>  (1618) 
36119

>  <target_id>  (1618) 
1

>  <reference_id>  (1618) 
45

>  <inspiration_ids>  (1618) 
[45, 54]

>  <energy_score>  (1618) 
-2.1709007458543965

>  <distance_score>  (1618) 
1.3398712742691041

>  <path>  (1618) 
/opt/xchem-fragalysis-2/maxwin/BulkDock/SCRATCH/511013/C36119-P45/C36119-P45.minimised.mol

>  <scratch_subdir>  (1618) 
/opt/xchem-fragalysis-2/maxwin/BulkDock/SCRATCH/511013/C36119-P45

>  <fragmenstein_runtime>  (1618) 
1.6126031875610352

>  <fragmenstein_outcome>  (1618) 
too moved

>  <fragmenstein_mode>  (1618) 
expansion

>  <fragmenstein_error>  (1618) 


$$$$
C36119-P54
     RDKit          3D

 34 36  0  0  0  0  0  0  0  0999 V2000
  -12.2999  -26.5415   26.2098 C   0  0  0  0  0  0  0  0  0  0  0  0
  -10.8422  -26.5811   26.5607 C   0  0  0  0  0  0  0  0  0  0  0  0
  -10.0675  -27.5902   26.1511 C   0  0  0  0  0  0  0  0  0  0  0  0
   -8.7307  -27.8759   26.5487 C   0  0  0  0  0  0  0  0  0  0  0  0
   -8.1223  -26.8780   27.1664 C   0  0  0  0  0  0  0  0  0  0  0  0
   -8.8374  -25.7595   27.5652 N   0  0  0  0  0  0  0  0  0  0  0  0
   -8.5222  -24.6914   28.3607 C   0  0  0  0  0  0  0  0  0  0  0  0
   -9.4613  -23.7357   28.0417 C   0  0  0  0  0  0  0  0  0  0  0  0
   -9.5325  -22.3550   28.5423 C   0  0  0  0  0  0  0  0  0  0  0  0
  -10.7799  -21.6290   28.3763 N   0  0  0  0  0  0  0  0  0  0  0  0
  -12.0135  -22.3743   28.5416 C   0  0  0  0  0  0  0  0  0  0  0  0
  -12.0062  -23.5634   29.4259 C   0  0  0  0  0  0  0  0  0  0  0  0
  -12.6440  -24.7275   29.0649 C   0  0  0  0  0  0  0  0  0  0  0  0
  -12.4790  -25.8937   29.7064 N   0  0  0  0  0  0  0  0  0  0  0  0
  -11.6082  -25.8615   30.7173 C   0  0  0  0  0  0  0  0  0  0  0  0
  -11.0029  -24.7774   31.2106 N   0  0  0  0  0  0  0  0  0  0  0  0
  -11.2775  -23.6253   30.5869 C   0  0  0  0  0  0  0  0  0  0  0  0
  -10.4086  -24.2534   27.2114 N   0  0  0  0  0  0  0  0  0  0  0  0
  -10.1333  -25.5291   27.1676 C   0  0  0  0  0  0  0  0  0  0  0  0
  -12.8990  -26.7528   27.0997 H   0  0  0  0  0  0  0  0  0  0  0  0
  -12.5720  -27.3133   25.4884 H   0  0  0  0  0  0  0  0  0  0  0  0
  -12.6008  -25.5671   25.8207 H   0  0  0  0  0  0  0  0  0  0  0  0
  -10.3595  -28.0074   25.2242 H   0  0  0  0  0  0  0  0  0  0  0  0
   -8.1540  -28.7010   26.1509 H   0  0  0  0  0  0  0  0  0  0  0  0
   -7.0532  -26.8981   27.1886 H   0  0  0  0  0  0  0  0  0  0  0  0
   -7.6369  -24.6504   28.9721 H   0  0  0  0  0  0  0  0  0  0  0  0
   -9.2802  -22.3961   29.6032 H   0  0  0  0  0  0  0  0  0  0  0  0
   -8.7614  -21.7796   28.0450 H   0  0  0  0  0  0  0  0  0  0  0  0
  -10.7974  -21.2039   27.4486 H   0  0  0  0  0  0  0  0  0  0  0  0
  -12.3959  -22.6368   27.5491 H   0  0  0  0  0  0  0  0  0  0  0  0
  -12.6861  -21.6667   29.0245 H   0  0  0  0  0  0  0  0  0  0  0  0
  -13.2919  -24.7589   28.1953 H   0  0  0  0  0  0  0  0  0  0  0  0
  -11.4238  -26.8032   31.2174 H   0  0  0  0  0  0  0  0  0  0  0  0
  -10.8295  -22.7428   31.0334 H   0  0  0  0  0  0  0  0  0  0  0  0
  1  2  1  0
  2  3  2  0
  3  4  1  0
  4  5  2  0
  5  6  1  0
  6  7  1  0
  7  8  2  0
  8  9  1  0
  9 10  1  0
 10 11  1  0
 11 12  1  0
 12 13  2  0
 13 14  1  0
 14 15  2  0
 15 16  1  0
 16 17  2  0
  8 18  1  0
 18 19  2  0
 19  2  1  0
 19  6  1  0
 17 12  1  0
  1 20  1  0
  1 21  1  0
  1 22  1  0
  3 23  1  0
  4 24  1  0
  5 25  1  0
  7 26  1  0
  9 27  1  0
  9 28  1  0
 10 29  1  0
 11 30  1  0
 11 31  1  0
 13 32  1  0
 15 33  1  0
 17 34  1  0
M  END
>  <Energy>  (1619) 
71.155306210336121

>  <compound_id>  (1619) 
36119

>  <target_id>  (1619) 
1

>  <reference_id>  (1619) 
54

>  <inspiration_ids>  (1619) 
[45, 54]

>  <energy_score>  (1619) 
19.583528899910647

>  <distance_score>  (1619) 
2.830622417155534

>  <path>  (1619) 
/opt/xchem-fragalysis-2/maxwin/BulkDock/SCRATCH/511013/C36119-P54/C36119-P54.minimised.mol

>  <scratch_subdir>  (1619) 
/opt/xchem-fragalysis-2/maxwin/BulkDock/SCRATCH/511013/C36119-P54

>  <fragmenstein_runtime>  (1619) 
2.4986109733581543

>  <fragmenstein_outcome>  (1619) 
too moved

>  <fragmenstein_mode>  (1619) 
expansion

>  <fragmenstein_error>  (1619) 


$$$$
C36120-P45
     RDKit          3D

 36 38  0  0  0  0  0  0  0  0999 V2000
  -10.2995  -27.4401   29.1961 O   0  0  0  0  0  0  0  0  0  0  0  0
  -10.3123  -26.8156   28.1753 C   0  0  0  0  0  0  0  0  0  0  0  0
  -11.3055  -27.1839   27.0747 C   0  0  0  0  0  0  0  0  0  0  0  0
  -12.0868  -25.9495   26.5593 C   0  0  0  0  0  0  0  0  0  0  0  0
  -12.1482  -24.7967   27.5332 C   0  0  0  0  0  0  0  0  0  0  0  0
  -12.2954  -24.9677   28.8990 C   0  0  0  0  0  0  0  0  0  0  0  0
  -12.0498  -24.0209   29.8289 N   0  0  0  0  0  0  0  0  0  0  0  0
  -11.8101  -22.7990   29.3406 C   0  0  0  0  0  0  0  0  0  0  0  0
  -11.7818  -22.4791   28.0432 N   0  0  0  0  0  0  0  0  0  0  0  0
  -11.9227  -23.4892   27.1630 C   0  0  0  0  0  0  0  0  0  0  0  0
   -9.5770  -25.6352   27.7832 N   0  0  0  0  0  0  0  0  0  0  0  0
   -8.5664  -24.6869   28.6150 S   0  0  0  0  0  0  0  0  0  0  0  0
   -8.9365  -23.3360   28.2794 O   0  0  0  0  0  0  0  0  0  0  0  0
   -8.4410  -25.1565   29.9606 O   0  0  0  0  0  0  0  0  0  0  0  0
   -6.9753  -24.7749   27.7170 C   0  0  0  0  0  0  0  0  0  0  0  0
   -7.1099  -24.3557   26.4129 C   0  0  0  0  0  0  0  0  0  0  0  0
   -7.9480  -25.3423   25.8899 N   0  0  0  0  0  0  0  0  0  0  0  0
   -7.4668  -26.4452   26.4715 C   0  0  0  0  0  0  0  0  0  0  0  0
   -7.5500  -27.8400   26.2805 C   0  0  0  0  0  0  0  0  0  0  0  0
   -6.3913  -28.5106   26.3644 C   0  0  0  0  0  0  0  0  0  0  0  0
   -5.1555  -27.8325   26.7491 C   0  0  0  0  0  0  0  0  0  0  0  0
   -5.2109  -26.5840   27.2380 C   0  0  0  0  0  0  0  0  0  0  0  0
   -6.4574  -25.9873   27.2813 N   0  0  0  0  0  0  0  0  0  0  0  0
  -10.7834  -27.6824   26.2530 H   0  0  0  0  0  0  0  0  0  0  0  0
  -12.0152  -27.9065   27.4963 H   0  0  0  0  0  0  0  0  0  0  0  0
  -13.0832  -26.2758   26.2512 H   0  0  0  0  0  0  0  0  0  0  0  0
  -11.5995  -25.6037   25.6372 H   0  0  0  0  0  0  0  0  0  0  0  0
  -12.5896  -25.9314   29.3061 H   0  0  0  0  0  0  0  0  0  0  0  0
  -11.6301  -21.9979   30.0480 H   0  0  0  0  0  0  0  0  0  0  0  0
  -11.8331  -23.1954   26.1217 H   0  0  0  0  0  0  0  0  0  0  0  0
   -9.7775  -25.4259   26.8075 H   0  0  0  0  0  0  0  0  0  0  0  0
   -7.0799  -23.3484   26.0549 H   0  0  0  0  0  0  0  0  0  0  0  0
   -8.4508  -28.3239   25.9291 H   0  0  0  0  0  0  0  0  0  0  0  0
   -6.3741  -29.5504   26.0647 H   0  0  0  0  0  0  0  0  0  0  0  0
   -4.2092  -28.3240   26.6203 H   0  0  0  0  0  0  0  0  0  0  0  0
   -4.3514  -26.0003   27.5354 H   0  0  0  0  0  0  0  0  0  0  0  0
  1  2  2  0
  2  3  1  0
  3  4  1  0
  4  5  1  0
  5  6  2  0
  6  7  1  0
  7  8  2  0
  8  9  1  0
  9 10  2  0
  2 11  1  0
 11 12  1  0
 12 13  2  0
 12 14  2  0
 12 15  1  0
 15 16  2  0
 16 17  1  0
 17 18  2  0
 18 19  1  0
 19 20  2  0
 20 21  1  0
 21 22  2  0
 22 23  1  0
 10  5  1  0
 23 15  1  0
 23 18  1  0
  3 24  1  0
  3 25  1  0
  4 26  1  0
  4 27  1  0
  6 28  1  0
  8 29  1  0
 10 30  1  0
 11 31  1  0
 16 32  1  0
 19 33  1  0
 20 34  1  0
 21 35  1  0
 22 36  1  0
M  END
>  <Energy>  (1620) 
-14.520157138245967

>  <compound_id>  (1620) 
36120

>  <target_id>  (1620) 
1

>  <reference_id>  (1620) 
45

>  <inspiration_ids>  (1620) 
[45, 54]

>  <energy_score>  (1620) 
88.1786843744417

>  <distance_score>  (1620) 
1.4590529572206818

>  <path>  (1620) 
/opt/xchem-fragalysis-2/maxwin/BulkDock/SCRATCH/511013/C36120-P45/C36120-P45.minimised.mol

>  <scratch_subdir>  (1620) 
/opt/xchem-fragalysis-2/maxwin/BulkDock/SCRATCH/511013/C36120-P45

>  <fragmenstein_runtime>  (1620) 
7.185949325561523

>  <fragmenstein_outcome>  (1620) 
too moved

>  <fragmenstein_mode>  (1620) 
expansion

>  <fragmenstein_error>  (1620) 


$$$$
C36120-P54
     RDKit          3D

 36 38  0  0  0  0  0  0  0  0999 V2000
  -10.5673  -25.1252   25.9001 O   0  0  0  0  0  0  0  0  0  0  0  0
  -10.4529  -24.0232   26.2912 C   0  0  0  0  0  0  0  0  0  0  0  0
  -11.0800  -22.9174   25.5421 C   0  0  0  0  0  0  0  0  0  0  0  0
  -12.5103  -22.9762   26.0427 C   0  0  0  0  0  0  0  0  0  0  0  0
  -12.4127  -22.6943   27.5214 C   0  0  0  0  0  0  0  0  0  0  0  0
  -12.7939  -23.6223   28.4487 C   0  0  0  0  0  0  0  0  0  0  0  0
  -12.5638  -23.4359   29.7494 N   0  0  0  0  0  0  0  0  0  0  0  0
  -11.9813  -22.2914   30.1533 C   0  0  0  0  0  0  0  0  0  0  0  0
  -11.6200  -21.3000   29.3474 N   0  0  0  0  0  0  0  0  0  0  0  0
  -11.8425  -21.5279   28.0498 C   0  0  0  0  0  0  0  0  0  0  0  0
   -9.7906  -23.4723   27.6136 N   0  0  0  0  0  0  0  0  0  0  0  0
   -9.1702  -24.2548   28.8724 S   0  0  0  0  0  0  0  0  0  0  0  0
   -7.8356  -24.7109   28.6513 O   0  0  0  0  0  0  0  0  0  0  0  0
   -9.5187  -23.5802   30.0969 O   0  0  0  0  0  0  0  0  0  0  0  0
  -10.2176  -25.6302   28.7452 C   0  0  0  0  0  0  0  0  0  0  0  0
  -11.2554  -26.0278   29.5476 C   0  0  0  0  0  0  0  0  0  0  0  0
  -11.7218  -27.2533   29.2053 N   0  0  0  0  0  0  0  0  0  0  0  0
  -10.8313  -27.7140   28.3641 C   0  0  0  0  0  0  0  0  0  0  0  0
  -10.4123  -29.0505   28.1767 C   0  0  0  0  0  0  0  0  0  0  0  0
   -9.2040  -29.2714   27.6441 C   0  0  0  0  0  0  0  0  0  0  0  0
   -8.4887  -28.2497   26.9275 C   0  0  0  0  0  0  0  0  0  0  0  0
   -8.8882  -26.9918   27.1000 C   0  0  0  0  0  0  0  0  0  0  0  0
   -9.9949  -26.7143   27.8956 N   0  0  0  0  0  0  0  0  0  0  0  0
  -10.6780  -22.0354   25.9512 H   0  0  0  0  0  0  0  0  0  0  0  0
  -10.9221  -22.9069   24.4717 H   0  0  0  0  0  0  0  0  0  0  0  0
  -12.9728  -23.9568   25.8735 H   0  0  0  0  0  0  0  0  0  0  0  0
  -13.1396  -22.2550   25.5246 H   0  0  0  0  0  0  0  0  0  0  0  0
  -13.2729  -24.5594   28.1800 H   0  0  0  0  0  0  0  0  0  0  0  0
  -11.7833  -22.1744   31.2133 H   0  0  0  0  0  0  0  0  0  0  0  0
  -11.4928  -20.7182   27.4133 H   0  0  0  0  0  0  0  0  0  0  0  0
   -9.7919  -22.4586   27.5978 H   0  0  0  0  0  0  0  0  0  0  0  0
  -11.6582  -25.5017   30.4019 H   0  0  0  0  0  0  0  0  0  0  0  0
  -10.9791  -29.8404   28.6532 H   0  0  0  0  0  0  0  0  0  0  0  0
   -8.7475  -30.2487   27.6855 H   0  0  0  0  0  0  0  0  0  0  0  0
   -7.6208  -28.5060   26.3353 H   0  0  0  0  0  0  0  0  0  0  0  0
   -8.3115  -26.1647   26.7694 H   0  0  0  0  0  0  0  0  0  0  0  0
  1  2  2  0
  2  3  1  0
  3  4  1  0
  4  5  1  0
  5  6  2  0
  6  7  1  0
  7  8  2  0
  8  9  1  0
  9 10  2  0
  2 11  1  0
 11 12  1  0
 12 13  2  0
 12 14  2  0
 12 15  1  0
 15 16  2  0
 16 17  1  0
 17 18  2  0
 18 19  1  0
 19 20  2  0
 20 21  1  0
 21 22  2  0
 22 23  1  0
 10  5  1  0
 23 15  1  0
 23 18  1  0
  3 24  1  0
  3 25  1  0
  4 26  1  0
  4 27  1  0
  6 28  1  0
  8 29  1  0
 10 30  1  0
 11 31  1  0
 16 32  1  0
 19 33  1  0
 20 34  1  0
 21 35  1  0
 22 36  1  0
M  END
>  <Energy>  (1621) 
-71.300805524491096

>  <compound_id>  (1621) 
36120

>  <target_id>  (1621) 
1

>  <reference_id>  (1621) 
54

>  <inspiration_ids>  (1621) 
[45, 54]

>  <energy_score>  (1621) 
32.59631205403605

>  <distance_score>  (1621) 
3.0547738877141155

>  <path>  (1621) 
/opt/xchem-fragalysis-2/maxwin/BulkDock/SCRATCH/511013/C36120-P54/C36120-P54.minimised.mol

>  <scratch_subdir>  (1621) 
/opt/xchem-fragalysis-2/maxwin/BulkDock/SCRATCH/511013/C36120-P54

>  <fragmenstein_runtime>  (1621) 
3.0245249271392822

>  <fragmenstein_outcome>  (1621) 
too moved

>  <fragmenstein_mode>  (1621) 
expansion

>  <fragmenstein_error>  (1621) 


$$$$
C36121-P45
     RDKit          3D

 32 34  0  0  0  0  0  0  0  0999 V2000
   -5.2755  -26.5341   26.7066 C   0  0  0  0  0  0  0  0  0  0  0  0
   -6.2390  -25.4886   27.1121 C   0  0  0  0  0  0  0  0  0  0  0  0
   -6.0573  -24.2278   27.6530 C   0  0  0  0  0  0  0  0  0  0  0  0
   -7.1588  -23.8635   28.3922 N   0  0  0  0  0  0  0  0  0  0  0  0
   -7.9658  -24.8923   28.2894 C   0  0  0  0  0  0  0  0  0  0  0  0
   -8.9404  -25.4879   29.1484 C   0  0  0  0  0  0  0  0  0  0  0  0
   -9.3531  -26.7595   28.9181 C   0  0  0  0  0  0  0  0  0  0  0  0
   -9.0001  -27.4627   27.6785 C   0  0  0  0  0  0  0  0  0  0  0  0
   -8.5227  -26.6186   26.7378 C   0  0  0  0  0  0  0  0  0  0  0  0
   -9.7227  -25.8724   26.1460 C   0  0  0  0  0  0  0  0  0  0  0  0
   -9.5788  -24.8372   25.5150 O   0  0  0  0  0  0  0  0  0  0  0  0
  -10.9449  -26.3966   26.4133 O   0  0  0  0  0  0  0  0  0  0  0  0
  -11.9648  -25.3963   26.3182 C   0  0  0  0  0  0  0  0  0  0  0  0
  -11.9134  -24.5250   27.5359 C   0  0  0  0  0  0  0  0  0  0  0  0
  -11.7030  -23.1661   27.5001 C   0  0  0  0  0  0  0  0  0  0  0  0
  -11.5986  -22.3852   28.5943 N   0  0  0  0  0  0  0  0  0  0  0  0
  -11.6674  -23.0055   29.7696 C   0  0  0  0  0  0  0  0  0  0  0  0
  -11.8431  -24.3224   29.9408 N   0  0  0  0  0  0  0  0  0  0  0  0
  -12.0208  -25.0372   28.8069 C   0  0  0  0  0  0  0  0  0  0  0  0
   -7.6056  -25.6633   27.2015 N   0  0  0  0  0  0  0  0  0  0  0  0
   -5.7154  -27.2739   26.0371 H   0  0  0  0  0  0  0  0  0  0  0  0
   -4.9500  -27.0995   27.5821 H   0  0  0  0  0  0  0  0  0  0  0  0
   -4.3757  -26.0946   26.2715 H   0  0  0  0  0  0  0  0  0  0  0  0
   -5.1456  -23.6509   27.7105 H   0  0  0  0  0  0  0  0  0  0  0  0
   -9.2275  -24.9760   30.0568 H   0  0  0  0  0  0  0  0  0  0  0  0
  -10.0367  -27.2424   29.6096 H   0  0  0  0  0  0  0  0  0  0  0  0
   -9.7026  -28.2528   27.4122 H   0  0  0  0  0  0  0  0  0  0  0  0
  -12.9039  -25.9491   26.2720 H   0  0  0  0  0  0  0  0  0  0  0  0
  -11.9063  -24.8271   25.3818 H   0  0  0  0  0  0  0  0  0  0  0  0
  -11.6261  -22.6357   26.5580 H   0  0  0  0  0  0  0  0  0  0  0  0
  -11.5709  -22.3892   30.6561 H   0  0  0  0  0  0  0  0  0  0  0  0
  -12.2325  -26.0912   28.9654 H   0  0  0  0  0  0  0  0  0  0  0  0
  1  2  1  0
  2  3  2  0
  3  4  1  0
  4  5  2  0
  5  6  1  0
  6  7  2  0
  7  8  1  0
  8  9  2  0
  9 10  1  0
 10 11  2  0
 10 12  1  0
 12 13  1  0
 13 14  1  0
 14 15  2  0
 15 16  1  0
 16 17  2  0
 17 18  1  0
 18 19  2  0
  9 20  1  0
 20  2  1  0
 20  5  1  0
 19 14  1  0
  1 21  1  0
  1 22  1  0
  1 23  1  0
  3 24  1  0
  6 25  1  0
  7 26  1  0
  8 27  1  0
 13 28  1  0
 13 29  1  0
 15 30  1  0
 17 31  1  0
 19 32  1  0
M  END
>  <Energy>  (1622) 
91.282605073417173

>  <compound_id>  (1622) 
36121

>  <target_id>  (1622) 
1

>  <reference_id>  (1622) 
45

>  <inspiration_ids>  (1622) 
[45, 54]

>  <energy_score>  (1622) 
46.49625813780551

>  <distance_score>  (1622) 
2.0646246350060227

>  <path>  (1622) 
/opt/xchem-fragalysis-2/maxwin/BulkDock/SCRATCH/511013/C36121-P45/C36121-P45.minimised.mol

>  <scratch_subdir>  (1622) 
/opt/xchem-fragalysis-2/maxwin/BulkDock/SCRATCH/511013/C36121-P45

>  <fragmenstein_runtime>  (1622) 
1.9746100902557373

>  <fragmenstein_outcome>  (1622) 
too moved

>  <fragmenstein_mode>  (1622) 
expansion

>  <fragmenstein_error>  (1622) 


$$$$
C36121-P54
     RDKit          3D

 32 34  0  0  0  0  0  0  0  0999 V2000
  -11.2832  -23.3782   26.2916 C   0  0  0  0  0  0  0  0  0  0  0  0
  -10.3228  -24.2294   27.0286 C   0  0  0  0  0  0  0  0  0  0  0  0
   -9.3667  -23.8555   27.9524 C   0  0  0  0  0  0  0  0  0  0  0  0
   -8.5291  -24.8981   28.2107 N   0  0  0  0  0  0  0  0  0  0  0  0
   -8.9468  -25.8733   27.4290 C   0  0  0  0  0  0  0  0  0  0  0  0
   -8.4519  -27.1799   27.1901 C   0  0  0  0  0  0  0  0  0  0  0  0
   -9.3207  -28.1898   27.2461 C   0  0  0  0  0  0  0  0  0  0  0  0
  -10.7328  -27.9057   27.1862 C   0  0  0  0  0  0  0  0  0  0  0  0
  -11.1535  -26.6510   26.9033 C   0  0  0  0  0  0  0  0  0  0  0  0
  -12.5765  -26.4920   26.6162 C   0  0  0  0  0  0  0  0  0  0  0  0
  -12.9973  -26.6983   25.4820 O   0  0  0  0  0  0  0  0  0  0  0  0
  -13.3968  -26.1394   27.6286 O   0  0  0  0  0  0  0  0  0  0  0  0
  -12.9952  -26.2131   29.0069 C   0  0  0  0  0  0  0  0  0  0  0  0
  -12.2949  -24.9786   29.4549 C   0  0  0  0  0  0  0  0  0  0  0  0
  -12.6761  -23.7143   29.0650 C   0  0  0  0  0  0  0  0  0  0  0  0
  -12.1428  -22.5730   29.5410 N   0  0  0  0  0  0  0  0  0  0  0  0
  -11.1930  -22.7324   30.4746 C   0  0  0  0  0  0  0  0  0  0  0  0
  -10.7254  -23.9087   30.9194 N   0  0  0  0  0  0  0  0  0  0  0  0
  -11.2840  -25.0081   30.3862 C   0  0  0  0  0  0  0  0  0  0  0  0
  -10.2317  -25.6091   27.0179 N   0  0  0  0  0  0  0  0  0  0  0  0
  -10.8671  -23.1235   25.3133 H   0  0  0  0  0  0  0  0  0  0  0  0
  -12.2542  -23.8545   26.1495 H   0  0  0  0  0  0  0  0  0  0  0  0
  -11.4485  -22.4300   26.8130 H   0  0  0  0  0  0  0  0  0  0  0  0
   -9.1974  -22.8708   28.3690 H   0  0  0  0  0  0  0  0  0  0  0  0
   -7.3907  -27.3689   27.1216 H   0  0  0  0  0  0  0  0  0  0  0  0
   -8.9442  -29.2000   27.2944 H   0  0  0  0  0  0  0  0  0  0  0  0
  -11.4254  -28.7326   27.3002 H   0  0  0  0  0  0  0  0  0  0  0  0
  -12.4074  -27.1180   29.1930 H   0  0  0  0  0  0  0  0  0  0  0  0
  -13.9142  -26.3239   29.5943 H   0  0  0  0  0  0  0  0  0  0  0  0
  -13.4711  -23.5994   28.3372 H   0  0  0  0  0  0  0  0  0  0  0  0
  -10.7630  -21.8344   30.9036 H   0  0  0  0  0  0  0  0  0  0  0  0
  -10.8935  -25.9410   30.7761 H   0  0  0  0  0  0  0  0  0  0  0  0
  1  2  1  0
  2  3  2  0
  3  4  1  0
  4  5  2  0
  5  6  1  0
  6  7  2  0
  7  8  1  0
  8  9  2  0
  9 10  1  0
 10 11  2  0
 10 12  1  0
 12 13  1  0
 13 14  1  0
 14 15  2  0
 15 16  1  0
 16 17  2  0
 17 18  1  0
 18 19  2  0
  9 20  1  0
 20  2  1  0
 20  5  1  0
 19 14  1  0
  1 21  1  0
  1 22  1  0
  1 23  1  0
  3 24  1  0
  6 25  1  0
  7 26  1  0
  8 27  1  0
 13 28  1  0
 13 29  1  0
 15 30  1  0
 17 31  1  0
 19 32  1  0
M  END
>  <Energy>  (1623) 
43.438315738467168

>  <compound_id>  (1623) 
36121

>  <target_id>  (1623) 
1

>  <reference_id>  (1623) 
54

>  <inspiration_ids>  (1623) 
[45, 54]

>  <energy_score>  (1623) 
-1.3480311971463266

>  <distance_score>  (1623) 
2.87715205775914

>  <path>  (1623) 
/opt/xchem-fragalysis-2/maxwin/BulkDock/SCRATCH/511013/C36121-P54/C36121-P54.minimised.mol

>  <scratch_subdir>  (1623) 
/opt/xchem-fragalysis-2/maxwin/BulkDock/SCRATCH/511013/C36121-P54

>  <fragmenstein_runtime>  (1623) 
3.8726987838745117

>  <fragmenstein_outcome>  (1623) 
too moved

>  <fragmenstein_mode>  (1623) 
expansion

>  <fragmenstein_error>  (1623) 


$$$$
C36086-P45
     RDKit          3D

 47 50  0  0  0  0  0  0  0  0999 V2000
  -11.9493  -27.4287   25.4940 C   0  0  0  0  0  0  0  0  0  0  0  0
  -11.6604  -27.6722   26.9471 N   0  0  0  0  0  0  0  0  0  0  0  0
  -10.7561  -28.7535   27.0923 C   0  0  0  0  0  0  0  0  0  0  0  0
  -10.9619  -29.9338   27.2296 O   0  0  0  0  0  0  0  0  0  0  0  0
   -9.3157  -28.2826   26.9739 C   0  0  0  0  0  0  0  0  0  0  0  0
   -8.4626  -29.1972   26.4586 C   0  0  0  0  0  0  0  0  0  0  0  0
   -7.0655  -28.9070   26.2241 C   0  0  0  0  0  0  0  0  0  0  0  0
   -6.5887  -27.6914   26.5109 C   0  0  0  0  0  0  0  0  0  0  0  0
   -7.4654  -26.7303   26.9860 N   0  0  0  0  0  0  0  0  0  0  0  0
   -7.2193  -25.4028   27.2224 C   0  0  0  0  0  0  0  0  0  0  0  0
   -8.3752  -24.9152   27.7695 C   0  0  0  0  0  0  0  0  0  0  0  0
   -9.3240  -25.9023   27.8795 N   0  0  0  0  0  0  0  0  0  0  0  0
   -8.8094  -26.9733   27.2985 C   0  0  0  0  0  0  0  0  0  0  0  0
  -13.2041  -27.6259   27.0315 C   0  0  0  0  0  0  0  0  0  0  0  0
  -13.4701  -27.1097   28.4596 C   0  0  0  0  0  0  0  0  0  0  0  0
  -12.8630  -25.8565   28.8041 N   0  0  0  0  0  0  0  0  0  0  0  0
  -12.1585  -24.8883   27.9941 C   0  0  0  0  0  0  0  0  0  0  0  0
  -11.9700  -24.8464   26.8160 O   0  0  0  0  0  0  0  0  0  0  0  0
  -11.5998  -23.8225   28.8195 C   0  0  0  0  0  0  0  0  0  0  0  0
  -11.0421  -24.1079   30.0266 C   0  0  0  0  0  0  0  0  0  0  0  0
  -11.1472  -23.2907   31.0890 N   0  0  0  0  0  0  0  0  0  0  0  0
  -11.6110  -22.0603   30.8163 C   0  0  0  0  0  0  0  0  0  0  0  0
  -11.9578  -21.6169   29.6021 N   0  0  0  0  0  0  0  0  0  0  0  0
  -11.9231  -22.5221   28.6075 C   0  0  0  0  0  0  0  0  0  0  0  0
  -13.9056  -28.9929   26.9514 C   0  0  0  0  0  0  0  0  0  0  0  0
  -14.9410  -29.3083   25.8917 C   0  0  0  0  0  0  0  0  0  0  0  0
  -15.3833  -29.1145   27.3013 C   0  0  0  0  0  0  0  0  0  0  0  0
  -11.0151  -27.6048   24.9511 H   0  0  0  0  0  0  0  0  0  0  0  0
  -12.6881  -28.0515   24.9965 H   0  0  0  0  0  0  0  0  0  0  0  0
  -12.1646  -26.3787   25.2704 H   0  0  0  0  0  0  0  0  0  0  0  0
   -8.7892  -30.1978   26.1823 H   0  0  0  0  0  0  0  0  0  0  0  0
   -6.4521  -29.6683   25.7637 H   0  0  0  0  0  0  0  0  0  0  0  0
   -5.5606  -27.4022   26.3276 H   0  0  0  0  0  0  0  0  0  0  0  0
   -6.2663  -24.9456   26.9966 H   0  0  0  0  0  0  0  0  0  0  0  0
   -8.5671  -23.9025   28.0952 H   0  0  0  0  0  0  0  0  0  0  0  0
  -13.7269  -26.8915   26.3977 H   0  0  0  0  0  0  0  0  0  0  0  0
  -14.5400  -26.9795   28.6500 H   0  0  0  0  0  0  0  0  0  0  0  0
  -13.1102  -27.8340   29.2016 H   0  0  0  0  0  0  0  0  0  0  0  0
  -12.8954  -25.5286   29.7581 H   0  0  0  0  0  0  0  0  0  0  0  0
  -10.5478  -25.0633   30.1922 H   0  0  0  0  0  0  0  0  0  0  0  0
  -11.6716  -21.3627   31.6438 H   0  0  0  0  0  0  0  0  0  0  0  0
  -12.2195  -22.1951   27.6256 H   0  0  0  0  0  0  0  0  0  0  0  0
  -13.2985  -29.8017   27.3416 H   0  0  0  0  0  0  0  0  0  0  0  0
  -14.9792  -30.3199   25.5015 H   0  0  0  0  0  0  0  0  0  0  0  0
  -15.2206  -28.5418   25.1780 H   0  0  0  0  0  0  0  0  0  0  0  0
  -15.9816  -28.2342   27.5061 H   0  0  0  0  0  0  0  0  0  0  0  0
  -15.6956  -29.9902   27.8621 H   0  0  0  0  0  0  0  0  0  0  0  0
  1  2  1  0
  2  3  1  0
  3  4  2  0
  3  5  1  0
  5  6  2  0
  6  7  1  0
  7  8  2  0
  8  9  1  0
  9 10  1  0
 10 11  2  0
 11 12  1  0
 12 13  2  0
  2 14  1  0
 14 15  1  0
 15 16  1  0
 16 17  1  0
 17 18  2  0
 17 19  1  0
 19 20  2  0
 20 21  1  0
 21 22  2  0
 22 23  1  0
 23 24  2  0
 14 25  1  0
 25 26  1  0
 26 27  1  0
 13  5  1  0
 24 19  1  0
 27 25  1  0
 13  9  1  0
  1 28  1  0
  1 29  1  0
  1 30  1  0
  6 31  1  0
  7 32  1  0
  8 33  1  0
 10 34  1  0
 11 35  1  0
 14 36  1  0
 15 37  1  0
 15 38  1  0
 16 39  1  0
 20 40  1  0
 22 41  1  0
 24 42  1  0
 25 43  1  0
 26 44  1  0
 26 45  1  0
 27 46  1  0
 27 47  1  0
M  END
>  <Energy>  (1624) 
156.69214673297327

>  <compound_id>  (1624) 
36086

>  <target_id>  (1624) 
1

>  <reference_id>  (1624) 
45

>  <inspiration_ids>  (1624) 
[45, 54]

>  <energy_score>  (1624) 
76.76365073197218

>  <distance_score>  (1624) 
1.6162695516979242

>  <path>  (1624) 
/opt/xchem-fragalysis-2/maxwin/BulkDock/SCRATCH/511013/C36086-P45/C36086-P45.minimised.mol

>  <scratch_subdir>  (1624) 
/opt/xchem-fragalysis-2/maxwin/BulkDock/SCRATCH/511013/C36086-P45

>  <fragmenstein_runtime>  (1624) 
10.428537130355835

>  <fragmenstein_outcome>  (1624) 
too moved

>  <fragmenstein_mode>  (1624) 
expansion

>  <fragmenstein_error>  (1624) 


$$$$
C36086-P54
     RDKit          3D

 47 50  0  0  0  0  0  0  0  0999 V2000
  -15.3940  -28.6372   26.8872 C   0  0  0  0  0  0  0  0  0  0  0  0
  -14.4952  -27.4802   27.2024 N   0  0  0  0  0  0  0  0  0  0  0  0
  -13.7148  -27.7688   28.3555 C   0  0  0  0  0  0  0  0  0  0  0  0
  -13.9289  -27.5543   29.5201 O   0  0  0  0  0  0  0  0  0  0  0  0
  -12.3928  -28.3412   27.9648 C   0  0  0  0  0  0  0  0  0  0  0  0
  -12.0246  -29.5780   28.3528 C   0  0  0  0  0  0  0  0  0  0  0  0
  -10.6491  -30.0289   28.1903 C   0  0  0  0  0  0  0  0  0  0  0  0
   -9.7038  -29.1387   27.8411 C   0  0  0  0  0  0  0  0  0  0  0  0
  -10.0991  -27.8741   27.4379 N   0  0  0  0  0  0  0  0  0  0  0  0
   -9.3503  -26.8219   26.9923 C   0  0  0  0  0  0  0  0  0  0  0  0
  -10.2518  -25.8551   26.6330 C   0  0  0  0  0  0  0  0  0  0  0  0
  -11.5295  -26.2881   26.8308 N   0  0  0  0  0  0  0  0  0  0  0  0
  -11.4220  -27.4672   27.3952 C   0  0  0  0  0  0  0  0  0  0  0  0
  -15.8239  -26.6903   27.0486 C   0  0  0  0  0  0  0  0  0  0  0  0
  -15.3552  -25.2217   26.6857 C   0  0  0  0  0  0  0  0  0  0  0  0
  -14.2891  -24.6905   27.5121 N   0  0  0  0  0  0  0  0  0  0  0  0
  -13.1175  -23.9431   27.1674 C   0  0  0  0  0  0  0  0  0  0  0  0
  -12.7568  -23.4968   26.1183 O   0  0  0  0  0  0  0  0  0  0  0  0
  -12.2030  -23.6559   28.3084 C   0  0  0  0  0  0  0  0  0  0  0  0
  -11.9553  -24.5149   29.3585 C   0  0  0  0  0  0  0  0  0  0  0  0
  -11.1016  -24.2567   30.3762 N   0  0  0  0  0  0  0  0  0  0  0  0
  -10.4701  -23.0752   30.3073 C   0  0  0  0  0  0  0  0  0  0  0  0
  -10.5995  -22.1714   29.3238 N   0  0  0  0  0  0  0  0  0  0  0  0
  -11.4565  -22.4948   28.3276 C   0  0  0  0  0  0  0  0  0  0  0  0
  -16.6552  -26.5984   28.3289 C   0  0  0  0  0  0  0  0  0  0  0  0
  -17.9443  -27.3730   28.5094 C   0  0  0  0  0  0  0  0  0  0  0  0
  -17.9943  -25.8911   28.3051 C   0  0  0  0  0  0  0  0  0  0  0  0
  -15.8112  -28.6482   25.8701 H   0  0  0  0  0  0  0  0  0  0  0  0
  -14.7256  -29.5123   26.8594 H   0  0  0  0  0  0  0  0  0  0  0  0
  -16.0907  -28.9189   27.6845 H   0  0  0  0  0  0  0  0  0  0  0  0
  -12.7139  -30.2318   28.8794 H   0  0  0  0  0  0  0  0  0  0  0  0
  -10.4099  -31.0591   28.4238 H   0  0  0  0  0  0  0  0  0  0  0  0
   -8.6453  -29.3634   27.7749 H   0  0  0  0  0  0  0  0  0  0  0  0
   -8.2713  -26.8597   26.9934 H   0  0  0  0  0  0  0  0  0  0  0  0
  -10.0760  -24.8637   26.2413 H   0  0  0  0  0  0  0  0  0  0  0  0
  -16.4551  -26.9285   26.1747 H   0  0  0  0  0  0  0  0  0  0  0  0
  -16.1881  -24.5134   26.7332 H   0  0  0  0  0  0  0  0  0  0  0  0
  -14.9807  -25.2168   25.6549 H   0  0  0  0  0  0  0  0  0  0  0  0
  -14.2259  -24.9745   28.4789 H   0  0  0  0  0  0  0  0  0  0  0  0
  -12.4231  -25.4883   29.4243 H   0  0  0  0  0  0  0  0  0  0  0  0
   -9.7893  -22.8297   31.1151 H   0  0  0  0  0  0  0  0  0  0  0  0
  -11.5277  -21.7620   27.5255 H   0  0  0  0  0  0  0  0  0  0  0  0
  -16.0525  -26.4049   29.2092 H   0  0  0  0  0  0  0  0  0  0  0  0
  -18.1665  -27.7552   29.5003 H   0  0  0  0  0  0  0  0  0  0  0  0
  -18.3165  -27.9952   27.7039 H   0  0  0  0  0  0  0  0  0  0  0  0
  -18.2419  -25.2605   29.1534 H   0  0  0  0  0  0  0  0  0  0  0  0
  -18.3854  -25.5217   27.3638 H   0  0  0  0  0  0  0  0  0  0  0  0
  1  2  1  0
  2  3  1  0
  3  4  2  0
  3  5  1  0
  5  6  2  0
  6  7  1  0
  7  8  2  0
  8  9  1  0
  9 10  1  0
 10 11  2  0
 11 12  1  0
 12 13  2  0
  2 14  1  0
 14 15  1  0
 15 16  1  0
 16 17  1  0
 17 18  2  0
 17 19  1  0
 19 20  2  0
 20 21  1  0
 21 22  2  0
 22 23  1  0
 23 24  2  0
 14 25  1  0
 25 26  1  0
 26 27  1  0
 13  5  1  0
 24 19  1  0
 27 25  1  0
 13  9  1  0
  1 28  1  0
  1 29  1  0
  1 30  1  0
  6 31  1  0
  7 32  1  0
  8 33  1  0
 10 34  1  0
 11 35  1  0
 14 36  1  0
 15 37  1  0
 15 38  1  0
 16 39  1  0
 20 40  1  0
 22 41  1  0
 24 42  1  0
 25 43  1  0
 26 44  1  0
 26 45  1  0
 27 46  1  0
 27 47  1  0
M  END
>  <Energy>  (1625) 
139.56410652179531

>  <compound_id>  (1625) 
36086

>  <target_id>  (1625) 
1

>  <reference_id>  (1625) 
54

>  <inspiration_ids>  (1625) 
[45, 54]

>  <energy_score>  (1625) 
59.63561052079814

>  <distance_score>  (1625) 
3.650353670071908

>  <path>  (1625) 
/opt/xchem-fragalysis-2/maxwin/BulkDock/SCRATCH/511013/C36086-P54/C36086-P54.minimised.mol

>  <scratch_subdir>  (1625) 
/opt/xchem-fragalysis-2/maxwin/BulkDock/SCRATCH/511013/C36086-P54

>  <fragmenstein_runtime>  (1625) 
12.490732192993164

>  <fragmenstein_outcome>  (1625) 
too moved

>  <fragmenstein_mode>  (1625) 
expansion

>  <fragmenstein_error>  (1625) 


$$$$
C36112-P45
     RDKit          3D

 40 42  0  0  0  0  0  0  0  0999 V2000
  -10.5695  -27.2120   28.2629 C   0  0  0  0  0  0  0  0  0  0  0  0
   -9.9174  -28.3351   27.5337 C   0  0  0  0  0  0  0  0  0  0  0  0
  -10.6317  -29.4700   27.3625 C   0  0  0  0  0  0  0  0  0  0  0  0
  -10.1005  -30.6121   26.6550 C   0  0  0  0  0  0  0  0  0  0  0  0
   -8.9250  -30.4977   26.0330 C   0  0  0  0  0  0  0  0  0  0  0  0
   -8.1480  -29.3862   26.2831 N   0  0  0  0  0  0  0  0  0  0  0  0
   -6.8549  -29.1508   25.9257 C   0  0  0  0  0  0  0  0  0  0  0  0
   -6.4225  -28.1078   26.7008 C   0  0  0  0  0  0  0  0  0  0  0  0
   -5.0165  -27.5474   26.8145 C   0  0  0  0  0  0  0  0  0  0  0  0
   -4.9042  -26.0124   26.8366 C   0  0  0  0  0  0  0  0  0  0  0  0
   -6.2311  -25.5036   26.7712 N   0  0  0  0  0  0  0  0  0  0  0  0
   -6.8608  -24.5088   27.4934 C   0  0  0  0  0  0  0  0  0  0  0  0
   -6.4414  -23.7510   28.3098 O   0  0  0  0  0  0  0  0  0  0  0  0
   -8.3870  -24.5489   27.1757 C   0  0  0  0  0  0  0  0  0  0  0  0
   -8.8364  -24.7049   26.0884 O   0  0  0  0  0  0  0  0  0  0  0  0
   -9.0184  -24.3126   28.4070 N   0  0  0  0  0  0  0  0  0  0  0  0
  -10.3456  -24.0968   28.7207 C   0  0  0  0  0  0  0  0  0  0  0  0
  -11.2184  -23.3677   27.9587 C   0  0  0  0  0  0  0  0  0  0  0  0
  -12.2182  -22.6731   28.5267 N   0  0  0  0  0  0  0  0  0  0  0  0
  -12.3699  -22.8087   29.8543 C   0  0  0  0  0  0  0  0  0  0  0  0
  -11.6941  -23.6405   30.6507 N   0  0  0  0  0  0  0  0  0  0  0  0
  -10.6873  -24.2696   30.0433 C   0  0  0  0  0  0  0  0  0  0  0  0
   -7.5183  -27.5695   27.3787 N   0  0  0  0  0  0  0  0  0  0  0  0
   -8.5514  -28.3321   27.0808 C   0  0  0  0  0  0  0  0  0  0  0  0
  -10.7874  -26.4128   27.5522 H   0  0  0  0  0  0  0  0  0  0  0  0
  -11.5151  -27.4989   28.7361 H   0  0  0  0  0  0  0  0  0  0  0  0
   -9.9068  -26.8626   29.0581 H   0  0  0  0  0  0  0  0  0  0  0  0
  -11.6541  -29.5533   27.7206 H   0  0  0  0  0  0  0  0  0  0  0  0
  -10.7305  -31.4717   26.4912 H   0  0  0  0  0  0  0  0  0  0  0  0
   -8.5303  -31.2621   25.3806 H   0  0  0  0  0  0  0  0  0  0  0  0
   -6.3513  -29.8063   25.2379 H   0  0  0  0  0  0  0  0  0  0  0  0
   -4.4229  -27.9290   25.9817 H   0  0  0  0  0  0  0  0  0  0  0  0
   -4.5593  -27.9633   27.7161 H   0  0  0  0  0  0  0  0  0  0  0  0
   -4.2840  -25.6268   26.0370 H   0  0  0  0  0  0  0  0  0  0  0  0
   -4.4482  -25.6523   27.7590 H   0  0  0  0  0  0  0  0  0  0  0  0
   -6.9303  -26.0058   26.2232 H   0  0  0  0  0  0  0  0  0  0  0  0
   -8.3172  -24.3147   29.1429 H   0  0  0  0  0  0  0  0  0  0  0  0
  -11.0894  -23.2012   26.8982 H   0  0  0  0  0  0  0  0  0  0  0  0
  -13.1371  -22.2139   30.3311 H   0  0  0  0  0  0  0  0  0  0  0  0
  -10.0483  -24.8465   30.7107 H   0  0  0  0  0  0  0  0  0  0  0  0
  1  2  1  0
  2  3  2  0
  3  4  1  0
  4  5  2  0
  5  6  1  0
  6  7  1  0
  7  8  2  0
  8  9  1  0
  9 10  1  0
 10 11  1  0
 11 12  1  0
 12 13  2  0
 12 14  1  0
 14 15  2  0
 14 16  1  0
 16 17  1  0
 17 18  2  0
 18 19  1  0
 19 20  2  0
 20 21  1  0
 21 22  2  0
  8 23  1  0
 23 24  2  0
 24  2  1  0
 24  6  1  0
 22 17  1  0
  1 25  1  0
  1 26  1  0
  1 27  1  0
  3 28  1  0
  4 29  1  0
  5 30  1  0
  7 31  1  0
  9 32  1  0
  9 33  1  0
 10 34  1  0
 10 35  1  0
 11 36  1  0
 16 37  1  0
 18 38  1  0
 20 39  1  0
 22 40  1  0
M  END
>  <Energy>  (1626) 
115.85737815291868

>  <compound_id>  (1626) 
36112

>  <target_id>  (1626) 
1

>  <reference_id>  (1626) 
45

>  <inspiration_ids>  (1626) 
[45, 54]

>  <energy_score>  (1626) 
-18.215137110989474

>  <distance_score>  (1626) 
3.1854149892076467

>  <path>  (1626) 
/opt/xchem-fragalysis-2/maxwin/BulkDock/SCRATCH/511013/C36112-P45/C36112-P45.minimised.mol

>  <scratch_subdir>  (1626) 
/opt/xchem-fragalysis-2/maxwin/BulkDock/SCRATCH/511013/C36112-P45

>  <fragmenstein_runtime>  (1626) 
9.258686542510986

>  <fragmenstein_outcome>  (1626) 
too moved

>  <fragmenstein_mode>  (1626) 
expansion

>  <fragmenstein_error>  (1626) 


$$$$
C36112-P54
     RDKit          3D

 40 42  0  0  0  0  0  0  0  0999 V2000
  -10.6767  -30.0850   27.9956 C   0  0  0  0  0  0  0  0  0  0  0  0
  -10.6404  -28.5775   28.0220 C   0  0  0  0  0  0  0  0  0  0  0  0
   -9.9764  -27.8207   27.1147 C   0  0  0  0  0  0  0  0  0  0  0  0
  -10.0421  -26.3653   27.1132 C   0  0  0  0  0  0  0  0  0  0  0  0
  -10.6999  -25.7329   28.0977 C   0  0  0  0  0  0  0  0  0  0  0  0
  -11.3020  -26.5026   29.0848 N   0  0  0  0  0  0  0  0  0  0  0  0
  -11.9777  -26.1322   30.2261 C   0  0  0  0  0  0  0  0  0  0  0  0
  -12.4378  -27.3115   30.7869 C   0  0  0  0  0  0  0  0  0  0  0  0
  -13.4786  -27.6170   31.8247 C   0  0  0  0  0  0  0  0  0  0  0  0
  -14.6046  -28.4983   31.2297 C   0  0  0  0  0  0  0  0  0  0  0  0
  -14.9786  -27.9652   29.9408 N   0  0  0  0  0  0  0  0  0  0  0  0
  -16.1584  -27.3133   29.5108 C   0  0  0  0  0  0  0  0  0  0  0  0
  -17.1864  -27.1034   30.0785 O   0  0  0  0  0  0  0  0  0  0  0  0
  -15.9327  -26.7278   28.0870 C   0  0  0  0  0  0  0  0  0  0  0  0
  -15.0525  -27.1672   27.4066 O   0  0  0  0  0  0  0  0  0  0  0  0
  -16.8218  -25.6383   27.8712 N   0  0  0  0  0  0  0  0  0  0  0  0
  -16.8795  -24.6982   26.8529 C   0  0  0  0  0  0  0  0  0  0  0  0
  -15.8420  -24.4649   25.9752 C   0  0  0  0  0  0  0  0  0  0  0  0
  -15.8044  -23.4063   25.1328 N   0  0  0  0  0  0  0  0  0  0  0  0
  -16.8450  -22.5599   25.2061 C   0  0  0  0  0  0  0  0  0  0  0  0
  -17.9267  -22.7179   25.9758 N   0  0  0  0  0  0  0  0  0  0  0  0
  -17.9138  -23.7902   26.7917 C   0  0  0  0  0  0  0  0  0  0  0  0
  -11.9410  -28.3793   30.1014 N   0  0  0  0  0  0  0  0  0  0  0  0
  -11.3056  -27.8843   29.0716 C   0  0  0  0  0  0  0  0  0  0  0  0
  -11.3014  -30.4779   27.1964 H   0  0  0  0  0  0  0  0  0  0  0  0
   -9.6729  -30.5033   27.9378 H   0  0  0  0  0  0  0  0  0  0  0  0
  -11.1647  -30.4896   28.8848 H   0  0  0  0  0  0  0  0  0  0  0  0
   -9.3687  -28.2610   26.3318 H   0  0  0  0  0  0  0  0  0  0  0  0
   -9.5435  -25.8209   26.3272 H   0  0  0  0  0  0  0  0  0  0  0  0
  -10.7704  -24.6556   28.1772 H   0  0  0  0  0  0  0  0  0  0  0  0
  -12.1177  -25.0881   30.4523 H   0  0  0  0  0  0  0  0  0  0  0  0
  -13.9313  -26.6945   32.1853 H   0  0  0  0  0  0  0  0  0  0  0  0
  -13.0217  -28.1202   32.6833 H   0  0  0  0  0  0  0  0  0  0  0  0
  -14.2555  -29.5235   31.0704 H   0  0  0  0  0  0  0  0  0  0  0  0
  -15.4750  -28.5138   31.8923 H   0  0  0  0  0  0  0  0  0  0  0  0
  -14.3295  -28.0321   29.1528 H   0  0  0  0  0  0  0  0  0  0  0  0
  -17.5005  -25.6073   28.6338 H   0  0  0  0  0  0  0  0  0  0  0  0
  -14.9608  -25.0977   25.9409 H   0  0  0  0  0  0  0  0  0  0  0  0
  -16.8097  -21.6694   24.5867 H   0  0  0  0  0  0  0  0  0  0  0  0
  -18.7697  -23.8594   27.4565 H   0  0  0  0  0  0  0  0  0  0  0  0
  1  2  1  0
  2  3  2  0
  3  4  1  0
  4  5  2  0
  5  6  1  0
  6  7  1  0
  7  8  2  0
  8  9  1  0
  9 10  1  0
 10 11  1  0
 11 12  1  0
 12 13  2  0
 12 14  1  0
 14 15  2  0
 14 16  1  0
 16 17  1  0
 17 18  2  0
 18 19  1  0
 19 20  2  0
 20 21  1  0
 21 22  2  0
  8 23  1  0
 23 24  2  0
 24  2  1  0
 24  6  1  0
 22 17  1  0
  1 25  1  0
  1 26  1  0
  1 27  1  0
  3 28  1  0
  4 29  1  0
  5 30  1  0
  7 31  1  0
  9 32  1  0
  9 33  1  0
 10 34  1  0
 10 35  1  0
 11 36  1  0
 16 37  1  0
 18 38  1  0
 20 39  1  0
 22 40  1  0
M  END
>  <Energy>  (1627) 
88.985559169946853

>  <compound_id>  (1627) 
36112

>  <target_id>  (1627) 
1

>  <reference_id>  (1627) 
54

>  <inspiration_ids>  (1627) 
[45, 54]

>  <energy_score>  (1627) 
-45.086956093960765

>  <distance_score>  (1627) 
5.915558923787303

>  <path>  (1627) 
/opt/xchem-fragalysis-2/maxwin/BulkDock/SCRATCH/511013/C36112-P54/C36112-P54.minimised.mol

>  <scratch_subdir>  (1627) 
/opt/xchem-fragalysis-2/maxwin/BulkDock/SCRATCH/511013/C36112-P54

>  <fragmenstein_runtime>  (1627) 
10.922440528869629

>  <fragmenstein_outcome>  (1627) 
too moved

>  <fragmenstein_mode>  (1627) 
expansion

>  <fragmenstein_error>  (1627) 


$$$$
C36123-P45
     RDKit          3D

 38 40  0  0  0  0  0  0  0  0999 V2000
   -7.6200  -24.6430   27.0277 C   0  0  0  0  0  0  0  0  0  0  0  0
   -8.7023  -25.6284   27.2276 C   0  0  0  0  0  0  0  0  0  0  0  0
   -8.7435  -26.2788   28.4347 N   0  0  0  0  0  0  0  0  0  0  0  0
   -9.8777  -26.9357   28.4460 C   0  0  0  0  0  0  0  0  0  0  0  0
  -10.6157  -27.5534   29.4858 C   0  0  0  0  0  0  0  0  0  0  0  0
  -11.6952  -28.3020   29.1815 C   0  0  0  0  0  0  0  0  0  0  0  0
  -12.1391  -28.4670   27.8081 C   0  0  0  0  0  0  0  0  0  0  0  0
  -11.5360  -27.7446   26.8510 C   0  0  0  0  0  0  0  0  0  0  0  0
  -10.4520  -26.9427   27.1925 N   0  0  0  0  0  0  0  0  0  0  0  0
   -9.8849  -25.8743   26.5351 C   0  0  0  0  0  0  0  0  0  0  0  0
  -10.7156  -25.0380   25.6237 C   0  0  0  0  0  0  0  0  0  0  0  0
  -11.1392  -24.0336   26.5426 N   0  0  0  0  0  0  0  0  0  0  0  0
  -11.9763  -24.1192   27.7173 C   0  0  0  0  0  0  0  0  0  0  0  0
  -12.5758  -25.0224   28.1529 O   0  0  0  0  0  0  0  0  0  0  0  0
  -11.7688  -22.7554   28.2627 N   0  0  0  0  0  0  0  0  0  0  0  0
  -12.1548  -22.1838   29.5102 C   0  0  0  0  0  0  0  0  0  0  0  0
  -11.4875  -22.8094   30.6725 C   0  0  0  0  0  0  0  0  0  0  0  0
  -10.7892  -23.9980   30.6112 C   0  0  0  0  0  0  0  0  0  0  0  0
  -10.2920  -24.6409   31.6835 N   0  0  0  0  0  0  0  0  0  0  0  0
  -10.5444  -24.0633   32.8597 C   0  0  0  0  0  0  0  0  0  0  0  0
  -11.1666  -22.8906   33.0406 N   0  0  0  0  0  0  0  0  0  0  0  0
  -11.6115  -22.2735   31.9348 C   0  0  0  0  0  0  0  0  0  0  0  0
   -7.7861  -23.7615   27.6545 H   0  0  0  0  0  0  0  0  0  0  0  0
   -7.5525  -24.3255   25.9921 H   0  0  0  0  0  0  0  0  0  0  0  0
   -6.6532  -25.0774   27.3000 H   0  0  0  0  0  0  0  0  0  0  0  0
  -10.2718  -27.4195   30.5057 H   0  0  0  0  0  0  0  0  0  0  0  0
  -12.2710  -28.7889   29.9615 H   0  0  0  0  0  0  0  0  0  0  0  0
  -12.9995  -29.0943   27.6078 H   0  0  0  0  0  0  0  0  0  0  0  0
  -11.8681  -27.7282   25.8240 H   0  0  0  0  0  0  0  0  0  0  0  0
  -10.1376  -24.5787   24.8267 H   0  0  0  0  0  0  0  0  0  0  0  0
  -11.5931  -25.5458   25.2211 H   0  0  0  0  0  0  0  0  0  0  0  0
  -10.7189  -23.1449   26.5102 H   0  0  0  0  0  0  0  0  0  0  0  0
  -11.2702  -22.2024   27.5927 H   0  0  0  0  0  0  0  0  0  0  0  0
  -11.9538  -21.1150   29.4673 H   0  0  0  0  0  0  0  0  0  0  0  0
  -13.2006  -22.3673   29.6794 H   0  0  0  0  0  0  0  0  0  0  0  0
  -10.5685  -24.5052   29.6809 H   0  0  0  0  0  0  0  0  0  0  0  0
  -10.2390  -24.6164   33.7348 H   0  0  0  0  0  0  0  0  0  0  0  0
  -12.1198  -21.3350   32.1189 H   0  0  0  0  0  0  0  0  0  0  0  0
  1  2  1  0
  2  3  1  0
  3  4  2  0
  4  5  1  0
  5  6  2  0
  6  7  1  0
  7  8  2  0
  8  9  1  0
  9 10  1  0
 10 11  1  0
 11 12  1  0
 12 13  1  0
 13 14  2  0
 13 15  1  0
 15 16  1  0
 16 17  1  0
 17 18  2  0
 18 19  1  0
 19 20  2  0
 20 21  1  0
 21 22  2  0
 10  2  2  0
 22 17  1  0
  9  4  1  0
  1 23  1  0
  1 24  1  0
  1 25  1  0
  5 26  1  0
  6 27  1  0
  7 28  1  0
  8 29  1  0
 11 30  1  0
 11 31  1  0
 12 32  1  0
 15 33  1  0
 16 34  1  0
 16 35  1  0
 18 36  1  0
 20 37  1  0
 22 38  1  0
M  END
>  <Energy>  (1628) 
-53.05926805475039

>  <compound_id>  (1628) 
36123

>  <target_id>  (1628) 
1

>  <reference_id>  (1628) 
45

>  <inspiration_ids>  (1628) 
[45, 54]

>  <energy_score>  (1628) 
22.622331715270604

>  <distance_score>  (1628) 
3.972004678607127

>  <path>  (1628) 
/opt/xchem-fragalysis-2/maxwin/BulkDock/SCRATCH/511013/C36123-P45/C36123-P45.minimised.mol

>  <scratch_subdir>  (1628) 
/opt/xchem-fragalysis-2/maxwin/BulkDock/SCRATCH/511013/C36123-P45

>  <fragmenstein_runtime>  (1628) 
6.674833059310913

>  <fragmenstein_outcome>  (1628) 
too moved

>  <fragmenstein_mode>  (1628) 
expansion

>  <fragmenstein_error>  (1628) 


$$$$
C36123-P54
     RDKit          3D

 38 40  0  0  0  0  0  0  0  0999 V2000
  -10.0176  -24.4863   31.5037 C   0  0  0  0  0  0  0  0  0  0  0  0
  -10.6029  -25.1267   30.3035 C   0  0  0  0  0  0  0  0  0  0  0  0
  -11.3010  -26.2977   30.4453 N   0  0  0  0  0  0  0  0  0  0  0  0
  -11.5799  -26.6819   29.2227 C   0  0  0  0  0  0  0  0  0  0  0  0
  -12.2476  -27.8402   28.7514 C   0  0  0  0  0  0  0  0  0  0  0  0
  -12.3769  -28.0347   27.4286 C   0  0  0  0  0  0  0  0  0  0  0  0
  -11.8168  -27.0992   26.4684 C   0  0  0  0  0  0  0  0  0  0  0  0
  -11.1942  -25.9966   26.9055 C   0  0  0  0  0  0  0  0  0  0  0  0
  -11.0992  -25.7836   28.2754 N   0  0  0  0  0  0  0  0  0  0  0  0
  -10.5562  -24.7333   28.9704 C   0  0  0  0  0  0  0  0  0  0  0  0
  -10.0812  -23.4924   28.3201 C   0  0  0  0  0  0  0  0  0  0  0  0
  -10.2479  -22.5041   29.3210 N   0  0  0  0  0  0  0  0  0  0  0  0
  -11.3172  -21.5318   29.5342 C   0  0  0  0  0  0  0  0  0  0  0  0
  -12.2501  -21.2861   28.8841 O   0  0  0  0  0  0  0  0  0  0  0  0
  -10.9261  -21.0325   30.8402 N   0  0  0  0  0  0  0  0  0  0  0  0
  -11.5124  -20.0290   31.6721 C   0  0  0  0  0  0  0  0  0  0  0  0
  -10.8478  -20.1234   32.9957 C   0  0  0  0  0  0  0  0  0  0  0  0
  -10.8163  -21.3117   33.6966 C   0  0  0  0  0  0  0  0  0  0  0  0
  -10.1175  -21.5169   34.8237 N   0  0  0  0  0  0  0  0  0  0  0  0
   -9.4406  -20.4515   35.2656 C   0  0  0  0  0  0  0  0  0  0  0  0
   -9.4028  -19.2429   34.6841 N   0  0  0  0  0  0  0  0  0  0  0  0
  -10.1085  -19.1057   33.5465 C   0  0  0  0  0  0  0  0  0  0  0  0
   -9.9482  -25.1910   32.3366 H   0  0  0  0  0  0  0  0  0  0  0  0
  -10.6380  -23.6495   31.8190 H   0  0  0  0  0  0  0  0  0  0  0  0
   -9.0072  -24.1214   31.3033 H   0  0  0  0  0  0  0  0  0  0  0  0
  -12.6554  -28.5356   29.4758 H   0  0  0  0  0  0  0  0  0  0  0  0
  -12.9126  -28.9033   27.0606 H   0  0  0  0  0  0  0  0  0  0  0  0
  -11.9199  -27.3083   25.4177 H   0  0  0  0  0  0  0  0  0  0  0  0
  -10.7685  -25.2551   26.2444 H   0  0  0  0  0  0  0  0  0  0  0  0
   -9.0253  -23.5649   28.0776 H   0  0  0  0  0  0  0  0  0  0  0  0
  -10.6692  -23.2136   27.4425 H   0  0  0  0  0  0  0  0  0  0  0  0
   -9.5602  -22.3977   30.0327 H   0  0  0  0  0  0  0  0  0  0  0  0
  -10.0253  -21.3901   31.0719 H   0  0  0  0  0  0  0  0  0  0  0  0
  -11.3116  -19.0712   31.1948 H   0  0  0  0  0  0  0  0  0  0  0  0
  -12.5934  -20.1733   31.7267 H   0  0  0  0  0  0  0  0  0  0  0  0
  -11.3363  -22.1799   33.3189 H   0  0  0  0  0  0  0  0  0  0  0  0
   -8.8670  -20.5737   36.1777 H   0  0  0  0  0  0  0  0  0  0  0  0
  -10.0227  -18.1314   33.0730 H   0  0  0  0  0  0  0  0  0  0  0  0
  1  2  1  0
  2  3  1  0
  3  4  2  0
  4  5  1  0
  5  6  2  0
  6  7  1  0
  7  8  2  0
  8  9  1  0
  9 10  1  0
 10 11  1  0
 11 12  1  0
 12 13  1  0
 13 14  2  0
 13 15  1  0
 15 16  1  0
 16 17  1  0
 17 18  2  0
 18 19  1  0
 19 20  2  0
 20 21  1  0
 21 22  2  0
 10  2  2  0
 22 17  1  0
  9  4  1  0
  1 23  1  0
  1 24  1  0
  1 25  1  0
  5 26  1  0
  6 27  1  0
  7 28  1  0
  8 29  1  0
 11 30  1  0
 11 31  1  0
 12 32  1  0
 15 33  1  0
 16 34  1  0
 16 35  1  0
 18 36  1  0
 20 37  1  0
 22 38  1  0
M  END
>  <Energy>  (1629) 
-71.524255619152484

>  <compound_id>  (1629) 
36123

>  <target_id>  (1629) 
1

>  <reference_id>  (1629) 
54

>  <inspiration_ids>  (1629) 
[45, 54]

>  <energy_score>  (1629) 
4.157344150869449

>  <distance_score>  (1629) 
5.656239336303298

>  <path>  (1629) 
/opt/xchem-fragalysis-2/maxwin/BulkDock/SCRATCH/511013/C36123-P54/C36123-P54.minimised.mol

>  <scratch_subdir>  (1629) 
/opt/xchem-fragalysis-2/maxwin/BulkDock/SCRATCH/511013/C36123-P54

>  <fragmenstein_runtime>  (1629) 
10.835213661193848

>  <fragmenstein_outcome>  (1629) 
too moved

>  <fragmenstein_mode>  (1629) 
expansion

>  <fragmenstein_error>  (1629) 


$$$$
C36124-P45
     RDKit          3D

 36 38  0  0  0  0  0  0  0  0999 V2000
  -12.7893  -25.7614   27.0885 O   0  0  0  0  0  0  0  0  0  0  0  0
  -11.6162  -25.6195   26.8995 C   0  0  0  0  0  0  0  0  0  0  0  0
  -11.0298  -24.2492   26.6156 C   0  0  0  0  0  0  0  0  0  0  0  0
  -11.6911  -23.1672   27.4522 C   0  0  0  0  0  0  0  0  0  0  0  0
  -11.4661  -23.1977   28.9301 C   0  0  0  0  0  0  0  0  0  0  0  0
  -10.9714  -24.2598   29.6463 C   0  0  0  0  0  0  0  0  0  0  0  0
  -10.8315  -24.2673   30.9899 N   0  0  0  0  0  0  0  0  0  0  0  0
  -11.2278  -23.1588   31.6363 C   0  0  0  0  0  0  0  0  0  0  0  0
  -11.7317  -22.0716   31.0548 N   0  0  0  0  0  0  0  0  0  0  0  0
  -11.8187  -22.1143   29.7106 C   0  0  0  0  0  0  0  0  0  0  0  0
  -10.5424  -26.5666   26.9267 N   0  0  0  0  0  0  0  0  0  0  0  0
  -10.5257  -27.8770   27.2595 C   0  0  0  0  0  0  0  0  0  0  0  0
  -11.5136  -28.6476   27.8251 C   0  0  0  0  0  0  0  0  0  0  0  0
  -11.2412  -29.9768   27.6567 N   0  0  0  0  0  0  0  0  0  0  0  0
  -10.1095  -30.0040   26.9829 C   0  0  0  0  0  0  0  0  0  0  0  0
   -9.5455  -31.0252   26.1794 C   0  0  0  0  0  0  0  0  0  0  0  0
   -8.5316  -30.7152   25.3484 C   0  0  0  0  0  0  0  0  0  0  0  0
   -8.2692  -31.6884   24.2549 C   0  0  0  0  0  0  0  0  0  0  0  0
   -8.9258  -32.6922   24.0228 O   0  0  0  0  0  0  0  0  0  0  0  0
   -7.2434  -31.3531   23.4522 O   0  0  0  0  0  0  0  0  0  0  0  0
   -7.7464  -29.5079   25.5904 C   0  0  0  0  0  0  0  0  0  0  0  0
   -8.2831  -28.5218   26.3252 C   0  0  0  0  0  0  0  0  0  0  0  0
   -9.5318  -28.7457   26.8902 N   0  0  0  0  0  0  0  0  0  0  0  0
  -11.1977  -24.0587   25.5495 H   0  0  0  0  0  0  0  0  0  0  0  0
   -9.9518  -24.2304   26.8025 H   0  0  0  0  0  0  0  0  0  0  0  0
  -11.3605  -22.1921   27.0872 H   0  0  0  0  0  0  0  0  0  0  0  0
  -12.7588  -23.2107   27.2779 H   0  0  0  0  0  0  0  0  0  0  0  0
  -10.6445  -25.1855   29.1932 H   0  0  0  0  0  0  0  0  0  0  0  0
  -11.1419  -23.1551   32.7181 H   0  0  0  0  0  0  0  0  0  0  0  0
  -12.1916  -21.2019   29.2596 H   0  0  0  0  0  0  0  0  0  0  0  0
   -9.6880  -26.1061   26.6350 H   0  0  0  0  0  0  0  0  0  0  0  0
  -12.4495  -28.3176   28.2595 H   0  0  0  0  0  0  0  0  0  0  0  0
  -10.1123  -31.9363   26.0558 H   0  0  0  0  0  0  0  0  0  0  0  0
   -7.2177  -32.0913   22.8078 H   0  0  0  0  0  0  0  0  0  0  0  0
   -6.7504  -29.4452   25.1743 H   0  0  0  0  0  0  0  0  0  0  0  0
   -7.8018  -27.5660   26.4748 H   0  0  0  0  0  0  0  0  0  0  0  0
  1  2  2  0
  2  3  1  0
  3  4  1  0
  4  5  1  0
  5  6  2  0
  6  7  1  0
  7  8  2  0
  8  9  1  0
  9 10  2  0
  2 11  1  0
 11 12  1  0
 12 13  2  0
 13 14  1  0
 14 15  2  0
 15 16  1  0
 16 17  2  0
 17 18  1  0
 18 19  2  0
 18 20  1  0
 17 21  1  0
 21 22  2  0
 22 23  1  0
 10  5  1  0
 23 12  1  0
 23 15  1  0
  3 24  1  0
  3 25  1  0
  4 26  1  0
  4 27  1  0
  6 28  1  0
  8 29  1  0
 10 30  1  0
 11 31  1  0
 13 32  1  0
 16 33  1  0
 20 34  1  0
 21 35  1  0
 22 36  1  0
M  END
>  <Energy>  (1630) 
42.989594184701502

>  <compound_id>  (1630) 
36124

>  <target_id>  (1630) 
1

>  <reference_id>  (1630) 
45

>  <inspiration_ids>  (1630) 
[45, 54]

>  <energy_score>  (1630) 
-28.037889825820173

>  <distance_score>  (1630) 
3.6330950580796477

>  <path>  (1630) 
/opt/xchem-fragalysis-2/maxwin/BulkDock/SCRATCH/511013/C36124-P45/C36124-P45.minimised.mol

>  <scratch_subdir>  (1630) 
/opt/xchem-fragalysis-2/maxwin/BulkDock/SCRATCH/511013/C36124-P45

>  <fragmenstein_runtime>  (1630) 
7.693143606185913

>  <fragmenstein_outcome>  (1630) 
too moved

>  <fragmenstein_mode>  (1630) 
expansion

>  <fragmenstein_error>  (1630) 


$$$$
C36124-P54
     RDKit          3D

 36 38  0  0  0  0  0  0  0  0999 V2000
  -10.7132  -25.9545   26.1568 O   0  0  0  0  0  0  0  0  0  0  0  0
  -10.6649  -24.9980   26.8767 C   0  0  0  0  0  0  0  0  0  0  0  0
  -10.6234  -23.5879   26.3191 C   0  0  0  0  0  0  0  0  0  0  0  0
  -12.0316  -22.9547   26.3605 C   0  0  0  0  0  0  0  0  0  0  0  0
  -13.1343  -23.8260   26.9016 C   0  0  0  0  0  0  0  0  0  0  0  0
  -13.9187  -24.6456   26.1225 C   0  0  0  0  0  0  0  0  0  0  0  0
  -14.8359  -25.4977   26.6204 N   0  0  0  0  0  0  0  0  0  0  0  0
  -14.9839  -25.4914   27.9547 C   0  0  0  0  0  0  0  0  0  0  0  0
  -14.2905  -24.7422   28.8183 N   0  0  0  0  0  0  0  0  0  0  0  0
  -13.3855  -23.9255   28.2601 C   0  0  0  0  0  0  0  0  0  0  0  0
  -10.7335  -24.8933   28.3118 N   0  0  0  0  0  0  0  0  0  0  0  0
  -10.9665  -25.8367   29.2675 C   0  0  0  0  0  0  0  0  0  0  0  0
  -11.1716  -25.5420   30.6001 C   0  0  0  0  0  0  0  0  0  0  0  0
  -11.7928  -26.5705   31.2455 N   0  0  0  0  0  0  0  0  0  0  0  0
  -11.9050  -27.5194   30.3395 C   0  0  0  0  0  0  0  0  0  0  0  0
  -12.5156  -28.8001   30.4260 C   0  0  0  0  0  0  0  0  0  0  0  0
  -12.3609  -29.6904   29.4250 C   0  0  0  0  0  0  0  0  0  0  0  0
  -13.0378  -31.0012   29.5743 C   0  0  0  0  0  0  0  0  0  0  0  0
  -13.6942  -31.3736   30.5305 O   0  0  0  0  0  0  0  0  0  0  0  0
  -12.8683  -31.7983   28.5033 O   0  0  0  0  0  0  0  0  0  0  0  0
  -11.5136  -29.3679   28.2809 C   0  0  0  0  0  0  0  0  0  0  0  0
  -11.0213  -28.1243   28.1465 C   0  0  0  0  0  0  0  0  0  0  0  0
  -11.2726  -27.1785   29.1396 N   0  0  0  0  0  0  0  0  0  0  0  0
  -10.2538  -23.6020   25.2931 H   0  0  0  0  0  0  0  0  0  0  0  0
   -9.9175  -22.9744   26.8896 H   0  0  0  0  0  0  0  0  0  0  0  0
  -11.9688  -22.0472   26.9734 H   0  0  0  0  0  0  0  0  0  0  0  0
  -12.3030  -22.6014   25.3578 H   0  0  0  0  0  0  0  0  0  0  0  0
  -13.8390  -24.6544   25.0408 H   0  0  0  0  0  0  0  0  0  0  0  0
  -15.7378  -26.1511   28.3697 H   0  0  0  0  0  0  0  0  0  0  0  0
  -12.8396  -23.3176   28.9780 H   0  0  0  0  0  0  0  0  0  0  0  0
  -10.5749  -23.9287   28.5819 H   0  0  0  0  0  0  0  0  0  0  0  0
  -11.0063  -24.5944   31.0974 H   0  0  0  0  0  0  0  0  0  0  0  0
  -13.1050  -29.0205   31.3106 H   0  0  0  0  0  0  0  0  0  0  0  0
  -13.3554  -32.6135   28.7488 H   0  0  0  0  0  0  0  0  0  0  0  0
  -11.2855  -30.1545   27.5737 H   0  0  0  0  0  0  0  0  0  0  0  0
  -10.3814  -27.8447   27.3224 H   0  0  0  0  0  0  0  0  0  0  0  0
  1  2  2  0
  2  3  1  0
  3  4  1  0
  4  5  1  0
  5  6  2  0
  6  7  1  0
  7  8  2  0
  8  9  1  0
  9 10  2  0
  2 11  1  0
 11 12  1  0
 12 13  2  0
 13 14  1  0
 14 15  2  0
 15 16  1  0
 16 17  2  0
 17 18  1  0
 18 19  2  0
 18 20  1  0
 17 21  1  0
 21 22  2  0
 22 23  1  0
 10  5  1  0
 23 12  1  0
 23 15  1  0
  3 24  1  0
  3 25  1  0
  4 26  1  0
  4 27  1  0
  6 28  1  0
  8 29  1  0
 10 30  1  0
 11 31  1  0
 13 32  1  0
 16 33  1  0
 20 34  1  0
 21 35  1  0
 22 36  1  0
M  END
>  <Energy>  (1631) 
43.589997331118497

>  <compound_id>  (1631) 
36124

>  <target_id>  (1631) 
1

>  <reference_id>  (1631) 
54

>  <inspiration_ids>  (1631) 
[45, 54]

>  <energy_score>  (1631) 
-27.43748667940315

>  <distance_score>  (1631) 
5.186739458944138

>  <path>  (1631) 
/opt/xchem-fragalysis-2/maxwin/BulkDock/SCRATCH/511013/C36124-P54/C36124-P54.minimised.mol

>  <scratch_subdir>  (1631) 
/opt/xchem-fragalysis-2/maxwin/BulkDock/SCRATCH/511013/C36124-P54

>  <fragmenstein_runtime>  (1631) 
7.29746675491333

>  <fragmenstein_outcome>  (1631) 
too moved

>  <fragmenstein_mode>  (1631) 
expansion

>  <fragmenstein_error>  (1631) 


$$$$
C31175-P112
     RDKit          3D

 37 39  0  0  0  0  0  0  0  0999 V2000
    0.4727  -16.1392   10.9163 O   0  0  0  0  0  0  0  0  0  0  0  0
   -0.5942  -16.2064   10.3801 C   0  0  0  0  0  0  0  0  0  0  0  0
   -0.9859  -15.1310    9.3193 C   0  0  0  0  0  0  0  0  0  0  0  0
    0.0771  -14.3778    8.7443 O   0  0  0  0  0  0  0  0  0  0  0  0
    0.4644  -13.2189    9.3495 C   0  0  0  0  0  0  0  0  0  0  0  0
    1.7281  -12.6251    9.0558 C   0  0  0  0  0  0  0  0  0  0  0  0
    1.9792  -11.5467    9.8677 C   0  0  0  0  0  0  0  0  0  0  0  0
    0.5696  -11.0303   10.6871 S   0  0  0  0  0  0  0  0  0  0  0  0
   -0.2591  -12.4520   10.2360 C   0  0  0  0  0  0  0  0  0  0  0  0
   -1.6786  -17.1630   10.5415 N   0  0  0  0  0  0  0  0  0  0  0  0
   -1.8318  -18.2167   11.4215 C   0  0  0  0  0  0  0  0  0  0  0  0
   -0.9376  -18.7785   12.3591 C   0  0  0  0  0  0  0  0  0  0  0  0
   -1.4956  -19.7498   13.0900 N   0  0  0  0  0  0  0  0  0  0  0  0
   -2.7635  -19.9013   12.5789 O   0  0  0  0  0  0  0  0  0  0  0  0
   -2.9379  -19.0281   11.5466 C   0  0  0  0  0  0  0  0  0  0  0  0
   -4.1772  -19.2274   10.7560 C   0  0  0  0  0  0  0  0  0  0  0  0
   -3.9998  -20.5210    9.9620 C   0  0  0  0  0  0  0  0  0  0  0  0
   -4.4884  -21.7055   10.7557 C   0  0  0  0  0  0  0  0  0  0  0  0
   -5.8548  -21.5562   11.0531 O   0  0  0  0  0  0  0  0  0  0  0  0
   -6.3013  -20.3723   11.6835 C   0  0  0  0  0  0  0  0  0  0  0  0
   -5.3944  -19.1604   11.6700 C   0  0  0  0  0  0  0  0  0  0  0  0
   -1.7842  -14.5019    9.7262 H   0  0  0  0  0  0  0  0  0  0  0  0
   -1.4321  -15.6749    8.4771 H   0  0  0  0  0  0  0  0  0  0  0  0
    2.4658  -13.0646    8.3964 H   0  0  0  0  0  0  0  0  0  0  0  0
    2.9225  -11.0426    9.9968 H   0  0  0  0  0  0  0  0  0  0  0  0
   -1.2517  -12.6106   10.6259 H   0  0  0  0  0  0  0  0  0  0  0  0
   -2.4687  -16.8649    9.9845 H   0  0  0  0  0  0  0  0  0  0  0  0
    0.0933  -18.5094   12.5517 H   0  0  0  0  0  0  0  0  0  0  0  0
   -4.2461  -18.4029   10.0339 H   0  0  0  0  0  0  0  0  0  0  0  0
   -4.5339  -20.4257    9.0188 H   0  0  0  0  0  0  0  0  0  0  0  0
   -2.9514  -20.6806    9.6766 H   0  0  0  0  0  0  0  0  0  0  0  0
   -4.3779  -22.6180   10.1606 H   0  0  0  0  0  0  0  0  0  0  0  0
   -3.8954  -21.8477   11.6560 H   0  0  0  0  0  0  0  0  0  0  0  0
   -7.2398  -20.0761   11.2041 H   0  0  0  0  0  0  0  0  0  0  0  0
   -6.6471  -20.6914   12.6560 H   0  0  0  0  0  0  0  0  0  0  0  0
   -5.0957  -18.9011   12.6901 H   0  0  0  0  0  0  0  0  0  0  0  0
   -5.9811  -18.2785   11.3937 H   0  0  0  0  0  0  0  0  0  0  0  0
  1  2  2  0
  2  3  1  0
  3  4  1  0
  4  5  1  0
  5  6  1  0
  6  7  2  0
  7  8  1  0
  8  9  1  0
  2 10  1  0
 10 11  1  0
 11 12  1  0
 12 13  2  0
 13 14  1  0
 14 15  1  0
 15 16  1  0
 16 17  1  0
 17 18  1  0
 18 19  1  0
 19 20  1  0
 20 21  1  0
  9  5  2  0
 15 11  2  0
 21 16  1  0
  3 22  1  0
  3 23  1  0
  6 24  1  0
  7 25  1  0
  9 26  1  0
 10 27  1  0
 12 28  1  0
 16 29  1  0
 17 30  1  0
 17 31  1  0
 18 32  1  0
 18 33  1  0
 20 34  1  0
 20 35  1  0
 21 36  1  0
 21 37  1  0
M  END
>  <Energy>  (1632) 
55.366333782838566

>  <compound_id>  (1632) 
31175

>  <target_id>  (1632) 
1

>  <reference_id>  (1632) 
112

>  <inspiration_ids>  (1632) 
[112, 120]

>  <energy_score>  (1632) 
-46.705506350835975

>  <distance_score>  (1632) 
13.173277990883983

>  <path>  (1632) 
/opt/xchem-fragalysis-2/maxwin/BulkDock/SCRATCH/511013/C31175-P112/C31175-P112.minimised.mol

>  <scratch_subdir>  (1632) 
/opt/xchem-fragalysis-2/maxwin/BulkDock/SCRATCH/511013/C31175-P112

>  <fragmenstein_runtime>  (1632) 
10.530253410339355

>  <fragmenstein_outcome>  (1632) 
too moved

>  <fragmenstein_mode>  (1632) 
expansion

>  <fragmenstein_error>  (1632) 


$$$$
C31175-P120
     RDKit          3D

 37 39  0  0  0  0  0  0  0  0999 V2000
   -3.0059  -13.2879   13.7702 O   0  0  0  0  0  0  0  0  0  0  0  0
   -3.8253  -13.3444   12.8885 C   0  0  0  0  0  0  0  0  0  0  0  0
   -3.8412  -12.0842   11.9541 C   0  0  0  0  0  0  0  0  0  0  0  0
   -2.4783  -11.8232   11.5342 O   0  0  0  0  0  0  0  0  0  0  0  0
   -1.9731  -10.5481   11.5734 C   0  0  0  0  0  0  0  0  0  0  0  0
   -2.2838   -9.4474   12.4308 C   0  0  0  0  0  0  0  0  0  0  0  0
   -1.5694   -8.3041   12.1136 C   0  0  0  0  0  0  0  0  0  0  0  0
   -0.5368   -8.5460   10.7710 S   0  0  0  0  0  0  0  0  0  0  0  0
   -0.9401  -10.2126   10.7158 C   0  0  0  0  0  0  0  0  0  0  0  0
   -4.7342  -14.4339   12.4923 N   0  0  0  0  0  0  0  0  0  0  0  0
   -4.8446  -15.7430   12.9600 C   0  0  0  0  0  0  0  0  0  0  0  0
   -3.7524  -16.2956   13.7036 C   0  0  0  0  0  0  0  0  0  0  0  0
   -3.8943  -17.5783   13.9848 N   0  0  0  0  0  0  0  0  0  0  0  0
   -5.0955  -17.9042   13.4563 O   0  0  0  0  0  0  0  0  0  0  0  0
   -5.7475  -16.8115   12.9224 C   0  0  0  0  0  0  0  0  0  0  0  0
   -7.1743  -17.2761   12.6953 C   0  0  0  0  0  0  0  0  0  0  0  0
   -7.4526  -18.9352   11.7853 C   0  0  0  0  0  0  0  0  0  0  0  0
   -8.9888  -19.4262   11.5796 C   0  0  0  0  0  0  0  0  0  0  0  0
   -9.9711  -18.5431   12.2731 O   0  0  0  0  0  0  0  0  0  0  0  0
   -9.8519  -17.0877   12.7478 C   0  0  0  0  0  0  0  0  0  0  0  0
   -8.4322  -16.3631   12.9501 C   0  0  0  0  0  0  0  0  0  0  0  0
   -4.4357  -12.2809   11.0577 H   0  0  0  0  0  0  0  0  0  0  0  0
   -4.2849  -11.2535   12.5103 H   0  0  0  0  0  0  0  0  0  0  0  0
   -3.0083   -9.4723   13.2329 H   0  0  0  0  0  0  0  0  0  0  0  0
   -1.6286   -7.3325   12.5839 H   0  0  0  0  0  0  0  0  0  0  0  0
   -0.4547  -10.8545    9.9940 H   0  0  0  0  0  0  0  0  0  0  0  0
   -5.3474  -14.1036   11.7572 H   0  0  0  0  0  0  0  0  0  0  0  0
   -2.8418  -15.8039   14.0097 H   0  0  0  0  0  0  0  0  0  0  0  0
   -7.1972  -17.5114   13.7744 H   0  0  0  0  0  0  0  0  0  0  0  0
   -7.0292  -19.0377   10.8607 H   0  0  0  0  0  0  0  0  0  0  0  0
   -6.8279  -19.7416   12.2067 H   0  0  0  0  0  0  0  0  0  0  0  0
   -9.2306  -19.5849   10.5241 H   0  0  0  0  0  0  0  0  0  0  0  0
   -9.1694  -20.4891   11.8028 H   0  0  0  0  0  0  0  0  0  0  0  0
  -10.4034  -16.4630   12.0339 H   0  0  0  0  0  0  0  0  0  0  0  0
  -10.4324  -17.0217   13.6775 H   0  0  0  0  0  0  0  0  0  0  0  0
   -8.4125  -15.9271   13.9598 H   0  0  0  0  0  0  0  0  0  0  0  0
   -8.3823  -15.4871   12.2878 H   0  0  0  0  0  0  0  0  0  0  0  0
  1  2  2  0
  2  3  1  0
  3  4  1  0
  4  5  1  0
  5  6  1  0
  6  7  2  0
  7  8  1  0
  8  9  1  0
  2 10  1  0
 10 11  1  0
 11 12  1  0
 12 13  2  0
 13 14  1  0
 14 15  1  0
 15 16  1  0
 16 17  1  0
 17 18  1  0
 18 19  1  0
 19 20  1  0
 20 21  1  0
  9  5  2  0
 15 11  2  0
 21 16  1  0
  3 22  1  0
  3 23  1  0
  6 24  1  0
  7 25  1  0
  9 26  1  0
 10 27  1  0
 12 28  1  0
 16 29  1  0
 17 30  1  0
 17 31  1  0
 18 32  1  0
 18 33  1  0
 20 34  1  0
 20 35  1  0
 21 36  1  0
 21 37  1  0
M  END
>  <Energy>  (1633) 
171.28546465369485

>  <compound_id>  (1633) 
31175

>  <target_id>  (1633) 
1

>  <reference_id>  (1633) 
120

>  <inspiration_ids>  (1633) 
[112, 120]

>  <energy_score>  (1633) 
69.21362452002174

>  <distance_score>  (1633) 
12.660024526971725

>  <path>  (1633) 
/opt/xchem-fragalysis-2/maxwin/BulkDock/SCRATCH/511013/C31175-P120/C31175-P120.minimised.mol

>  <scratch_subdir>  (1633) 
/opt/xchem-fragalysis-2/maxwin/BulkDock/SCRATCH/511013/C31175-P120

>  <fragmenstein_runtime>  (1633) 
14.071400880813599

>  <fragmenstein_outcome>  (1633) 
too moved

>  <fragmenstein_mode>  (1633) 
expansion

>  <fragmenstein_error>  (1633) 


$$$$
C31177-P112
     RDKit          3D

 42 44  0  0  0  0  0  0  0  0999 V2000
    8.1440   -6.6477   14.5858 C   0  0  0  0  0  0  0  0  0  0  0  0
    6.4891   -6.7311   14.9884 C   0  0  0  0  0  0  0  0  0  0  0  0
    5.2831   -7.5668   13.5166 C   0  0  0  0  0  0  0  0  0  0  0  0
    3.6647   -7.8245   12.4162 N   0  0  0  0  0  0  0  0  0  0  0  0
    2.9750   -9.3516   11.5110 C   0  0  0  0  0  0  0  0  0  0  0  0
    3.4410  -10.4354   11.3406 O   0  0  0  0  0  0  0  0  0  0  0  0
    1.1709   -9.3132   10.8892 C   0  0  0  0  0  0  0  0  0  0  0  0
    0.4757   -8.0610   10.6282 C   0  0  0  0  0  0  0  0  0  0  0  0
   -0.8188   -8.1628   10.3810 N   0  0  0  0  0  0  0  0  0  0  0  0
   -1.1349   -9.4501   10.5934 O   0  0  0  0  0  0  0  0  0  0  0  0
   -0.0816  -10.1808   11.1208 C   0  0  0  0  0  0  0  0  0  0  0  0
   -0.9060  -11.5077   11.6266 C   0  0  0  0  0  0  0  0  0  0  0  0
   -2.1701  -11.1890   12.4956 C   0  0  0  0  0  0  0  0  0  0  0  0
   -3.0461  -12.4184   12.8213 C   0  0  0  0  0  0  0  0  0  0  0  0
   -2.6493  -13.5733   12.1003 O   0  0  0  0  0  0  0  0  0  0  0  0
   -1.2958  -13.9247   12.3901 C   0  0  0  0  0  0  0  0  0  0  0  0
   -0.2788  -12.7726   12.1643 C   0  0  0  0  0  0  0  0  0  0  0  0
    6.6927   -5.0230   15.6984 C   0  0  0  0  0  0  0  0  0  0  0  0
    5.7203   -3.3722   15.1776 C   0  0  0  0  0  0  0  0  0  0  0  0
    6.1721   -2.2230   14.5258 C   0  0  0  0  0  0  0  0  0  0  0  0
    7.8360   -2.0543   14.5197 S   0  0  0  0  0  0  0  0  0  0  0  0
    8.0824   -3.8045   15.5633 C   0  0  0  0  0  0  0  0  0  0  0  0
    9.1070   -7.0426   15.0073 H   0  0  0  0  0  0  0  0  0  0  0  0
    8.1335   -6.9021   13.5033 H   0  0  0  0  0  0  0  0  0  0  0  0
    8.3695   -5.6259   14.5263 H   0  0  0  0  0  0  0  0  0  0  0  0
    6.2785   -6.9079   16.0366 H   0  0  0  0  0  0  0  0  0  0  0  0
    4.3967   -7.2201   14.0827 H   0  0  0  0  0  0  0  0  0  0  0  0
    5.1995   -8.5726   13.9589 H   0  0  0  0  0  0  0  0  0  0  0  0
    3.0680   -7.0752   12.2935 H   0  0  0  0  0  0  0  0  0  0  0  0
    0.9099   -7.0724   10.6106 H   0  0  0  0  0  0  0  0  0  0  0  0
   -1.4104  -11.8193   10.7093 H   0  0  0  0  0  0  0  0  0  0  0  0
   -2.8074  -10.4636   11.9739 H   0  0  0  0  0  0  0  0  0  0  0  0
   -1.8847  -10.6853   13.4245 H   0  0  0  0  0  0  0  0  0  0  0  0
   -3.0169  -12.6364   13.8950 H   0  0  0  0  0  0  0  0  0  0  0  0
   -4.0907  -12.2051   12.5712 H   0  0  0  0  0  0  0  0  0  0  0  0
   -1.0377  -14.7709   11.7452 H   0  0  0  0  0  0  0  0  0  0  0  0
   -1.2402  -14.2951   13.4189 H   0  0  0  0  0  0  0  0  0  0  0  0
    0.5358  -13.1411   11.5522 H   0  0  0  0  0  0  0  0  0  0  0  0
    0.2381  -12.5383   13.0793 H   0  0  0  0  0  0  0  0  0  0  0  0
    4.6374   -3.3676   15.4467 H   0  0  0  0  0  0  0  0  0  0  0  0
    5.5556   -1.4185   14.1513 H   0  0  0  0  0  0  0  0  0  0  0  0
    7.9343   -2.8573   16.0178 H   0  0  0  0  0  0  0  0  0  0  0  0
  1  2  1  0
  2  3  1  0
  3  4  1  0
  4  5  1  0
  5  6  2  0
  5  7  1  0
  7  8  1  0
  8  9  2  0
  9 10  1  0
 10 11  1  0
 11 12  1  0
 12 13  1  0
 13 14  1  0
 14 15  1  0
 15 16  1  0
 16 17  1  0
  2 18  1  0
 18 19  1  0
 19 20  2  0
 20 21  1  0
 21 22  1  0
 11  7  2  0
 17 12  1  0
 22 18  2  0
  1 23  1  0
  1 24  1  0
  1 25  1  0
  2 26  1  0
  3 27  1  0
  3 28  1  0
  4 29  1  0
  8 30  1  0
 12 31  1  0
 13 32  1  0
 13 33  1  0
 14 34  1  0
 14 35  1  0
 16 36  1  0
 16 37  1  0
 17 38  1  0
 17 39  1  0
 19 40  1  0
 20 41  1  0
 22 42  1  0
M  END
>  <Energy>  (1634) 
762.45616811248681

>  <compound_id>  (1634) 
31177

>  <target_id>  (1634) 
1

>  <reference_id>  (1634) 
112

>  <inspiration_ids>  (1634) 
[112, 120]

>  <energy_score>  (1634) 
711.9947540593182

>  <distance_score>  (1634) 
15.692248319743955

>  <path>  (1634) 
/opt/xchem-fragalysis-2/maxwin/BulkDock/SCRATCH/511013/C31177-P112/C31177-P112.minimised.mol

>  <scratch_subdir>  (1634) 
/opt/xchem-fragalysis-2/maxwin/BulkDock/SCRATCH/511013/C31177-P112

>  <fragmenstein_runtime>  (1634) 
16.4197518825531

>  <fragmenstein_outcome>  (1634) 
too moved

>  <fragmenstein_mode>  (1634) 
expansion

>  <fragmenstein_error>  (1634) 


$$$$
C31177-P120
     RDKit          3D

 42 44  0  0  0  0  0  0  0  0999 V2000
    3.1636  -12.0154    9.5202 C   0  0  0  0  0  0  0  0  0  0  0  0
    2.4252  -11.7240   10.9062 C   0  0  0  0  0  0  0  0  0  0  0  0
    0.6513  -11.8020   11.4125 C   0  0  0  0  0  0  0  0  0  0  0  0
   -0.2554  -13.0463   11.7992 N   0  0  0  0  0  0  0  0  0  0  0  0
   -1.7522  -13.2703   11.6463 C   0  0  0  0  0  0  0  0  0  0  0  0
   -2.5919  -12.5888   11.1221 O   0  0  0  0  0  0  0  0  0  0  0  0
   -2.3236  -14.5217   12.3643 C   0  0  0  0  0  0  0  0  0  0  0  0
   -1.8043  -15.0562   13.5755 C   0  0  0  0  0  0  0  0  0  0  0  0
   -2.4423  -16.1241   14.0440 N   0  0  0  0  0  0  0  0  0  0  0  0
   -3.5097  -16.2795   13.2188 O   0  0  0  0  0  0  0  0  0  0  0  0
   -3.5245  -15.3030   12.2490 C   0  0  0  0  0  0  0  0  0  0  0  0
   -4.8591  -15.4003   11.4848 C   0  0  0  0  0  0  0  0  0  0  0  0
   -5.9876  -14.7362   12.3097 C   0  0  0  0  0  0  0  0  0  0  0  0
   -7.3831  -15.0018   11.7460 C   0  0  0  0  0  0  0  0  0  0  0  0
   -7.6553  -16.3940   11.6855 O   0  0  0  0  0  0  0  0  0  0  0  0
   -6.7528  -17.0516   10.8056 C   0  0  0  0  0  0  0  0  0  0  0  0
   -5.2926  -16.8847   11.2375 C   0  0  0  0  0  0  0  0  0  0  0  0
    3.1296  -10.6239   11.7588 C   0  0  0  0  0  0  0  0  0  0  0  0
    3.1911   -9.4372   11.0298 C   0  0  0  0  0  0  0  0  0  0  0  0
    3.5054   -8.0826   11.6394 C   0  0  0  0  0  0  0  0  0  0  0  0
    4.3852   -8.3305   13.5389 S   0  0  0  0  0  0  0  0  0  0  0  0
    3.9637  -10.3570   13.1881 C   0  0  0  0  0  0  0  0  0  0  0  0
    3.5528  -11.1631    8.9744 H   0  0  0  0  0  0  0  0  0  0  0  0
    3.9326  -12.7801    9.6811 H   0  0  0  0  0  0  0  0  0  0  0  0
    2.6263  -12.6119    8.7875 H   0  0  0  0  0  0  0  0  0  0  0  0
    2.7400  -12.7078   11.0934 H   0  0  0  0  0  0  0  0  0  0  0  0
    0.7759  -11.4671   12.4079 H   0  0  0  0  0  0  0  0  0  0  0  0
    0.0450  -11.0017   10.9714 H   0  0  0  0  0  0  0  0  0  0  0  0
    0.1356  -13.7837   12.3684 H   0  0  0  0  0  0  0  0  0  0  0  0
   -0.9854  -14.6752   14.1591 H   0  0  0  0  0  0  0  0  0  0  0  0
   -4.7555  -14.8888   10.5206 H   0  0  0  0  0  0  0  0  0  0  0  0
   -5.8127  -13.6553   12.3712 H   0  0  0  0  0  0  0  0  0  0  0  0
   -5.9568  -15.1203   13.3385 H   0  0  0  0  0  0  0  0  0  0  0  0
   -8.1345  -14.5441   12.3976 H   0  0  0  0  0  0  0  0  0  0  0  0
   -7.4979  -14.5567   10.7504 H   0  0  0  0  0  0  0  0  0  0  0  0
   -7.0233  -18.1081   10.8252 H   0  0  0  0  0  0  0  0  0  0  0  0
   -6.9028  -16.6843    9.7838 H   0  0  0  0  0  0  0  0  0  0  0  0
   -5.1821  -17.4646   12.1625 H   0  0  0  0  0  0  0  0  0  0  0  0
   -4.6263  -17.3466   10.4995 H   0  0  0  0  0  0  0  0  0  0  0  0
    3.7107   -9.6564   10.1143 H   0  0  0  0  0  0  0  0  0  0  0  0
    3.7829   -7.0732   11.4922 H   0  0  0  0  0  0  0  0  0  0  0  0
    4.3264  -10.9396   14.0252 H   0  0  0  0  0  0  0  0  0  0  0  0
  1  2  1  0
  2  3  1  0
  3  4  1  0
  4  5  1  0
  5  6  2  0
  5  7  1  0
  7  8  1  0
  8  9  2  0
  9 10  1  0
 10 11  1  0
 11 12  1  0
 12 13  1  0
 13 14  1  0
 14 15  1  0
 15 16  1  0
 16 17  1  0
  2 18  1  0
 18 19  1  0
 19 20  2  0
 20 21  1  0
 21 22  1  0
 11  7  2  0
 17 12  1  0
 22 18  2  0
  1 23  1  0
  1 24  1  0
  1 25  1  0
  2 26  1  0
  3 27  1  0
  3 28  1  0
  4 29  1  0
  8 30  1  0
 12 31  1  0
 13 32  1  0
 13 33  1  0
 14 34  1  0
 14 35  1  0
 16 36  1  0
 16 37  1  0
 17 38  1  0
 17 39  1  0
 19 40  1  0
 20 41  1  0
 22 42  1  0
M  END
>  <Energy>  (1635) 
226.47814883670654

>  <compound_id>  (1635) 
31177

>  <target_id>  (1635) 
1

>  <reference_id>  (1635) 
120

>  <inspiration_ids>  (1635) 
[112, 120]

>  <energy_score>  (1635) 
176.01673478353348

>  <distance_score>  (1635) 
14.103373799830543

>  <path>  (1635) 
/opt/xchem-fragalysis-2/maxwin/BulkDock/SCRATCH/511013/C31177-P120/C31177-P120.minimised.mol

>  <scratch_subdir>  (1635) 
/opt/xchem-fragalysis-2/maxwin/BulkDock/SCRATCH/511013/C31177-P120

>  <fragmenstein_runtime>  (1635) 
13.79386305809021

>  <fragmenstein_outcome>  (1635) 
too moved

>  <fragmenstein_mode>  (1635) 
expansion

>  <fragmenstein_error>  (1635) 


$$$$
C31188-P112
     RDKit          3D

 39 40  0  0  0  0  0  0  0  0999 V2000
    6.0854   -7.7744    7.5915 C   0  0  0  0  0  0  0  0  0  0  0  0
    7.5931   -8.0745    7.7557 C   0  0  0  0  0  0  0  0  0  0  0  0
    8.1995   -7.4122    6.5300 C   0  0  0  0  0  0  0  0  0  0  0  0
    7.6892   -9.5935    7.4828 C   0  0  0  0  0  0  0  0  0  0  0  0
    6.8000  -10.4226    7.6234 O   0  0  0  0  0  0  0  0  0  0  0  0
    8.8675  -10.0228    6.9776 O   0  0  0  0  0  0  0  0  0  0  0  0
    8.3467   -7.6649    8.9957 N   0  0  0  0  0  0  0  0  0  0  0  0
    9.5264   -8.2483    9.3068 C   0  0  0  0  0  0  0  0  0  0  0  0
    9.5531   -8.3051   10.6772 C   0  0  0  0  0  0  0  0  0  0  0  0
    8.6305   -7.3092   11.3885 C   0  0  0  0  0  0  0  0  0  0  0  0
    7.9076   -6.2125   12.5735 N   0  0  0  0  0  0  0  0  0  0  0  0
    8.7343   -4.8752   14.0010 C   0  0  0  0  0  0  0  0  0  0  0  0
   10.0615   -4.8639   14.2057 O   0  0  0  0  0  0  0  0  0  0  0  0
    8.0034   -3.3373   15.0223 C   0  0  0  0  0  0  0  0  0  0  0  0
    9.1323   -2.2666   14.9178 N   0  0  0  0  0  0  0  0  0  0  0  0
   10.4942   -2.2717   15.4054 C   0  0  0  0  0  0  0  0  0  0  0  0
   11.0776   -3.0659   16.0839 O   0  0  0  0  0  0  0  0  0  0  0  0
   11.2885   -1.1134   14.9470 C   0  0  0  0  0  0  0  0  0  0  0  0
   12.7310   -1.1360   14.9067 C   0  0  0  0  0  0  0  0  0  0  0  0
   13.2778    0.0351   14.4419 C   0  0  0  0  0  0  0  0  0  0  0  0
   12.0761    1.1830   14.0571 S   0  0  0  0  0  0  0  0  0  0  0  0
   10.8228    0.1237   14.5418 C   0  0  0  0  0  0  0  0  0  0  0  0
    7.9406   -6.8013   10.0514 N   0  0  0  0  0  0  0  0  0  0  0  0
    5.4232   -8.3234    8.2386 H   0  0  0  0  0  0  0  0  0  0  0  0
    5.7422   -8.0434    6.5816 H   0  0  0  0  0  0  0  0  0  0  0  0
    5.9375   -6.6945    7.6740 H   0  0  0  0  0  0  0  0  0  0  0  0
    8.0394   -6.3267    6.5479 H   0  0  0  0  0  0  0  0  0  0  0  0
    7.7884   -7.7943    5.5870 H   0  0  0  0  0  0  0  0  0  0  0  0
    9.2862   -7.5544    6.4764 H   0  0  0  0  0  0  0  0  0  0  0  0
    8.7351  -10.9881    6.8616 H   0  0  0  0  0  0  0  0  0  0  0  0
   10.1401   -8.7666    8.5851 H   0  0  0  0  0  0  0  0  0  0  0  0
   10.2927   -9.0094   11.0547 H   0  0  0  0  0  0  0  0  0  0  0  0
    6.9093   -6.0358   12.4771 H   0  0  0  0  0  0  0  0  0  0  0  0
    7.6392   -2.8202   14.0880 H   0  0  0  0  0  0  0  0  0  0  0  0
    7.0461   -2.9107   15.2861 H   0  0  0  0  0  0  0  0  0  0  0  0
    9.0048   -1.4697   14.2947 H   0  0  0  0  0  0  0  0  0  0  0  0
   13.3212   -1.9989   15.1991 H   0  0  0  0  0  0  0  0  0  0  0  0
   14.3251    0.2674   14.3089 H   0  0  0  0  0  0  0  0  0  0  0  0
    9.8019    0.4728   14.4787 H   0  0  0  0  0  0  0  0  0  0  0  0
  1  2  1  0
  2  3  1  0
  2  4  1  0
  4  5  2  0
  4  6  1  0
  2  7  1  0
  7  8  1  0
  8  9  2  0
  9 10  1  0
 10 11  1  0
 11 12  1  0
 12 13  2  0
 12 14  1  0
 14 15  1  0
 15 16  1  0
 16 17  2  0
 16 18  1  0
 18 19  1  0
 19 20  2  0
 20 21  1  0
 21 22  1  0
 10 23  2  0
 23  7  1  0
 22 18  2  0
  1 24  1  0
  1 25  1  0
  1 26  1  0
  3 27  1  0
  3 28  1  0
  3 29  1  0
  6 30  1  0
  8 31  1  0
  9 32  1  0
 11 33  1  0
 14 34  1  0
 14 35  1  0
 15 36  1  0
 19 37  1  0
 20 38  1  0
 22 39  1  0
M  END
>  <Energy>  (1636) 
483.28179341976448

>  <compound_id>  (1636) 
31188

>  <target_id>  (1636) 
1

>  <reference_id>  (1636) 
112

>  <inspiration_ids>  (1636) 
[112, 120]

>  <energy_score>  (1636) 
422.27983651075294

>  <distance_score>  (1636) 
17.80297286404467

>  <path>  (1636) 
/opt/xchem-fragalysis-2/maxwin/BulkDock/SCRATCH/511013/C31188-P112/C31188-P112.minimised.mol

>  <scratch_subdir>  (1636) 
/opt/xchem-fragalysis-2/maxwin/BulkDock/SCRATCH/511013/C31188-P112

>  <fragmenstein_runtime>  (1636) 
17.585225343704224

>  <fragmenstein_outcome>  (1636) 
too moved

>  <fragmenstein_mode>  (1636) 
expansion

>  <fragmenstein_error>  (1636) 


$$$$
C31188-P120
     RDKit          3D

 39 40  0  0  0  0  0  0  0  0999 V2000
   -2.0793  -13.9341   16.8613 C   0  0  0  0  0  0  0  0  0  0  0  0
   -1.8776  -14.5601   15.3669 C   0  0  0  0  0  0  0  0  0  0  0  0
   -3.6669  -14.6361   14.4866 C   0  0  0  0  0  0  0  0  0  0  0  0
   -2.9072  -16.0389   15.5966 C   0  0  0  0  0  0  0  0  0  0  0  0
   -3.0317  -17.0199   14.8634 O   0  0  0  0  0  0  0  0  0  0  0  0
   -3.6833  -16.0896   16.7343 O   0  0  0  0  0  0  0  0  0  0  0  0
   -0.5719  -13.7957   13.9774 N   0  0  0  0  0  0  0  0  0  0  0  0
   -0.1402  -13.4601   12.4943 C   0  0  0  0  0  0  0  0  0  0  0  0
    0.3878  -12.1012   12.4050 C   0  0  0  0  0  0  0  0  0  0  0  0
    1.4736  -11.7385   13.6426 C   0  0  0  0  0  0  0  0  0  0  0  0
    3.0745  -10.6316   13.3304 N   0  0  0  0  0  0  0  0  0  0  0  0
    3.6174   -8.9860   14.0682 C   0  0  0  0  0  0  0  0  0  0  0  0
    2.9740   -8.4644   15.0075 O   0  0  0  0  0  0  0  0  0  0  0  0
    4.8664   -7.8526   13.5227 C   0  0  0  0  0  0  0  0  0  0  0  0
    4.6839   -6.4812   12.4918 N   0  0  0  0  0  0  0  0  0  0  0  0
    4.0201   -5.1857   12.7164 C   0  0  0  0  0  0  0  0  0  0  0  0
    3.3685   -4.7912   13.6458 O   0  0  0  0  0  0  0  0  0  0  0  0
    4.3087   -4.2016   11.6418 C   0  0  0  0  0  0  0  0  0  0  0  0
    4.3807   -2.7803   11.9121 C   0  0  0  0  0  0  0  0  0  0  0  0
    4.9271   -2.0578   10.8770 C   0  0  0  0  0  0  0  0  0  0  0  0
    5.2908   -3.0489    9.5386 S   0  0  0  0  0  0  0  0  0  0  0  0
    4.7156   -4.4495   10.3436 C   0  0  0  0  0  0  0  0  0  0  0  0
    1.1318  -13.1645   14.1072 N   0  0  0  0  0  0  0  0  0  0  0  0
   -3.0693  -13.5495   17.0212 H   0  0  0  0  0  0  0  0  0  0  0  0
   -1.3516  -13.2376   17.2630 H   0  0  0  0  0  0  0  0  0  0  0  0
   -2.1191  -14.7050   17.6399 H   0  0  0  0  0  0  0  0  0  0  0  0
   -4.4774  -14.6615   15.2351 H   0  0  0  0  0  0  0  0  0  0  0  0
   -3.9075  -15.4928   13.8212 H   0  0  0  0  0  0  0  0  0  0  0  0
   -3.8761  -13.8776   13.7321 H   0  0  0  0  0  0  0  0  0  0  0  0
   -3.8210  -15.3396   17.3346 H   0  0  0  0  0  0  0  0  0  0  0  0
   -0.3999  -14.1690   11.7153 H   0  0  0  0  0  0  0  0  0  0  0  0
    0.5055  -11.5402   11.4909 H   0  0  0  0  0  0  0  0  0  0  0  0
    3.6389  -10.8212   12.5631 H   0  0  0  0  0  0  0  0  0  0  0  0
    5.9132   -7.9592   13.8214 H   0  0  0  0  0  0  0  0  0  0  0  0
    4.5297   -7.0592   14.1972 H   0  0  0  0  0  0  0  0  0  0  0  0
    5.2139   -6.4358   11.6346 H   0  0  0  0  0  0  0  0  0  0  0  0
    4.1211   -2.3372   12.8673 H   0  0  0  0  0  0  0  0  0  0  0  0
    5.1353   -0.9971   10.8472 H   0  0  0  0  0  0  0  0  0  0  0  0
    4.7772   -5.3942    9.8237 H   0  0  0  0  0  0  0  0  0  0  0  0
  1  2  1  0
  2  3  1  0
  2  4  1  0
  4  5  2  0
  4  6  1  0
  2  7  1  0
  7  8  1  0
  8  9  2  0
  9 10  1  0
 10 11  1  0
 11 12  1  0
 12 13  2  0
 12 14  1  0
 14 15  1  0
 15 16  1  0
 16 17  2  0
 16 18  1  0
 18 19  1  0
 19 20  2  0
 20 21  1  0
 21 22  1  0
 10 23  2  0
 23  7  1  0
 22 18  2  0
  1 24  1  0
  1 25  1  0
  1 26  1  0
  3 27  1  0
  3 28  1  0
  3 29  1  0
  6 30  1  0
  8 31  1  0
  9 32  1  0
 11 33  1  0
 14 34  1  0
 14 35  1  0
 15 36  1  0
 19 37  1  0
 20 38  1  0
 22 39  1  0
M  END
>  <Energy>  (1637) 
821.02504029100669

>  <compound_id>  (1637) 
31188

>  <target_id>  (1637) 
1

>  <reference_id>  (1637) 
120

>  <inspiration_ids>  (1637) 
[112, 120]

>  <energy_score>  (1637) 
760.0230833820054

>  <distance_score>  (1637) 
13.74675345718385

>  <path>  (1637) 
/opt/xchem-fragalysis-2/maxwin/BulkDock/SCRATCH/511013/C31188-P120/C31188-P120.minimised.mol

>  <scratch_subdir>  (1637) 
/opt/xchem-fragalysis-2/maxwin/BulkDock/SCRATCH/511013/C31188-P120

>  <fragmenstein_runtime>  (1637) 
16.177355527877808

>  <fragmenstein_outcome>  (1637) 
too moved

>  <fragmenstein_mode>  (1637) 
expansion

>  <fragmenstein_error>  (1637) 


$$$$
C31192-P112
     RDKit          3D

 43 44  0  0  0  0  0  0  0  0999 V2000
    7.2057   -2.6219   14.9503 C   0  0  0  0  0  0  0  0  0  0  0  0
    7.9564   -4.2022   15.6468 C   0  0  0  0  0  0  0  0  0  0  0  0
    6.4030   -5.7424   15.6979 C   0  0  0  0  0  0  0  0  0  0  0  0
    5.3478   -7.5426   15.1583 C   0  0  0  0  0  0  0  0  0  0  0  0
    3.6664   -8.6868   15.0441 N   0  0  0  0  0  0  0  0  0  0  0  0
    3.3198  -10.5220   14.3790 C   0  0  0  0  0  0  0  0  0  0  0  0
    4.3567  -11.0417   14.0756 O   0  0  0  0  0  0  0  0  0  0  0  0
    1.4262  -11.8931   14.0006 C   0  0  0  0  0  0  0  0  0  0  0  0
   -0.1390  -13.3699   13.6534 O   0  0  0  0  0  0  0  0  0  0  0  0
   -1.5646  -14.4212   14.6547 C   0  0  0  0  0  0  0  0  0  0  0  0
   -2.5531  -16.2012   14.7978 C   0  0  0  0  0  0  0  0  0  0  0  0
   -3.4773  -17.0300   15.2383 N   0  0  0  0  0  0  0  0  0  0  0  0
   -4.2512  -16.1288   15.4750 N   0  0  0  0  0  0  0  0  0  0  0  0
   -5.4736  -16.3864   14.0603 C   0  0  0  0  0  0  0  0  0  0  0  0
   -3.1057  -14.6406   15.6586 C   0  0  0  0  0  0  0  0  0  0  0  0
    9.4661   -3.3699   15.1239 N   0  0  0  0  0  0  0  0  0  0  0  0
   10.8816   -3.6536   15.4212 C   0  0  0  0  0  0  0  0  0  0  0  0
   11.3888   -4.5596   16.0233 O   0  0  0  0  0  0  0  0  0  0  0  0
   11.7958   -2.6049   14.9181 C   0  0  0  0  0  0  0  0  0  0  0  0
   13.2186   -2.8071   14.7969 C   0  0  0  0  0  0  0  0  0  0  0  0
   13.8898   -1.6980   14.3408 C   0  0  0  0  0  0  0  0  0  0  0  0
   12.8329   -0.3879   14.0704 S   0  0  0  0  0  0  0  0  0  0  0  0
   11.4776   -1.3027   14.5765 C   0  0  0  0  0  0  0  0  0  0  0  0
    6.1217   -2.7075   14.7909 H   0  0  0  0  0  0  0  0  0  0  0  0
    7.6070   -2.3795   13.9674 H   0  0  0  0  0  0  0  0  0  0  0  0
    7.5088   -1.7652   15.5608 H   0  0  0  0  0  0  0  0  0  0  0  0
    8.4426   -4.7540   14.7452 H   0  0  0  0  0  0  0  0  0  0  0  0
    7.2152   -6.2299   15.2210 H   0  0  0  0  0  0  0  0  0  0  0  0
    6.3078   -5.8696   16.7864 H   0  0  0  0  0  0  0  0  0  0  0  0
    5.4123   -7.4161   14.0691 H   0  0  0  0  0  0  0  0  0  0  0  0
    6.0246   -8.3538   15.4281 H   0  0  0  0  0  0  0  0  0  0  0  0
    2.7830   -8.3077   15.3743 H   0  0  0  0  0  0  0  0  0  0  0  0
    1.5129  -11.2293   13.0625 H   0  0  0  0  0  0  0  0  0  0  0  0
    0.8670  -11.9825   13.0076 H   0  0  0  0  0  0  0  0  0  0  0  0
   -2.0233  -17.1327   14.5683 H   0  0  0  0  0  0  0  0  0  0  0  0
   -5.1519  -15.6766   13.2761 H   0  0  0  0  0  0  0  0  0  0  0  0
   -6.5765  -16.2583   14.2899 H   0  0  0  0  0  0  0  0  0  0  0  0
   -5.5399  -17.4910   13.9242 H   0  0  0  0  0  0  0  0  0  0  0  0
   -3.2294  -14.2849   16.6768 H   0  0  0  0  0  0  0  0  0  0  0  0
    9.4097   -2.5565   14.5194 H   0  0  0  0  0  0  0  0  0  0  0  0
   13.7105   -3.7441   15.0404 H   0  0  0  0  0  0  0  0  0  0  0  0
   14.9512   -1.5978   14.1605 H   0  0  0  0  0  0  0  0  0  0  0  0
   10.5152   -0.8115   14.5923 H   0  0  0  0  0  0  0  0  0  0  0  0
  1  2  1  0
  2  3  1  0
  3  4  1  0
  4  5  1  0
  5  6  1  0
  6  7  2  0
  6  8  1  0
  8  9  1  0
  9 10  1  0
 10 11  1  0
 11 12  2  0
 12 13  1  0
 13 14  1  0
 13 15  1  0
  2 16  1  0
 16 17  1  0
 17 18  2  0
 17 19  1  0
 19 20  1  0
 20 21  2  0
 21 22  1  0
 22 23  1  0
 15 10  2  0
 23 19  2  0
  1 24  1  0
  1 25  1  0
  1 26  1  0
  2 27  1  0
  3 28  1  0
  3 29  1  0
  4 30  1  0
  4 31  1  0
  5 32  1  0
  8 33  1  0
  8 34  1  0
 11 35  1  0
 14 36  1  0
 14 37  1  0
 14 38  1  0
 15 39  1  0
 16 40  1  0
 20 41  1  0
 21 42  1  0
 23 43  1  0
M  END
>  <Energy>  (1638) 
2054.1406283241558

>  <compound_id>  (1638) 
31192

>  <target_id>  (1638) 
1

>  <reference_id>  (1638) 
112

>  <inspiration_ids>  (1638) 
[112, 120]

>  <energy_score>  (1638) 
2005.9522071607544

>  <distance_score>  (1638) 
10.972681237914832

>  <path>  (1638) 
/opt/xchem-fragalysis-2/maxwin/BulkDock/SCRATCH/511013/C31192-P112/C31192-P112.minimised.mol

>  <scratch_subdir>  (1638) 
/opt/xchem-fragalysis-2/maxwin/BulkDock/SCRATCH/511013/C31192-P112

>  <fragmenstein_runtime>  (1638) 
14.94962453842163

>  <fragmenstein_outcome>  (1638) 
too moved

>  <fragmenstein_mode>  (1638) 
expansion

>  <fragmenstein_error>  (1638) 


$$$$
C31192-P120
     RDKit          3D

 43 44  0  0  0  0  0  0  0  0999 V2000
    5.9320  -13.4707    7.3094 C   0  0  0  0  0  0  0  0  0  0  0  0
    5.3605  -13.7436    8.6983 C   0  0  0  0  0  0  0  0  0  0  0  0
    3.8596  -14.0982    8.6306 C   0  0  0  0  0  0  0  0  0  0  0  0
    3.6386  -15.6128    8.2823 C   0  0  0  0  0  0  0  0  0  0  0  0
    2.3345  -16.2698    8.5083 N   0  0  0  0  0  0  0  0  0  0  0  0
    2.0073  -17.6525    8.8806 C   0  0  0  0  0  0  0  0  0  0  0  0
    2.7223  -18.5731    9.1719 O   0  0  0  0  0  0  0  0  0  0  0  0
    0.4253  -17.9573    8.8549 C   0  0  0  0  0  0  0  0  0  0  0  0
    0.1686  -19.3793    8.9071 O   0  0  0  0  0  0  0  0  0  0  0  0
   -1.1081  -19.8244    9.1107 C   0  0  0  0  0  0  0  0  0  0  0  0
   -2.3959  -19.2851    8.8931 C   0  0  0  0  0  0  0  0  0  0  0  0
   -3.3872  -20.1172    9.2654 N   0  0  0  0  0  0  0  0  0  0  0  0
   -2.7254  -21.2240    9.6822 N   0  0  0  0  0  0  0  0  0  0  0  0
   -3.4448  -22.3811   10.1787 C   0  0  0  0  0  0  0  0  0  0  0  0
   -1.3653  -21.0932    9.5879 C   0  0  0  0  0  0  0  0  0  0  0  0
    5.6481  -12.6301    9.5960 N   0  0  0  0  0  0  0  0  0  0  0  0
    5.1870  -11.2754    9.5901 C   0  0  0  0  0  0  0  0  0  0  0  0
    4.3855  -10.7284    8.8934 O   0  0  0  0  0  0  0  0  0  0  0  0
    5.8400  -10.4502   10.6609 C   0  0  0  0  0  0  0  0  0  0  0  0
    6.5906  -10.8524   11.8332 C   0  0  0  0  0  0  0  0  0  0  0  0
    6.9773   -9.7952   12.6301 C   0  0  0  0  0  0  0  0  0  0  0  0
    6.5041   -8.3056   11.9648 S   0  0  0  0  0  0  0  0  0  0  0  0
    5.7587   -9.0621   10.6370 C   0  0  0  0  0  0  0  0  0  0  0  0
    7.0024  -13.2443    7.3691 H   0  0  0  0  0  0  0  0  0  0  0  0
    5.8082  -14.3376    6.6531 H   0  0  0  0  0  0  0  0  0  0  0  0
    5.4413  -12.6124    6.8376 H   0  0  0  0  0  0  0  0  0  0  0  0
    5.9081  -14.5879    9.1340 H   0  0  0  0  0  0  0  0  0  0  0  0
    3.3408  -13.4784    7.8894 H   0  0  0  0  0  0  0  0  0  0  0  0
    3.3920  -13.8679    9.5817 H   0  0  0  0  0  0  0  0  0  0  0  0
    4.3630  -16.2195    8.8381 H   0  0  0  0  0  0  0  0  0  0  0  0
    3.8605  -15.7633    7.2198 H   0  0  0  0  0  0  0  0  0  0  0  0
    1.4839  -15.7875    8.2454 H   0  0  0  0  0  0  0  0  0  0  0  0
   -0.0136  -17.4652    9.7292 H   0  0  0  0  0  0  0  0  0  0  0  0
    0.0095  -17.5524    7.9267 H   0  0  0  0  0  0  0  0  0  0  0  0
   -2.6591  -18.3148    8.4973 H   0  0  0  0  0  0  0  0  0  0  0  0
   -2.7572  -23.2311   10.2084 H   0  0  0  0  0  0  0  0  0  0  0  0
   -4.2562  -22.6088    9.4878 H   0  0  0  0  0  0  0  0  0  0  0  0
   -3.7840  -22.1585   11.1903 H   0  0  0  0  0  0  0  0  0  0  0  0
   -0.6962  -21.8858    9.8898 H   0  0  0  0  0  0  0  0  0  0  0  0
    6.2702  -12.7617   10.3775 H   0  0  0  0  0  0  0  0  0  0  0  0
    6.8035  -11.8733   12.1206 H   0  0  0  0  0  0  0  0  0  0  0  0
    7.5106   -9.8342   13.5706 H   0  0  0  0  0  0  0  0  0  0  0  0
    5.2648   -8.4570    9.8869 H   0  0  0  0  0  0  0  0  0  0  0  0
  1  2  1  0
  2  3  1  0
  3  4  1  0
  4  5  1  0
  5  6  1  0
  6  7  2  0
  6  8  1  0
  8  9  1  0
  9 10  1  0
 10 11  1  0
 11 12  2  0
 12 13  1  0
 13 14  1  0
 13 15  1  0
  2 16  1  0
 16 17  1  0
 17 18  2  0
 17 19  1  0
 19 20  1  0
 20 21  2  0
 21 22  1  0
 22 23  1  0
 15 10  2  0
 23 19  2  0
  1 24  1  0
  1 25  1  0
  1 26  1  0
  2 27  1  0
  3 28  1  0
  3 29  1  0
  4 30  1  0
  4 31  1  0
  5 32  1  0
  8 33  1  0
  8 34  1  0
 11 35  1  0
 14 36  1  0
 14 37  1  0
 14 38  1  0
 15 39  1  0
 16 40  1  0
 20 41  1  0
 21 42  1  0
 23 43  1  0
M  END
>  <Energy>  (1639) 
34.953615788425687

>  <compound_id>  (1639) 
31192

>  <target_id>  (1639) 
1

>  <reference_id>  (1639) 
120

>  <inspiration_ids>  (1639) 
[112, 120]

>  <energy_score>  (1639) 
-13.23480537498881

>  <distance_score>  (1639) 
15.160888655638603

>  <path>  (1639) 
/opt/xchem-fragalysis-2/maxwin/BulkDock/SCRATCH/511013/C31192-P120/C31192-P120.minimised.mol

>  <scratch_subdir>  (1639) 
/opt/xchem-fragalysis-2/maxwin/BulkDock/SCRATCH/511013/C31192-P120

>  <fragmenstein_runtime>  (1639) 
17.895438194274902

>  <fragmenstein_outcome>  (1639) 
too moved

>  <fragmenstein_mode>  (1639) 
expansion

>  <fragmenstein_error>  (1639) 


$$$$
C31194-P112
     RDKit          3D

 47 48  0  0  0  0  0  0  0  0999 V2000
   -2.3892   -4.9135    8.1928 C   0  0  0  0  0  0  0  0  0  0  0  0
   -1.4306   -5.6058    9.1561 C   0  0  0  0  0  0  0  0  0  0  0  0
   -1.4726   -4.9903   10.5724 C   0  0  0  0  0  0  0  0  0  0  0  0
   -2.8579   -5.3671   11.3160 C   0  0  0  0  0  0  0  0  0  0  0  0
   -3.4837   -6.7144   11.3184 N   0  0  0  0  0  0  0  0  0  0  0  0
   -4.4377   -7.3265   10.4008 C   0  0  0  0  0  0  0  0  0  0  0  0
   -4.8951   -6.9236    9.3695 O   0  0  0  0  0  0  0  0  0  0  0  0
   -5.0252   -8.6708   10.9029 C   0  0  0  0  0  0  0  0  0  0  0  0
   -5.3519   -9.0795   12.2386 C   0  0  0  0  0  0  0  0  0  0  0  0
   -6.0120  -10.2890   12.1440 C   0  0  0  0  0  0  0  0  0  0  0  0
   -6.0512  -10.5709   10.8172 N   0  0  0  0  0  0  0  0  0  0  0  0
   -5.4716   -9.6303   10.0481 N   0  0  0  0  0  0  0  0  0  0  0  0
   -0.2663   -5.2711   11.3958 N   0  0  0  0  0  0  0  0  0  0  0  0
    0.9707   -4.6351   10.8981 C   0  0  0  0  0  0  0  0  0  0  0  0
    1.0651   -3.1443   11.2928 C   0  0  0  0  0  0  0  0  0  0  0  0
    0.2530   -2.6426   12.0287 O   0  0  0  0  0  0  0  0  0  0  0  0
    2.2650   -2.6053   10.7232 N   0  0  0  0  0  0  0  0  0  0  0  0
    1.9675   -1.9760    9.3884 C   0  0  0  0  0  0  0  0  0  0  0  0
    2.9541   -1.2822   10.9490 C   0  0  0  0  0  0  0  0  0  0  0  0
    3.6496   -1.4351   12.2983 C   0  0  0  0  0  0  0  0  0  0  0  0
    5.0651   -1.4758   12.5014 C   0  0  0  0  0  0  0  0  0  0  0  0
    5.4059   -1.6941   13.8201 C   0  0  0  0  0  0  0  0  0  0  0  0
    4.0302   -1.7810   14.8215 S   0  0  0  0  0  0  0  0  0  0  0  0
    2.9879   -1.5385   13.5077 C   0  0  0  0  0  0  0  0  0  0  0  0
   -2.1155   -3.8609    8.0658 H   0  0  0  0  0  0  0  0  0  0  0  0
   -3.4238   -4.9545    8.5392 H   0  0  0  0  0  0  0  0  0  0  0  0
   -2.3442   -5.3926    7.2095 H   0  0  0  0  0  0  0  0  0  0  0  0
   -0.4339   -5.5276    8.7139 H   0  0  0  0  0  0  0  0  0  0  0  0
   -1.6639   -6.6740    9.1858 H   0  0  0  0  0  0  0  0  0  0  0  0
   -1.5147   -3.8978   10.4645 H   0  0  0  0  0  0  0  0  0  0  0  0
   -3.6244   -4.7079   10.8894 H   0  0  0  0  0  0  0  0  0  0  0  0
   -2.7676   -5.0826   12.3713 H   0  0  0  0  0  0  0  0  0  0  0  0
   -3.2583   -7.3767   12.0518 H   0  0  0  0  0  0  0  0  0  0  0  0
   -5.1539   -8.5335   13.1492 H   0  0  0  0  0  0  0  0  0  0  0  0
   -6.4368  -10.9465   12.8872 H   0  0  0  0  0  0  0  0  0  0  0  0
   -6.4576  -11.3775   10.3560 H   0  0  0  0  0  0  0  0  0  0  0  0
   -0.4311   -4.8771   12.3267 H   0  0  0  0  0  0  0  0  0  0  0  0
    1.1033   -4.7567    9.8230 H   0  0  0  0  0  0  0  0  0  0  0  0
    1.8112   -5.1362   11.3893 H   0  0  0  0  0  0  0  0  0  0  0  0
    1.3705   -2.7172    8.8364 H   0  0  0  0  0  0  0  0  0  0  0  0
    1.2960   -1.1038    9.4279 H   0  0  0  0  0  0  0  0  0  0  0  0
    2.8490   -1.8416    8.7442 H   0  0  0  0  0  0  0  0  0  0  0  0
    3.7654   -1.0451   10.2420 H   0  0  0  0  0  0  0  0  0  0  0  0
    2.2452   -0.4489   11.0816 H   0  0  0  0  0  0  0  0  0  0  0  0
    5.8057   -1.3529   11.7191 H   0  0  0  0  0  0  0  0  0  0  0  0
    6.4039   -1.7576   14.2328 H   0  0  0  0  0  0  0  0  0  0  0  0
    1.9188   -1.5139   13.6736 H   0  0  0  0  0  0  0  0  0  0  0  0
  1  2  1  0
  2  3  1  0
  3  4  1  0
  4  5  1  0
  5  6  1  0
  6  7  2  0
  6  8  1  0
  8  9  1  0
  9 10  2  0
 10 11  1  0
 11 12  1  0
  3 13  1  0
 13 14  1  0
 14 15  1  0
 15 16  2  0
 15 17  1  0
 17 18  1  0
 17 19  1  0
 19 20  1  0
 20 21  1  0
 21 22  2  0
 22 23  1  0
 23 24  1  0
 12  8  2  0
 24 20  2  0
  1 25  1  0
  1 26  1  0
  1 27  1  0
  2 28  1  0
  2 29  1  0
  3 30  1  0
  4 31  1  0
  4 32  1  0
  5 33  1  0
  9 34  1  0
 10 35  1  0
 11 36  1  0
 13 37  1  0
 14 38  1  0
 14 39  1  0
 18 40  1  0
 18 41  1  0
 18 42  1  0
 19 43  1  0
 19 44  1  0
 21 45  1  0
 22 46  1  0
 24 47  1  0
M  END
>  <Energy>  (1640) 
165.98817309239698

>  <compound_id>  (1640) 
31194

>  <target_id>  (1640) 
1

>  <reference_id>  (1640) 
112

>  <inspiration_ids>  (1640) 
[112, 120]

>  <energy_score>  (1640) 
33.42826288551569

>  <distance_score>  (1640) 
14.985951855067801

>  <path>  (1640) 
/opt/xchem-fragalysis-2/maxwin/BulkDock/SCRATCH/511013/C31194-P112/C31194-P112.minimised.mol

>  <scratch_subdir>  (1640) 
/opt/xchem-fragalysis-2/maxwin/BulkDock/SCRATCH/511013/C31194-P112

>  <fragmenstein_runtime>  (1640) 
19.203022718429565

>  <fragmenstein_outcome>  (1640) 
too moved

>  <fragmenstein_mode>  (1640) 
expansion

>  <fragmenstein_error>  (1640) 


$$$$
C31194-P120
     RDKit          3D

 47 48  0  0  0  0  0  0  0  0999 V2000
    0.1371   -8.8796    5.2076 C   0  0  0  0  0  0  0  0  0  0  0  0
    0.9593   -9.0126    6.4941 C   0  0  0  0  0  0  0  0  0  0  0  0
    1.8672  -10.3589    6.7079 C   0  0  0  0  0  0  0  0  0  0  0  0
    1.2509  -11.5636    5.6440 C   0  0  0  0  0  0  0  0  0  0  0  0
    0.9249  -12.9753    5.9146 N   0  0  0  0  0  0  0  0  0  0  0  0
    0.4802  -14.0439    5.0186 C   0  0  0  0  0  0  0  0  0  0  0  0
    0.3486  -14.0577    3.8281 O   0  0  0  0  0  0  0  0  0  0  0  0
    0.0092  -15.3219    5.7374 C   0  0  0  0  0  0  0  0  0  0  0  0
    0.7219  -16.2419    6.5700 C   0  0  0  0  0  0  0  0  0  0  0  0
   -0.1748  -17.2275    6.9355 C   0  0  0  0  0  0  0  0  0  0  0  0
   -1.3448  -16.9027    6.3237 N   0  0  0  0  0  0  0  0  0  0  0  0
   -1.2709  -15.7682    5.6041 N   0  0  0  0  0  0  0  0  0  0  0  0
    2.7586  -10.8602    8.1751 N   0  0  0  0  0  0  0  0  0  0  0  0
    4.4867  -10.3189    8.6868 C   0  0  0  0  0  0  0  0  0  0  0  0
    5.3442   -8.9281    7.6236 C   0  0  0  0  0  0  0  0  0  0  0  0
    4.6341   -8.5148    6.7310 O   0  0  0  0  0  0  0  0  0  0  0  0
    6.7358   -8.6180    7.9304 N   0  0  0  0  0  0  0  0  0  0  0  0
    6.8170   -7.4275    8.8968 C   0  0  0  0  0  0  0  0  0  0  0  0
    7.7626   -7.7775    7.1733 C   0  0  0  0  0  0  0  0  0  0  0  0
    9.1860   -7.6546    7.7377 C   0  0  0  0  0  0  0  0  0  0  0  0
    9.9660   -6.4392    7.7132 C   0  0  0  0  0  0  0  0  0  0  0  0
   11.2132   -6.5856    8.2823 C   0  0  0  0  0  0  0  0  0  0  0  0
   11.4725   -8.1757    8.8462 S   0  0  0  0  0  0  0  0  0  0  0  0
    9.9052   -8.6619    8.3581 C   0  0  0  0  0  0  0  0  0  0  0  0
   -0.7819   -9.4713    5.2507 H   0  0  0  0  0  0  0  0  0  0  0  0
   -0.1727   -7.8361    5.0777 H   0  0  0  0  0  0  0  0  0  0  0  0
    0.7207   -9.1568    4.3245 H   0  0  0  0  0  0  0  0  0  0  0  0
    0.2943   -8.7382    7.3115 H   0  0  0  0  0  0  0  0  0  0  0  0
    1.6548   -8.1825    6.3920 H   0  0  0  0  0  0  0  0  0  0  0  0
    2.5921   -9.8877    6.0490 H   0  0  0  0  0  0  0  0  0  0  0  0
    0.2771  -11.2174    5.3023 H   0  0  0  0  0  0  0  0  0  0  0  0
    1.8574  -11.5671    4.7301 H   0  0  0  0  0  0  0  0  0  0  0  0
    0.8356  -13.2870    6.8676 H   0  0  0  0  0  0  0  0  0  0  0  0
    1.7653  -16.1997    6.8412 H   0  0  0  0  0  0  0  0  0  0  0  0
   -0.0732  -18.1183    7.5393 H   0  0  0  0  0  0  0  0  0  0  0  0
   -2.2254  -17.4077    6.3373 H   0  0  0  0  0  0  0  0  0  0  0  0
    2.9387  -11.8631    8.0685 H   0  0  0  0  0  0  0  0  0  0  0  0
    4.2055  -10.0784    9.7202 H   0  0  0  0  0  0  0  0  0  0  0  0
    5.1314  -11.1699    8.6610 H   0  0  0  0  0  0  0  0  0  0  0  0
    7.7370   -7.3444    9.4840 H   0  0  0  0  0  0  0  0  0  0  0  0
    6.5985   -6.4489    8.4367 H   0  0  0  0  0  0  0  0  0  0  0  0
    6.0094   -7.5055    9.6210 H   0  0  0  0  0  0  0  0  0  0  0  0
    7.8990   -8.3831    6.2618 H   0  0  0  0  0  0  0  0  0  0  0  0
    7.3587   -6.8478    6.7391 H   0  0  0  0  0  0  0  0  0  0  0  0
    9.6201   -5.5015    7.2973 H   0  0  0  0  0  0  0  0  0  0  0  0
   11.9822   -5.8368    8.4056 H   0  0  0  0  0  0  0  0  0  0  0  0
    9.5799   -9.6758    8.5487 H   0  0  0  0  0  0  0  0  0  0  0  0
  1  2  1  0
  2  3  1  0
  3  4  1  0
  4  5  1  0
  5  6  1  0
  6  7  2  0
  6  8  1  0
  8  9  1  0
  9 10  2  0
 10 11  1  0
 11 12  1  0
  3 13  1  0
 13 14  1  0
 14 15  1  0
 15 16  2  0
 15 17  1  0
 17 18  1  0
 17 19  1  0
 19 20  1  0
 20 21  1  0
 21 22  2  0
 22 23  1  0
 23 24  1  0
 12  8  2  0
 24 20  2  0
  1 25  1  0
  1 26  1  0
  1 27  1  0
  2 28  1  0
  2 29  1  0
  3 30  1  0
  4 31  1  0
  4 32  1  0
  5 33  1  0
  9 34  1  0
 10 35  1  0
 11 36  1  0
 13 37  1  0
 14 38  1  0
 14 39  1  0
 18 40  1  0
 18 41  1  0
 18 42  1  0
 19 43  1  0
 19 44  1  0
 21 45  1  0
 22 46  1  0
 24 47  1  0
M  END
>  <Energy>  (1641) 
340.16759796609836

>  <compound_id>  (1641) 
31194

>  <target_id>  (1641) 
1

>  <reference_id>  (1641) 
120

>  <inspiration_ids>  (1641) 
[112, 120]

>  <energy_score>  (1641) 
207.6076877592196

>  <distance_score>  (1641) 
15.10640107427673

>  <path>  (1641) 
/opt/xchem-fragalysis-2/maxwin/BulkDock/SCRATCH/511013/C31194-P120/C31194-P120.minimised.mol

>  <scratch_subdir>  (1641) 
/opt/xchem-fragalysis-2/maxwin/BulkDock/SCRATCH/511013/C31194-P120

>  <fragmenstein_runtime>  (1641) 
13.171338081359863

>  <fragmenstein_outcome>  (1641) 
too moved

>  <fragmenstein_mode>  (1641) 
expansion

>  <fragmenstein_error>  (1641) 


$$$$
C31205-P112
     RDKit          3D

 45 46  0  0  0  0  0  0  0  0999 V2000
    4.5456   -6.9123   12.2634 C   0  0  0  0  0  0  0  0  0  0  0  0
    5.5918   -7.8774   12.8057 C   0  0  0  0  0  0  0  0  0  0  0  0
    5.9247   -7.6678   14.2552 N   0  0  0  0  0  0  0  0  0  0  0  0
    4.9864   -9.4032   14.4176 C   0  0  0  0  0  0  0  0  0  0  0  0
    3.2014  -10.4169   13.9930 C   0  0  0  0  0  0  0  0  0  0  0  0
    1.6595  -11.9007   14.1593 N   0  0  0  0  0  0  0  0  0  0  0  0
    0.3002  -12.3724   13.0601 C   0  0  0  0  0  0  0  0  0  0  0  0
    0.0942  -11.9190   11.9440 O   0  0  0  0  0  0  0  0  0  0  0  0
   -1.0301  -13.7841   13.7376 C   0  0  0  0  0  0  0  0  0  0  0  0
   -2.7625  -14.6181   14.5370 N   0  0  0  0  0  0  0  0  0  0  0  0
   -4.0720  -14.6980   13.1402 C   0  0  0  0  0  0  0  0  0  0  0  0
   -5.0654  -16.0368   13.6941 C   0  0  0  0  0  0  0  0  0  0  0  0
   -4.3723  -16.7036   14.7551 C   0  0  0  0  0  0  0  0  0  0  0  0
   -3.2004  -16.1751   15.1065 N   0  0  0  0  0  0  0  0  0  0  0  0
    7.7309   -7.2151   14.4392 C   0  0  0  0  0  0  0  0  0  0  0  0
    8.5735   -8.0745   14.6038 O   0  0  0  0  0  0  0  0  0  0  0  0
    8.4796   -5.2087   14.5577 C   0  0  0  0  0  0  0  0  0  0  0  0
   10.4356   -4.6096   14.7311 C   0  0  0  0  0  0  0  0  0  0  0  0
    8.3466   -3.2439   14.9116 C   0  0  0  0  0  0  0  0  0  0  0  0
    7.1878   -2.3358   14.7138 C   0  0  0  0  0  0  0  0  0  0  0  0
    7.3814   -1.0481   15.1542 C   0  0  0  0  0  0  0  0  0  0  0  0
    8.9929   -0.6504   15.3802 S   0  0  0  0  0  0  0  0  0  0  0  0
    9.4031   -2.2606   14.9572 C   0  0  0  0  0  0  0  0  0  0  0  0
    3.9664   -7.3905   11.4674 H   0  0  0  0  0  0  0  0  0  0  0  0
    3.8738   -6.5371   13.0383 H   0  0  0  0  0  0  0  0  0  0  0  0
    5.0108   -6.0447   11.7929 H   0  0  0  0  0  0  0  0  0  0  0  0
    5.4079   -8.8977   12.4553 H   0  0  0  0  0  0  0  0  0  0  0  0
    6.5217   -7.6403   12.2699 H   0  0  0  0  0  0  0  0  0  0  0  0
    5.7794  -10.1186   14.1499 H   0  0  0  0  0  0  0  0  0  0  0  0
    4.9190   -9.3739   15.5160 H   0  0  0  0  0  0  0  0  0  0  0  0
    3.4590  -10.2358   12.9538 H   0  0  0  0  0  0  0  0  0  0  0  0
    3.8284  -10.9692   14.7749 H   0  0  0  0  0  0  0  0  0  0  0  0
    1.6391  -12.4906   14.9998 H   0  0  0  0  0  0  0  0  0  0  0  0
   -1.3498  -12.8281   13.8703 H   0  0  0  0  0  0  0  0  0  0  0  0
   -0.8927  -14.3290   12.7494 H   0  0  0  0  0  0  0  0  0  0  0  0
   -3.5551  -14.6003   12.2022 H   0  0  0  0  0  0  0  0  0  0  0  0
   -6.0027  -16.2746   13.1800 H   0  0  0  0  0  0  0  0  0  0  0  0
   -4.7129  -17.5799   15.2798 H   0  0  0  0  0  0  0  0  0  0  0  0
    7.7302   -5.2876   15.5225 H   0  0  0  0  0  0  0  0  0  0  0  0
   10.6516   -4.0130   15.6340 H   0  0  0  0  0  0  0  0  0  0  0  0
   11.1274   -5.4389   14.9160 H   0  0  0  0  0  0  0  0  0  0  0  0
   10.7994   -4.0912   13.8345 H   0  0  0  0  0  0  0  0  0  0  0  0
    6.1819   -2.6386   14.4427 H   0  0  0  0  0  0  0  0  0  0  0  0
    6.6043   -0.3437   15.3615 H   0  0  0  0  0  0  0  0  0  0  0  0
   10.4682   -2.3327   14.8152 H   0  0  0  0  0  0  0  0  0  0  0  0
  1  2  1  0
  2  3  1  0
  3  4  1  0
  4  5  1  0
  5  6  1  0
  6  7  1  0
  7  8  2  0
  7  9  1  0
  9 10  1  0
 10 11  1  0
 11 12  2  0
 12 13  1  0
 13 14  2  0
  3 15  1  0
 15 16  2  0
 15 17  1  0
 17 18  1  0
 17 19  1  0
 19 20  1  0
 20 21  2  0
 21 22  1  0
 22 23  1  0
 14 10  1  0
 23 19  2  0
  1 24  1  0
  1 25  1  0
  1 26  1  0
  2 27  1  0
  2 28  1  0
  4 29  1  0
  4 30  1  0
  5 31  1  0
  5 32  1  0
  6 33  1  0
  9 34  1  0
  9 35  1  0
 11 36  1  0
 12 37  1  0
 13 38  1  0
 17 39  1  0
 18 40  1  0
 18 41  1  0
 18 42  1  0
 20 43  1  0
 21 44  1  0
 23 45  1  0
M  END
>  <Energy>  (1642) 
1406.7449330421393

>  <compound_id>  (1642) 
31205

>  <target_id>  (1642) 
1

>  <reference_id>  (1642) 
112

>  <inspiration_ids>  (1642) 
[112, 120]

>  <energy_score>  (1642) 
1312.560110927984

>  <distance_score>  (1642) 
11.887256498375885

>  <path>  (1642) 
/opt/xchem-fragalysis-2/maxwin/BulkDock/SCRATCH/511013/C31205-P112/C31205-P112.minimised.mol

>  <scratch_subdir>  (1642) 
/opt/xchem-fragalysis-2/maxwin/BulkDock/SCRATCH/511013/C31205-P112

>  <fragmenstein_runtime>  (1642) 
16.504887342453003

>  <fragmenstein_outcome>  (1642) 
too moved

>  <fragmenstein_mode>  (1642) 
expansion

>  <fragmenstein_error>  (1642) 


$$$$
C31205-P120
     RDKit          3D

 45 46  0  0  0  0  0  0  0  0999 V2000
    8.6080  -11.7458    7.1369 C   0  0  0  0  0  0  0  0  0  0  0  0
    8.5449  -13.2352    7.5015 C   0  0  0  0  0  0  0  0  0  0  0  0
    8.5239  -13.4860    9.0231 N   0  0  0  0  0  0  0  0  0  0  0  0
    8.0967  -14.8940    8.5610 C   0  0  0  0  0  0  0  0  0  0  0  0
    6.5514  -15.1005    8.3466 C   0  0  0  0  0  0  0  0  0  0  0  0
    5.9208  -16.2270    9.0229 N   0  0  0  0  0  0  0  0  0  0  0  0
    4.8072  -17.0801    8.6218 C   0  0  0  0  0  0  0  0  0  0  0  0
    4.1831  -17.1190    7.5999 O   0  0  0  0  0  0  0  0  0  0  0  0
    4.5021  -18.0713    9.7536 C   0  0  0  0  0  0  0  0  0  0  0  0
    3.1631  -18.6669    9.7514 N   0  0  0  0  0  0  0  0  0  0  0  0
    2.7992  -19.8217    9.1084 C   0  0  0  0  0  0  0  0  0  0  0  0
    1.7334  -20.3264    9.8070 C   0  0  0  0  0  0  0  0  0  0  0  0
    1.4959  -19.3826   10.8223 C   0  0  0  0  0  0  0  0  0  0  0  0
    2.3121  -18.3339   10.7420 N   0  0  0  0  0  0  0  0  0  0  0  0
    9.7655  -13.0207    9.6255 C   0  0  0  0  0  0  0  0  0  0  0  0
   10.8015  -13.6022    9.8293 O   0  0  0  0  0  0  0  0  0  0  0  0
    9.5823  -11.5515   10.1473 C   0  0  0  0  0  0  0  0  0  0  0  0
    9.3498  -11.6651   11.6645 C   0  0  0  0  0  0  0  0  0  0  0  0
   10.6912  -10.5403    9.8624 C   0  0  0  0  0  0  0  0  0  0  0  0
   12.0880  -10.7035   10.1559 C   0  0  0  0  0  0  0  0  0  0  0  0
   12.8477   -9.6121    9.7945 C   0  0  0  0  0  0  0  0  0  0  0  0
   11.9021   -8.3563    9.1356 S   0  0  0  0  0  0  0  0  0  0  0  0
   10.4692   -9.2708    9.3429 C   0  0  0  0  0  0  0  0  0  0  0  0
    8.4840  -11.6247    6.0550 H   0  0  0  0  0  0  0  0  0  0  0  0
    7.8121  -11.1809    7.6310 H   0  0  0  0  0  0  0  0  0  0  0  0
    9.5762  -11.3112    7.3903 H   0  0  0  0  0  0  0  0  0  0  0  0
    9.4506  -13.6822    7.0606 H   0  0  0  0  0  0  0  0  0  0  0  0
    7.6436  -13.5538    6.9627 H   0  0  0  0  0  0  0  0  0  0  0  0
    8.7375  -15.4048    7.8227 H   0  0  0  0  0  0  0  0  0  0  0  0
    8.3363  -15.4745    9.4657 H   0  0  0  0  0  0  0  0  0  0  0  0
    6.3356  -15.2169    7.2786 H   0  0  0  0  0  0  0  0  0  0  0  0
    6.0070  -14.2139    8.6875 H   0  0  0  0  0  0  0  0  0  0  0  0
    6.1506  -16.4158    9.9994 H   0  0  0  0  0  0  0  0  0  0  0  0
    4.6108  -17.5872   10.7270 H   0  0  0  0  0  0  0  0  0  0  0  0
    5.2209  -18.8964    9.6943 H   0  0  0  0  0  0  0  0  0  0  0  0
    3.3716  -20.2111    8.2795 H   0  0  0  0  0  0  0  0  0  0  0  0
    1.2544  -21.2760    9.6335 H   0  0  0  0  0  0  0  0  0  0  0  0
    0.7902  -19.4047   11.6380 H   0  0  0  0  0  0  0  0  0  0  0  0
    8.6555  -11.1492    9.7247 H   0  0  0  0  0  0  0  0  0  0  0  0
    8.6724  -12.4888   11.9126 H   0  0  0  0  0  0  0  0  0  0  0  0
   10.2856  -11.8463   12.2054 H   0  0  0  0  0  0  0  0  0  0  0  0
    8.9087  -10.7440   12.0544 H   0  0  0  0  0  0  0  0  0  0  0  0
   12.5178  -11.5999   10.5898 H   0  0  0  0  0  0  0  0  0  0  0  0
   13.9183   -9.4938    9.8821 H   0  0  0  0  0  0  0  0  0  0  0  0
    9.5245   -8.8236    9.0641 H   0  0  0  0  0  0  0  0  0  0  0  0
  1  2  1  0
  2  3  1  0
  3  4  1  0
  4  5  1  0
  5  6  1  0
  6  7  1  0
  7  8  2  0
  7  9  1  0
  9 10  1  0
 10 11  1  0
 11 12  2  0
 12 13  1  0
 13 14  2  0
  3 15  1  0
 15 16  2  0
 15 17  1  0
 17 18  1  0
 17 19  1  0
 19 20  1  0
 20 21  2  0
 21 22  1  0
 22 23  1  0
 14 10  1  0
 23 19  2  0
  1 24  1  0
  1 25  1  0
  1 26  1  0
  2 27  1  0
  2 28  1  0
  4 29  1  0
  4 30  1  0
  5 31  1  0
  5 32  1  0
  6 33  1  0
  9 34  1  0
  9 35  1  0
 11 36  1  0
 12 37  1  0
 13 38  1  0
 17 39  1  0
 18 40  1  0
 18 41  1  0
 18 42  1  0
 20 43  1  0
 21 44  1  0
 23 45  1  0
M  END
>  <Energy>  (1643) 
132.94037309718621

>  <compound_id>  (1643) 
31205

>  <target_id>  (1643) 
1

>  <reference_id>  (1643) 
120

>  <inspiration_ids>  (1643) 
[112, 120]

>  <energy_score>  (1643) 
38.755550983031355

>  <distance_score>  (1643) 
15.417638192639943

>  <path>  (1643) 
/opt/xchem-fragalysis-2/maxwin/BulkDock/SCRATCH/511013/C31205-P120/C31205-P120.minimised.mol

>  <scratch_subdir>  (1643) 
/opt/xchem-fragalysis-2/maxwin/BulkDock/SCRATCH/511013/C31205-P120

>  <fragmenstein_runtime>  (1643) 
20.896481037139893

>  <fragmenstein_outcome>  (1643) 
too moved

>  <fragmenstein_mode>  (1643) 
expansion

>  <fragmenstein_error>  (1643) 


$$$$
C31221-P112
     RDKit          3D

 43 45  0  0  0  0  0  0  0  0999 V2000
   -0.1309   -4.4626   11.3092 O   0  0  0  0  0  0  0  0  0  0  0  0
   -0.0621   -4.3595   12.5025 C   0  0  0  0  0  0  0  0  0  0  0  0
    0.7231   -3.1541   13.1012 C   0  0  0  0  0  0  0  0  0  0  0  0
    2.2402   -3.4947   13.2841 C   0  0  0  0  0  0  0  0  0  0  0  0
    3.2283   -2.3148   13.2454 C   0  0  0  0  0  0  0  0  0  0  0  0
    3.4395   -1.5961   14.5440 C   0  0  0  0  0  0  0  0  0  0  0  0
    4.7201   -1.1521   14.9892 C   0  0  0  0  0  0  0  0  0  0  0  0
    4.6654   -0.4221   16.1599 C   0  0  0  0  0  0  0  0  0  0  0  0
    3.0917   -0.3570   16.7909 S   0  0  0  0  0  0  0  0  0  0  0  0
    2.4698   -1.2092   15.4461 C   0  0  0  0  0  0  0  0  0  0  0  0
   -0.5182   -5.2421   13.5550 N   0  0  0  0  0  0  0  0  0  0  0  0
   -1.0813   -6.5044   13.4993 C   0  0  0  0  0  0  0  0  0  0  0  0
   -0.8613   -7.6673   14.1064 C   0  0  0  0  0  0  0  0  0  0  0  0
   -1.6299   -9.1087   14.0484 N   0  0  0  0  0  0  0  0  0  0  0  0
   -2.3144   -9.2332   12.6185 N   0  0  0  0  0  0  0  0  0  0  0  0
   -4.3327   -9.3030   12.4715 C   0  0  0  0  0  0  0  0  0  0  0  0
   -5.2107  -10.4679   11.9972 C   0  0  0  0  0  0  0  0  0  0  0  0
   -6.7328  -10.5158   12.2293 C   0  0  0  0  0  0  0  0  0  0  0  0
   -7.3459   -9.1474   12.2065 C   0  0  0  0  0  0  0  0  0  0  0  0
   -6.4330   -8.2319   11.4248 C   0  0  0  0  0  0  0  0  0  0  0  0
   -5.1226   -8.1158   11.9908 O   0  0  0  0  0  0  0  0  0  0  0  0
   -1.2820   -7.4604   12.6176 C   0  0  0  0  0  0  0  0  0  0  0  0
    0.2727   -2.8510   14.0510 H   0  0  0  0  0  0  0  0  0  0  0  0
    0.6032   -2.3147   12.4062 H   0  0  0  0  0  0  0  0  0  0  0  0
    2.5199   -4.1676   12.4624 H   0  0  0  0  0  0  0  0  0  0  0  0
    2.3668   -4.0745   14.2068 H   0  0  0  0  0  0  0  0  0  0  0  0
    2.9161   -1.5919   12.4820 H   0  0  0  0  0  0  0  0  0  0  0  0
    4.1975   -2.7110   12.9145 H   0  0  0  0  0  0  0  0  0  0  0  0
    5.6463   -1.3270   14.4488 H   0  0  0  0  0  0  0  0  0  0  0  0
    5.4873    0.0423   16.6865 H   0  0  0  0  0  0  0  0  0  0  0  0
    1.4038   -1.3697   15.3912 H   0  0  0  0  0  0  0  0  0  0  0  0
   -0.2179   -4.8753   14.4458 H   0  0  0  0  0  0  0  0  0  0  0  0
   -0.2161   -7.5336   14.9968 H   0  0  0  0  0  0  0  0  0  0  0  0
   -4.5841   -9.4073   13.4859 H   0  0  0  0  0  0  0  0  0  0  0  0
   -5.1831  -10.2123   10.9595 H   0  0  0  0  0  0  0  0  0  0  0  0
   -4.8800  -11.4303   12.3058 H   0  0  0  0  0  0  0  0  0  0  0  0
   -7.1893  -11.1244   11.4385 H   0  0  0  0  0  0  0  0  0  0  0  0
   -6.9988  -11.0191   13.1455 H   0  0  0  0  0  0  0  0  0  0  0  0
   -7.4520   -8.7716   13.2279 H   0  0  0  0  0  0  0  0  0  0  0  0
   -8.3483   -9.1744   11.7668 H   0  0  0  0  0  0  0  0  0  0  0  0
   -6.3461   -8.5345   10.3745 H   0  0  0  0  0  0  0  0  0  0  0  0
   -6.8568   -7.2219   11.4137 H   0  0  0  0  0  0  0  0  0  0  0  0
   -1.1546   -6.9889   11.6092 H   0  0  0  0  0  0  0  0  0  0  0  0
  1  2  2  0
  2  3  1  0
  3  4  1  0
  4  5  1  0
  5  6  1  0
  6  7  1  0
  7  8  2  0
  8  9  1  0
  9 10  1  0
  2 11  1  0
 11 12  1  0
 12 13  1  0
 13 14  2  0
 14 15  1  0
 15 16  1  0
 16 17  1  0
 17 18  1  0
 18 19  1  0
 19 20  1  0
 20 21  1  0
 15 22  1  0
 10  6  2  0
 22 12  2  0
 21 16  1  0
  3 23  1  0
  3 24  1  0
  4 25  1  0
  4 26  1  0
  5 27  1  0
  5 28  1  0
  7 29  1  0
  8 30  1  0
 10 31  1  0
 11 32  1  0
 13 33  1  0
 16 34  1  0
 17 35  1  0
 17 36  1  0
 18 37  1  0
 18 38  1  0
 19 39  1  0
 19 40  1  0
 20 41  1  0
 20 42  1  0
 22 43  1  0
M  END
>  <Energy>  (1644) 
519.96127082054875

>  <compound_id>  (1644) 
31221

>  <target_id>  (1644) 
1

>  <reference_id>  (1644) 
112

>  <inspiration_ids>  (1644) 
[112, 120]

>  <energy_score>  (1644) 
416.8291337162681

>  <distance_score>  (1644) 
14.948616120385813

>  <path>  (1644) 
/opt/xchem-fragalysis-2/maxwin/BulkDock/SCRATCH/511013/C31221-P112/C31221-P112.minimised.mol

>  <scratch_subdir>  (1644) 
/opt/xchem-fragalysis-2/maxwin/BulkDock/SCRATCH/511013/C31221-P112

>  <fragmenstein_runtime>  (1644) 
9.146323442459106

>  <fragmenstein_outcome>  (1644) 
too moved

>  <fragmenstein_mode>  (1644) 
expansion

>  <fragmenstein_error>  (1644) 


$$$$
C31221-P120
     RDKit          3D

 43 45  0  0  0  0  0  0  0  0999 V2000
    1.1817   -5.0347   13.8725 O   0  0  0  0  0  0  0  0  0  0  0  0
   -0.0071   -4.9698   13.6482 C   0  0  0  0  0  0  0  0  0  0  0  0
   -0.5139   -3.4481   13.5110 C   0  0  0  0  0  0  0  0  0  0  0  0
    0.7560   -2.4209   13.4940 C   0  0  0  0  0  0  0  0  0  0  0  0
    0.8162   -1.4500   14.6822 C   0  0  0  0  0  0  0  0  0  0  0  0
    2.1456   -0.8860   15.1241 C   0  0  0  0  0  0  0  0  0  0  0  0
    2.4308    0.5221   15.1646 C   0  0  0  0  0  0  0  0  0  0  0  0
    3.5588    0.8256   15.8894 C   0  0  0  0  0  0  0  0  0  0  0  0
    4.3310   -0.5731   16.4566 S   0  0  0  0  0  0  0  0  0  0  0  0
    3.1831   -1.5968   15.6997 C   0  0  0  0  0  0  0  0  0  0  0  0
   -1.0111   -6.0564   13.3808 N   0  0  0  0  0  0  0  0  0  0  0  0
   -0.8325   -7.5434   13.2055 C   0  0  0  0  0  0  0  0  0  0  0  0
   -1.2555   -9.3971   13.4941 C   0  0  0  0  0  0  0  0  0  0  0  0
   -1.7985   -9.9416   14.4782 N   0  0  0  0  0  0  0  0  0  0  0  0
   -2.9096   -9.3588   14.5572 N   0  0  0  0  0  0  0  0  0  0  0  0
   -4.5257   -9.5565   13.3202 C   0  0  0  0  0  0  0  0  0  0  0  0
   -4.9072   -9.5626   11.7288 C   0  0  0  0  0  0  0  0  0  0  0  0
   -6.3379   -9.7177   11.1319 C   0  0  0  0  0  0  0  0  0  0  0  0
   -7.1518  -10.7115   11.8865 C   0  0  0  0  0  0  0  0  0  0  0  0
   -7.0062  -10.1340   13.2504 C   0  0  0  0  0  0  0  0  0  0  0  0
   -5.6416  -10.4244   13.7630 O   0  0  0  0  0  0  0  0  0  0  0  0
   -1.3882   -8.2581   14.1174 C   0  0  0  0  0  0  0  0  0  0  0  0
   -0.9799   -3.3807   12.5196 H   0  0  0  0  0  0  0  0  0  0  0  0
   -1.2949   -3.1387   14.2075 H   0  0  0  0  0  0  0  0  0  0  0  0
    0.6564   -1.8174   12.5815 H   0  0  0  0  0  0  0  0  0  0  0  0
    1.7089   -2.9456   13.3834 H   0  0  0  0  0  0  0  0  0  0  0  0
    0.1460   -0.6111   14.4466 H   0  0  0  0  0  0  0  0  0  0  0  0
    0.3639   -1.9081   15.5639 H   0  0  0  0  0  0  0  0  0  0  0  0
    1.7762    1.2864   14.7617 H   0  0  0  0  0  0  0  0  0  0  0  0
    3.9487    1.8077   16.1192 H   0  0  0  0  0  0  0  0  0  0  0  0
    3.2684   -2.6699   15.8039 H   0  0  0  0  0  0  0  0  0  0  0  0
   -1.8977   -5.6379   13.1519 H   0  0  0  0  0  0  0  0  0  0  0  0
   -0.9492  -10.2114   12.7660 H   0  0  0  0  0  0  0  0  0  0  0  0
   -4.8983   -8.5447   13.3288 H   0  0  0  0  0  0  0  0  0  0  0  0
   -4.7236   -8.5846   11.2962 H   0  0  0  0  0  0  0  0  0  0  0  0
   -4.3628  -10.3839   11.3367 H   0  0  0  0  0  0  0  0  0  0  0  0
   -6.8325   -8.7340   11.1749 H   0  0  0  0  0  0  0  0  0  0  0  0
   -6.3131   -9.9280   10.0596 H   0  0  0  0  0  0  0  0  0  0  0  0
   -6.7557  -11.7272   11.8254 H   0  0  0  0  0  0  0  0  0  0  0  0
   -8.1910  -10.7037   11.5453 H   0  0  0  0  0  0  0  0  0  0  0  0
   -7.8121  -10.5377   13.8708 H   0  0  0  0  0  0  0  0  0  0  0  0
   -7.1971   -9.0519   13.2586 H   0  0  0  0  0  0  0  0  0  0  0  0
   -0.6329   -7.8554   14.9872 H   0  0  0  0  0  0  0  0  0  0  0  0
  1  2  2  0
  2  3  1  0
  3  4  1  0
  4  5  1  0
  5  6  1  0
  6  7  1  0
  7  8  2  0
  8  9  1  0
  9 10  1  0
  2 11  1  0
 11 12  1  0
 12 13  1  0
 13 14  2  0
 14 15  1  0
 15 16  1  0
 16 17  1  0
 17 18  1  0
 18 19  1  0
 19 20  1  0
 20 21  1  0
 15 22  1  0
 10  6  2  0
 22 12  2  0
 21 16  1  0
  3 23  1  0
  3 24  1  0
  4 25  1  0
  4 26  1  0
  5 27  1  0
  5 28  1  0
  7 29  1  0
  8 30  1  0
 10 31  1  0
 11 32  1  0
 13 33  1  0
 16 34  1  0
 17 35  1  0
 17 36  1  0
 18 37  1  0
 18 38  1  0
 19 39  1  0
 19 40  1  0
 20 41  1  0
 20 42  1  0
 22 43  1  0
M  END
>  <Energy>  (1645) 
751.83862465291327

>  <compound_id>  (1645) 
31221

>  <target_id>  (1645) 
1

>  <reference_id>  (1645) 
120

>  <inspiration_ids>  (1645) 
[112, 120]

>  <energy_score>  (1645) 
648.70648754864

>  <distance_score>  (1645) 
15.410746218056433

>  <path>  (1645) 
/opt/xchem-fragalysis-2/maxwin/BulkDock/SCRATCH/511013/C31221-P120/C31221-P120.minimised.mol

>  <scratch_subdir>  (1645) 
/opt/xchem-fragalysis-2/maxwin/BulkDock/SCRATCH/511013/C31221-P120

>  <fragmenstein_runtime>  (1645) 
14.396000862121582

>  <fragmenstein_outcome>  (1645) 
too moved

>  <fragmenstein_mode>  (1645) 
expansion

>  <fragmenstein_error>  (1645) 


$$$$
C31223-P112
     RDKit          3D

 38 40  0  0  0  0  0  0  0  0999 V2000
    4.6772   -1.4276   11.7982 O   0  0  0  0  0  0  0  0  0  0  0  0
    4.5985   -2.3629   12.5569 C   0  0  0  0  0  0  0  0  0  0  0  0
    5.2597   -2.0881   13.9764 C   0  0  0  0  0  0  0  0  0  0  0  0
    6.7614   -1.4989   13.8790 C   0  0  0  0  0  0  0  0  0  0  0  0
    7.4997   -1.0326   15.1434 C   0  0  0  0  0  0  0  0  0  0  0  0
    8.9187   -0.5060   15.0368 C   0  0  0  0  0  0  0  0  0  0  0  0
   10.1060   -1.3315   15.0599 C   0  0  0  0  0  0  0  0  0  0  0  0
   11.2710   -0.6172   14.8987 C   0  0  0  0  0  0  0  0  0  0  0  0
   10.9637    1.0520   14.7346 S   0  0  0  0  0  0  0  0  0  0  0  0
    9.2794    0.8222   14.9248 C   0  0  0  0  0  0  0  0  0  0  0  0
    4.0756   -3.7522   12.3410 N   0  0  0  0  0  0  0  0  0  0  0  0
    3.6157   -4.3908   11.1702 C   0  0  0  0  0  0  0  0  0  0  0  0
    3.8115   -3.6502   10.0157 C   0  0  0  0  0  0  0  0  0  0  0  0
    3.2996   -4.3414    8.9834 N   0  0  0  0  0  0  0  0  0  0  0  0
    2.7444   -5.4858    9.3375 N   0  0  0  0  0  0  0  0  0  0  0  0
    3.0128   -5.6754   10.6593 C   0  0  0  0  0  0  0  0  0  0  0  0
    2.5241   -7.0643   11.1291 C   0  0  0  0  0  0  0  0  0  0  0  0
    1.2961   -7.5596   10.6649 C   0  0  0  0  0  0  0  0  0  0  0  0
    0.9642   -9.2154   10.5895 C   0  0  0  0  0  0  0  0  0  0  0  0
    1.6353  -10.3227   11.0883 C   0  0  0  0  0  0  0  0  0  0  0  0
    2.9047   -9.8787   11.3460 C   0  0  0  0  0  0  0  0  0  0  0  0
    3.3739   -8.1763   11.4603 N   0  0  0  0  0  0  0  0  0  0  0  0
    5.2370   -2.9944   14.5790 H   0  0  0  0  0  0  0  0  0  0  0  0
    4.6239   -1.3499   14.4780 H   0  0  0  0  0  0  0  0  0  0  0  0
    6.8293   -0.7833   13.0582 H   0  0  0  0  0  0  0  0  0  0  0  0
    7.4096   -2.2969   13.5723 H   0  0  0  0  0  0  0  0  0  0  0  0
    6.8876   -0.3644   15.7544 H   0  0  0  0  0  0  0  0  0  0  0  0
    7.6453   -1.9543   15.6873 H   0  0  0  0  0  0  0  0  0  0  0  0
   10.1006   -2.4130   15.1048 H   0  0  0  0  0  0  0  0  0  0  0  0
   12.2797   -1.0009   14.8358 H   0  0  0  0  0  0  0  0  0  0  0  0
    8.6285    1.6824   14.8964 H   0  0  0  0  0  0  0  0  0  0  0  0
    4.0841   -4.2494   13.2168 H   0  0  0  0  0  0  0  0  0  0  0  0
    4.2584   -2.6818    9.8408 H   0  0  0  0  0  0  0  0  0  0  0  0
    3.2719   -4.0732    8.0051 H   0  0  0  0  0  0  0  0  0  0  0  0
    0.6685   -6.9045   10.0525 H   0  0  0  0  0  0  0  0  0  0  0  0
    0.2610   -9.4323    9.7665 H   0  0  0  0  0  0  0  0  0  0  0  0
    1.2851  -11.3189   11.1542 H   0  0  0  0  0  0  0  0  0  0  0  0
    3.6905  -10.5182   10.9453 H   0  0  0  0  0  0  0  0  0  0  0  0
  1  2  2  0
  2  3  1  0
  3  4  1  0
  4  5  1  0
  5  6  1  0
  6  7  1  0
  7  8  2  0
  8  9  1  0
  9 10  1  0
  2 11  1  0
 11 12  1  0
 12 13  2  0
 13 14  1  0
 14 15  1  0
 15 16  2  0
 16 17  1  0
 17 18  2  0
 18 19  1  0
 19 20  2  0
 20 21  1  0
 21 22  2  0
 10  6  2  0
 16 12  1  0
 22 17  1  0
  3 23  1  0
  3 24  1  0
  4 25  1  0
  4 26  1  0
  5 27  1  0
  5 28  1  0
  7 29  1  0
  8 30  1  0
 10 31  1  0
 11 32  1  0
 13 33  1  0
 14 34  1  0
 18 35  1  0
 19 36  1  0
 20 37  1  0
 21 38  1  0
M  END
>  <Energy>  (1646) 
200.98342095027709

>  <compound_id>  (1646) 
31223

>  <target_id>  (1646) 
1

>  <reference_id>  (1646) 
112

>  <inspiration_ids>  (1646) 
[112, 120]

>  <energy_score>  (1646) 
126.23408268142049

>  <distance_score>  (1646) 
14.971551676421404

>  <path>  (1646) 
/opt/xchem-fragalysis-2/maxwin/BulkDock/SCRATCH/511013/C31223-P112/C31223-P112.minimised.mol

>  <scratch_subdir>  (1646) 
/opt/xchem-fragalysis-2/maxwin/BulkDock/SCRATCH/511013/C31223-P112

>  <fragmenstein_runtime>  (1646) 
12.919105768203735

>  <fragmenstein_outcome>  (1646) 
too moved

>  <fragmenstein_mode>  (1646) 
expansion

>  <fragmenstein_error>  (1646) 


$$$$
C31223-P120
     RDKit          3D

 38 40  0  0  0  0  0  0  0  0999 V2000
    8.9589  -10.0322   10.3711 O   0  0  0  0  0  0  0  0  0  0  0  0
    8.7722   -9.0164   11.1003 C   0  0  0  0  0  0  0  0  0  0  0  0
    9.5028   -7.8143   10.4543 C   0  0  0  0  0  0  0  0  0  0  0  0
   11.3928   -7.1556   10.4603 C   0  0  0  0  0  0  0  0  0  0  0  0
   12.0598   -5.5857   11.3140 C   0  0  0  0  0  0  0  0  0  0  0  0
   11.8704   -4.2818   12.6732 C   0  0  0  0  0  0  0  0  0  0  0  0
   12.9483   -3.0601   12.8491 C   0  0  0  0  0  0  0  0  0  0  0  0
   12.7287   -2.1394   13.8426 C   0  0  0  0  0  0  0  0  0  0  0  0
   11.4511   -2.6314   14.8154 S   0  0  0  0  0  0  0  0  0  0  0  0
   11.1619   -4.0294   13.8511 C   0  0  0  0  0  0  0  0  0  0  0  0
    7.5828   -8.9528   12.7311 N   0  0  0  0  0  0  0  0  0  0  0  0
    6.2921  -10.3167   13.5762 C   0  0  0  0  0  0  0  0  0  0  0  0
    5.7893  -11.6588   13.6165 C   0  0  0  0  0  0  0  0  0  0  0  0
    4.7408  -11.5177   14.5241 N   0  0  0  0  0  0  0  0  0  0  0  0
    3.9165  -10.5910   14.1952 N   0  0  0  0  0  0  0  0  0  0  0  0
    4.4723  -10.4972   13.0261 C   0  0  0  0  0  0  0  0  0  0  0  0
    3.4194  -10.8713   11.4117 C   0  0  0  0  0  0  0  0  0  0  0  0
    2.8330  -12.0032   10.8431 C   0  0  0  0  0  0  0  0  0  0  0  0
    1.3695  -12.1975   11.1512 C   0  0  0  0  0  0  0  0  0  0  0  0
    0.5791  -11.1744   11.4131 C   0  0  0  0  0  0  0  0  0  0  0  0
    1.2592  -10.1455   10.8978 C   0  0  0  0  0  0  0  0  0  0  0  0
    2.6340  -10.0038   10.9129 N   0  0  0  0  0  0  0  0  0  0  0  0
    8.7196   -7.2046    9.9310 H   0  0  0  0  0  0  0  0  0  0  0  0
    9.7675   -8.3195    9.4931 H   0  0  0  0  0  0  0  0  0  0  0  0
   12.0879   -7.9910   10.6302 H   0  0  0  0  0  0  0  0  0  0  0  0
   11.5375   -6.9146    9.3909 H   0  0  0  0  0  0  0  0  0  0  0  0
   13.1285   -5.5781   11.0753 H   0  0  0  0  0  0  0  0  0  0  0  0
   11.6666   -5.0000   10.5108 H   0  0  0  0  0  0  0  0  0  0  0  0
   13.8091   -2.9895   12.1830 H   0  0  0  0  0  0  0  0  0  0  0  0
   13.3053   -1.2528   14.0643 H   0  0  0  0  0  0  0  0  0  0  0  0
   10.4886   -4.6609   14.3823 H   0  0  0  0  0  0  0  0  0  0  0  0
    7.5394   -8.0094   13.0879 H   0  0  0  0  0  0  0  0  0  0  0  0
    6.2488  -12.6403   13.4902 H   0  0  0  0  0  0  0  0  0  0  0  0
    4.4163  -12.0998   15.2757 H   0  0  0  0  0  0  0  0  0  0  0  0
    3.4436  -12.8582   10.5831 H   0  0  0  0  0  0  0  0  0  0  0  0
    0.9130  -13.1689   11.3668 H   0  0  0  0  0  0  0  0  0  0  0  0
   -0.4498  -11.2770   11.6640 H   0  0  0  0  0  0  0  0  0  0  0  0
    0.8471   -9.2628   10.4703 H   0  0  0  0  0  0  0  0  0  0  0  0
  1  2  2  0
  2  3  1  0
  3  4  1  0
  4  5  1  0
  5  6  1  0
  6  7  1  0
  7  8  2  0
  8  9  1  0
  9 10  1  0
  2 11  1  0
 11 12  1  0
 12 13  2  0
 13 14  1  0
 14 15  1  0
 15 16  2  0
 16 17  1  0
 17 18  2  0
 18 19  1  0
 19 20  2  0
 20 21  1  0
 21 22  2  0
 10  6  2  0
 16 12  1  0
 22 17  1  0
  3 23  1  0
  3 24  1  0
  4 25  1  0
  4 26  1  0
  5 27  1  0
  5 28  1  0
  7 29  1  0
  8 30  1  0
 10 31  1  0
 11 32  1  0
 13 33  1  0
 14 34  1  0
 18 35  1  0
 19 36  1  0
 20 37  1  0
 21 38  1  0
M  END
>  <Energy>  (1647) 
924.43823578966874

>  <compound_id>  (1647) 
31223

>  <target_id>  (1647) 
1

>  <reference_id>  (1647) 
120

>  <inspiration_ids>  (1647) 
[112, 120]

>  <energy_score>  (1647) 
849.6888975208143

>  <distance_score>  (1647) 
14.773575900855857

>  <path>  (1647) 
/opt/xchem-fragalysis-2/maxwin/BulkDock/SCRATCH/511013/C31223-P120/C31223-P120.minimised.mol

>  <scratch_subdir>  (1647) 
/opt/xchem-fragalysis-2/maxwin/BulkDock/SCRATCH/511013/C31223-P120

>  <fragmenstein_runtime>  (1647) 
9.67939305305481

>  <fragmenstein_outcome>  (1647) 
too moved

>  <fragmenstein_mode>  (1647) 
expansion

>  <fragmenstein_error>  (1647) 


$$$$
C31229-P112
     RDKit          3D

 50 52  0  0  0  0  0  0  0  0999 V2000
    4.9324   -9.9367   13.9042 C   0  0  0  0  0  0  0  0  0  0  0  0
    4.5681   -8.1521   13.4943 C   0  0  0  0  0  0  0  0  0  0  0  0
    3.4673   -8.8373   11.7730 C   0  0  0  0  0  0  0  0  0  0  0  0
    2.1361  -10.3241   11.6728 N   0  0  0  0  0  0  0  0  0  0  0  0
    2.9718  -10.7333   10.5038 C   0  0  0  0  0  0  0  0  0  0  0  0
    0.5826  -10.3022   11.2575 C   0  0  0  0  0  0  0  0  0  0  0  0
   -0.0954   -9.3973   10.8176 O   0  0  0  0  0  0  0  0  0  0  0  0
   -0.3121  -11.6992   11.5945 C   0  0  0  0  0  0  0  0  0  0  0  0
    0.0498  -12.9696   12.0840 C   0  0  0  0  0  0  0  0  0  0  0  0
   -0.8392  -13.2978   13.1346 C   0  0  0  0  0  0  0  0  0  0  0  0
   -1.8061  -12.3894   13.2276 N   0  0  0  0  0  0  0  0  0  0  0  0
   -1.7549  -11.8156   11.9736 N   0  0  0  0  0  0  0  0  0  0  0  0
   -2.9273  -12.2596   11.1504 C   0  0  0  0  0  0  0  0  0  0  0  0
   -4.2953  -11.6828   11.6271 C   0  0  0  0  0  0  0  0  0  0  0  0
   -5.3445  -12.8125   11.5794 C   0  0  0  0  0  0  0  0  0  0  0  0
   -4.7091  -13.9039   10.7448 C   0  0  0  0  0  0  0  0  0  0  0  0
   -3.2426  -13.7942   11.1435 C   0  0  0  0  0  0  0  0  0  0  0  0
    6.2223   -7.2534   14.1899 N   0  0  0  0  0  0  0  0  0  0  0  0
    7.2748   -5.9015   15.3387 C   0  0  0  0  0  0  0  0  0  0  0  0
    8.3691   -4.0553   15.2678 C   0  0  0  0  0  0  0  0  0  0  0  0
   10.0114   -3.6674   15.0404 C   0  0  0  0  0  0  0  0  0  0  0  0
   10.3309   -2.3266   15.0225 C   0  0  0  0  0  0  0  0  0  0  0  0
    8.9534   -1.3369   15.1437 S   0  0  0  0  0  0  0  0  0  0  0  0
    7.8626   -2.6785   15.0353 C   0  0  0  0  0  0  0  0  0  0  0  0
    5.9447  -10.1875   14.0981 H   0  0  0  0  0  0  0  0  0  0  0  0
    5.0577  -10.5843   13.0540 H   0  0  0  0  0  0  0  0  0  0  0  0
    4.1912  -10.4706   14.4877 H   0  0  0  0  0  0  0  0  0  0  0  0
    3.8557   -7.6910   14.1516 H   0  0  0  0  0  0  0  0  0  0  0  0
    3.5845   -9.6922   12.4849 H   0  0  0  0  0  0  0  0  0  0  0  0
    2.9587   -7.8681   11.5981 H   0  0  0  0  0  0  0  0  0  0  0  0
    3.9305  -10.2980   10.3449 H   0  0  0  0  0  0  0  0  0  0  0  0
    3.1992  -11.7907   10.5850 H   0  0  0  0  0  0  0  0  0  0  0  0
    2.4428  -10.8227    9.5747 H   0  0  0  0  0  0  0  0  0  0  0  0
    0.9446  -13.5171   11.8787 H   0  0  0  0  0  0  0  0  0  0  0  0
   -0.7875  -14.1082   13.8503 H   0  0  0  0  0  0  0  0  0  0  0  0
   -2.7363  -11.8910   10.1440 H   0  0  0  0  0  0  0  0  0  0  0  0
   -4.5938  -10.8706   10.9532 H   0  0  0  0  0  0  0  0  0  0  0  0
   -4.2465  -11.2533   12.6339 H   0  0  0  0  0  0  0  0  0  0  0  0
   -5.5324  -13.1768   12.5964 H   0  0  0  0  0  0  0  0  0  0  0  0
   -6.2972  -12.4707   11.1643 H   0  0  0  0  0  0  0  0  0  0  0  0
   -4.8293  -13.6924    9.6763 H   0  0  0  0  0  0  0  0  0  0  0  0
   -5.1290  -14.8914   10.9554 H   0  0  0  0  0  0  0  0  0  0  0  0
   -3.1320  -14.2430   12.1369 H   0  0  0  0  0  0  0  0  0  0  0  0
   -2.5956  -14.3540   10.4731 H   0  0  0  0  0  0  0  0  0  0  0  0
    6.9895   -7.9180   14.0008 H   0  0  0  0  0  0  0  0  0  0  0  0
    8.1188   -6.5443   15.0953 H   0  0  0  0  0  0  0  0  0  0  0  0
    6.7195   -5.9360   16.2798 H   0  0  0  0  0  0  0  0  0  0  0  0
   10.7910   -4.4224   14.9766 H   0  0  0  0  0  0  0  0  0  0  0  0
   11.3139   -1.8863   14.9367 H   0  0  0  0  0  0  0  0  0  0  0  0
    6.8397   -2.3973   14.8220 H   0  0  0  0  0  0  0  0  0  0  0  0
  1  2  1  0
  2  3  1  0
  3  4  1  0
  4  5  1  0
  4  6  1  0
  6  7  2  0
  6  8  1  0
  8  9  2  0
  9 10  1  0
 10 11  2  0
 11 12  1  0
 12 13  1  0
 13 14  1  0
 14 15  1  0
 15 16  1  0
 16 17  1  0
  2 18  1  0
 18 19  1  0
 19 20  1  0
 20 21  1  0
 21 22  2  0
 22 23  1  0
 23 24  1  0
 12  8  1  0
 17 13  1  0
 24 20  2  0
  1 25  1  0
  1 26  1  0
  1 27  1  0
  2 28  1  0
  3 29  1  0
  3 30  1  0
  5 31  1  0
  5 32  1  0
  5 33  1  0
  9 34  1  0
 10 35  1  0
 13 36  1  0
 14 37  1  0
 14 38  1  0
 15 39  1  0
 15 40  1  0
 16 41  1  0
 16 42  1  0
 17 43  1  0
 17 44  1  0
 18 45  1  0
 19 46  1  0
 19 47  1  0
 21 48  1  0
 22 49  1  0
 24 50  1  0
M  END
>  <Energy>  (1648) 
871.41336735866969

>  <compound_id>  (1648) 
31229

>  <target_id>  (1648) 
1

>  <reference_id>  (1648) 
112

>  <inspiration_ids>  (1648) 
[112, 120]

>  <energy_score>  (1648) 
809.0947886133581

>  <distance_score>  (1648) 
14.16073325332157

>  <path>  (1648) 
/opt/xchem-fragalysis-2/maxwin/BulkDock/SCRATCH/511013/C31229-P112/C31229-P112.minimised.mol

>  <scratch_subdir>  (1648) 
/opt/xchem-fragalysis-2/maxwin/BulkDock/SCRATCH/511013/C31229-P112

>  <fragmenstein_runtime>  (1648) 
19.353820085525513

>  <fragmenstein_outcome>  (1648) 
too moved

>  <fragmenstein_mode>  (1648) 
expansion

>  <fragmenstein_error>  (1648) 


$$$$
C31229-P120
     RDKit          3D

 50 52  0  0  0  0  0  0  0  0999 V2000
    6.4811   -6.5264   16.0032 C   0  0  0  0  0  0  0  0  0  0  0  0
    6.8759   -7.7006   14.6682 C   0  0  0  0  0  0  0  0  0  0  0  0
    5.2856   -8.9547   13.9128 C   0  0  0  0  0  0  0  0  0  0  0  0
    4.1710  -10.5367   13.1722 N   0  0  0  0  0  0  0  0  0  0  0  0
    3.6866  -10.2505   14.3131 C   0  0  0  0  0  0  0  0  0  0  0  0
    2.7698  -10.5974   11.8056 C   0  0  0  0  0  0  0  0  0  0  0  0
    2.5419   -9.5857   11.2026 O   0  0  0  0  0  0  0  0  0  0  0  0
    1.4560  -11.8639   11.3609 C   0  0  0  0  0  0  0  0  0  0  0  0
    0.4889  -12.5726   12.6109 C   0  0  0  0  0  0  0  0  0  0  0  0
   -0.3913  -13.5223   12.1528 C   0  0  0  0  0  0  0  0  0  0  0  0
   -0.9272  -12.8618   11.1654 N   0  0  0  0  0  0  0  0  0  0  0  0
   -0.2503  -11.6161   11.2370 N   0  0  0  0  0  0  0  0  0  0  0  0
   -1.2130  -10.5436   11.6155 C   0  0  0  0  0  0  0  0  0  0  0  0
   -2.1224  -10.8772   12.8701 C   0  0  0  0  0  0  0  0  0  0  0  0
   -3.3833  -11.6300   12.3966 C   0  0  0  0  0  0  0  0  0  0  0  0
   -3.4980  -11.3303   10.9129 C   0  0  0  0  0  0  0  0  0  0  0  0
   -2.3905  -10.3036   10.6263 C   0  0  0  0  0  0  0  0  0  0  0  0
    8.7931   -7.0808   14.7378 N   0  0  0  0  0  0  0  0  0  0  0  0
   10.6705   -6.5310   15.2450 C   0  0  0  0  0  0  0  0  0  0  0  0
   11.0814   -4.6184   15.3310 C   0  0  0  0  0  0  0  0  0  0  0  0
   11.2170   -3.6760   14.2402 C   0  0  0  0  0  0  0  0  0  0  0  0
   11.7295   -2.4478   14.5932 C   0  0  0  0  0  0  0  0  0  0  0  0
   12.3210   -2.4625   16.1772 S   0  0  0  0  0  0  0  0  0  0  0  0
   11.7907   -4.0742   16.4057 C   0  0  0  0  0  0  0  0  0  0  0  0
    7.0963   -5.6854   15.8502 H   0  0  0  0  0  0  0  0  0  0  0  0
    6.8272   -6.5715   17.0203 H   0  0  0  0  0  0  0  0  0  0  0  0
    5.4473   -6.3303   16.3000 H   0  0  0  0  0  0  0  0  0  0  0  0
    7.3602   -8.4373   15.0909 H   0  0  0  0  0  0  0  0  0  0  0  0
    4.6708   -8.1903   13.4364 H   0  0  0  0  0  0  0  0  0  0  0  0
    5.8909   -9.9251   13.9425 H   0  0  0  0  0  0  0  0  0  0  0  0
    2.7980  -10.7686   14.0522 H   0  0  0  0  0  0  0  0  0  0  0  0
    3.6175  -11.0021   15.1802 H   0  0  0  0  0  0  0  0  0  0  0  0
    4.5932  -10.7937   14.6329 H   0  0  0  0  0  0  0  0  0  0  0  0
    0.8077  -12.5615   13.6538 H   0  0  0  0  0  0  0  0  0  0  0  0
   -0.8448  -14.4117   12.5639 H   0  0  0  0  0  0  0  0  0  0  0  0
   -0.6222   -9.6357   11.7472 H   0  0  0  0  0  0  0  0  0  0  0  0
   -2.4427   -9.9211   13.3071 H   0  0  0  0  0  0  0  0  0  0  0  0
   -1.6308  -11.4276   13.6745 H   0  0  0  0  0  0  0  0  0  0  0  0
   -4.2640  -11.2825   12.9470 H   0  0  0  0  0  0  0  0  0  0  0  0
   -3.2975  -12.7072   12.5719 H   0  0  0  0  0  0  0  0  0  0  0  0
   -3.3530  -12.2394   10.3210 H   0  0  0  0  0  0  0  0  0  0  0  0
   -4.4834  -10.9301   10.6535 H   0  0  0  0  0  0  0  0  0  0  0  0
   -2.1080  -10.2856    9.5807 H   0  0  0  0  0  0  0  0  0  0  0  0
   -2.8004   -9.3043   10.8336 H   0  0  0  0  0  0  0  0  0  0  0  0
    9.0763   -8.0444   14.8896 H   0  0  0  0  0  0  0  0  0  0  0  0
   10.8873   -6.4675   16.3312 H   0  0  0  0  0  0  0  0  0  0  0  0
   11.6383   -7.0380   15.4970 H   0  0  0  0  0  0  0  0  0  0  0  0
   11.0538   -3.9002   13.2021 H   0  0  0  0  0  0  0  0  0  0  0  0
   11.8720   -1.5905   13.9497 H   0  0  0  0  0  0  0  0  0  0  0  0
   12.0635   -4.5497   17.3292 H   0  0  0  0  0  0  0  0  0  0  0  0
  1  2  1  0
  2  3  1  0
  3  4  1  0
  4  5  1  0
  4  6  1  0
  6  7  2  0
  6  8  1  0
  8  9  2  0
  9 10  1  0
 10 11  2  0
 11 12  1  0
 12 13  1  0
 13 14  1  0
 14 15  1  0
 15 16  1  0
 16 17  1  0
  2 18  1  0
 18 19  1  0
 19 20  1  0
 20 21  1  0
 21 22  2  0
 22 23  1  0
 23 24  1  0
 12  8  1  0
 17 13  1  0
 24 20  2  0
  1 25  1  0
  1 26  1  0
  1 27  1  0
  2 28  1  0
  3 29  1  0
  3 30  1  0
  5 31  1  0
  5 32  1  0
  5 33  1  0
  9 34  1  0
 10 35  1  0
 13 36  1  0
 14 37  1  0
 14 38  1  0
 15 39  1  0
 15 40  1  0
 16 41  1  0
 16 42  1  0
 17 43  1  0
 17 44  1  0
 18 45  1  0
 19 46  1  0
 19 47  1  0
 21 48  1  0
 22 49  1  0
 24 50  1  0
M  END
>  <Energy>  (1649) 
1239.835876063707

>  <compound_id>  (1649) 
31229

>  <target_id>  (1649) 
1

>  <reference_id>  (1649) 
120

>  <inspiration_ids>  (1649) 
[112, 120]

>  <energy_score>  (1649) 
1177.5172973184094

>  <distance_score>  (1649) 
14.58046056743058

>  <path>  (1649) 
/opt/xchem-fragalysis-2/maxwin/BulkDock/SCRATCH/511013/C31229-P120/C31229-P120.minimised.mol

>  <scratch_subdir>  (1649) 
/opt/xchem-fragalysis-2/maxwin/BulkDock/SCRATCH/511013/C31229-P120

>  <fragmenstein_runtime>  (1649) 
17.14539647102356

>  <fragmenstein_outcome>  (1649) 
too moved

>  <fragmenstein_mode>  (1649) 
expansion

>  <fragmenstein_error>  (1649) 


$$$$
C8183-P35
     RDKit          3D

 42 43  0  0  0  0  0  0  0  0999 V2000
    1.3045  -11.8362   26.4137 C   0  0  0  0  0  0  0  0  0  0  0  0
    1.6434  -13.2928   25.8470 C   0  0  0  0  0  0  0  0  0  0  0  0
    0.4487  -13.7488   26.8559 C   0  0  0  0  0  0  0  0  0  0  0  0
   -1.1940  -14.7882   27.7045 N   0  0  0  0  0  0  0  0  0  0  0  0
   -1.7967  -14.8878   29.3932 C   0  0  0  0  0  0  0  0  0  0  0  0
   -1.3229  -14.4416   30.4448 O   0  0  0  0  0  0  0  0  0  0  0  0
   -3.2080  -15.5592   29.5449 C   0  0  0  0  0  0  0  0  0  0  0  0
   -4.3009  -14.5979   29.9702 C   0  0  0  0  0  0  0  0  0  0  0  0
   -4.6769  -14.5348   31.4057 C   0  0  0  0  0  0  0  0  0  0  0  0
   -5.3683  -15.5656   32.0882 C   0  0  0  0  0  0  0  0  0  0  0  0
   -6.1317  -15.0243   33.0982 C   0  0  0  0  0  0  0  0  0  0  0  0
   -5.5712  -13.4887   33.5674 S   0  0  0  0  0  0  0  0  0  0  0  0
   -4.5694  -13.4070   32.1911 C   0  0  0  0  0  0  0  0  0  0  0  0
    2.3485  -12.7265   24.0620 C   0  0  0  0  0  0  0  0  0  0  0  0
    3.4368  -12.4418   22.7549 N   0  0  0  0  0  0  0  0  0  0  0  0
    3.6021  -13.2123   21.2934 C   0  0  0  0  0  0  0  0  0  0  0  0
    2.9044  -14.0815   20.8522 O   0  0  0  0  0  0  0  0  0  0  0  0
    4.9909  -12.8479   20.3102 C   0  0  0  0  0  0  0  0  0  0  0  0
    6.2347  -12.1633   20.3806 C   0  0  0  0  0  0  0  0  0  0  0  0
    6.8348  -11.9584   19.1543 N   0  0  0  0  0  0  0  0  0  0  0  0
    6.0809  -12.6121   18.3106 C   0  0  0  0  0  0  0  0  0  0  0  0
    5.0093  -13.1766   18.9376 N   0  0  0  0  0  0  0  0  0  0  0  0
    1.6764  -11.4147   25.5550 H   0  0  0  0  0  0  0  0  0  0  0  0
    1.5961  -11.4621   27.4254 H   0  0  0  0  0  0  0  0  0  0  0  0
    0.3765  -11.4753   26.2723 H   0  0  0  0  0  0  0  0  0  0  0  0
    2.4618  -13.7465   26.4102 H   0  0  0  0  0  0  0  0  0  0  0  0
    0.4343  -12.8258   27.4144 H   0  0  0  0  0  0  0  0  0  0  0  0
   -0.0750  -13.2234   25.9834 H   0  0  0  0  0  0  0  0  0  0  0  0
   -1.8710  -15.1914   27.0729 H   0  0  0  0  0  0  0  0  0  0  0  0
   -3.4699  -16.1146   28.6517 H   0  0  0  0  0  0  0  0  0  0  0  0
   -3.1394  -16.3032   30.3466 H   0  0  0  0  0  0  0  0  0  0  0  0
   -5.2374  -14.9206   29.4969 H   0  0  0  0  0  0  0  0  0  0  0  0
   -4.0808  -13.5846   29.6101 H   0  0  0  0  0  0  0  0  0  0  0  0
   -5.5046  -16.5738   31.7144 H   0  0  0  0  0  0  0  0  0  0  0  0
   -6.9314  -15.5063   33.6429 H   0  0  0  0  0  0  0  0  0  0  0  0
   -4.0407  -12.4921   31.9592 H   0  0  0  0  0  0  0  0  0  0  0  0
    2.5020  -13.6945   23.6399 H   0  0  0  0  0  0  0  0  0  0  0  0
    1.7313  -11.9318   23.7176 H   0  0  0  0  0  0  0  0  0  0  0  0
    4.1061  -11.7099   22.8135 H   0  0  0  0  0  0  0  0  0  0  0  0
    6.7164  -11.6963   21.2271 H   0  0  0  0  0  0  0  0  0  0  0  0
    6.2610  -12.7332   17.2507 H   0  0  0  0  0  0  0  0  0  0  0  0
    4.3307  -13.8174   18.5484 H   0  0  0  0  0  0  0  0  0  0  0  0
  1  2  1  0
  2  3  1  0
  3  4  1  0
  4  5  1  0
  5  6  2  0
  5  7  1  0
  7  8  1  0
  8  9  1  0
  9 10  1  0
 10 11  2  0
 11 12  1  0
 12 13  1  0
  2 14  1  0
 14 15  1  0
 15 16  1  0
 16 17  2  0
 16 18  1  0
 18 19  2  0
 19 20  1  0
 20 21  2  0
 21 22  1  0
 13  9  2  0
 22 18  1  0
  1 23  1  0
  1 24  1  0
  1 25  1  0
  2 26  1  0
  3 27  1  0
  3 28  1  0
  4 29  1  0
  7 30  1  0
  7 31  1  0
  8 32  1  0
  8 33  1  0
 10 34  1  0
 11 35  1  0
 13 36  1  0
 14 37  1  0
 14 38  1  0
 15 39  1  0
 19 40  1  0
 21 41  1  0
 22 42  1  0
M  END
>  <Energy>  (1650) 
552.85040791319284

>  <compound_id>  (1650) 
8183

>  <target_id>  (1650) 
1

>  <reference_id>  (1650) 
35

>  <inspiration_ids>  (1650) 
[35, 20]

>  <energy_score>  (1650) 
569.6904234647093

>  <distance_score>  (1650) 
12.669538685078065

>  <path>  (1650) 
/opt/xchem-fragalysis-2/maxwin/BulkDock/SCRATCH/511013/C8183-P35/C8183-P35.minimised.mol

>  <scratch_subdir>  (1650) 
/opt/xchem-fragalysis-2/maxwin/BulkDock/SCRATCH/511013/C8183-P35

>  <fragmenstein_runtime>  (1650) 
21.00820827484131

>  <fragmenstein_outcome>  (1650) 
too moved

>  <fragmenstein_mode>  (1650) 
expansion

>  <fragmenstein_error>  (1650) 


$$$$
C8183-P20
     RDKit          3D

 42 43  0  0  0  0  0  0  0  0999 V2000
    4.8711  -10.9013   22.4378 C   0  0  0  0  0  0  0  0  0  0  0  0
    3.9935   -9.9907   23.3635 C   0  0  0  0  0  0  0  0  0  0  0  0
    2.6303  -11.6276   24.1819 C   0  0  0  0  0  0  0  0  0  0  0  0
    1.1649  -12.0672   25.6012 N   0  0  0  0  0  0  0  0  0  0  0  0
    0.8306  -13.5691   26.6789 C   0  0  0  0  0  0  0  0  0  0  0  0
    1.6725  -14.2817   26.5874 O   0  0  0  0  0  0  0  0  0  0  0  0
   -0.8141  -14.5482   27.8754 C   0  0  0  0  0  0  0  0  0  0  0  0
   -2.0481  -14.6022   29.4556 C   0  0  0  0  0  0  0  0  0  0  0  0
   -3.0455  -14.0272   30.5281 C   0  0  0  0  0  0  0  0  0  0  0  0
   -3.4048  -14.8638   31.6810 C   0  0  0  0  0  0  0  0  0  0  0  0
   -4.5181  -14.4400   32.3668 C   0  0  0  0  0  0  0  0  0  0  0  0
   -5.1087  -12.9844   31.7207 S   0  0  0  0  0  0  0  0  0  0  0  0
   -3.8700  -12.9298   30.5348 C   0  0  0  0  0  0  0  0  0  0  0  0
    5.2112   -8.7982   24.6548 C   0  0  0  0  0  0  0  0  0  0  0  0
    6.7769   -8.7570   24.8094 N   0  0  0  0  0  0  0  0  0  0  0  0
    7.5984   -8.4473   25.9168 C   0  0  0  0  0  0  0  0  0  0  0  0
    7.3206   -8.2152   27.0551 O   0  0  0  0  0  0  0  0  0  0  0  0
    8.9754   -8.3401   25.3983 C   0  0  0  0  0  0  0  0  0  0  0  0
    9.6380   -8.9786   24.3554 C   0  0  0  0  0  0  0  0  0  0  0  0
   10.7167   -8.2527   23.9097 N   0  0  0  0  0  0  0  0  0  0  0  0
   10.7904   -7.2252   24.7214 C   0  0  0  0  0  0  0  0  0  0  0  0
    9.8084   -7.2704   25.6746 N   0  0  0  0  0  0  0  0  0  0  0  0
    4.1866  -11.7373   22.4156 H   0  0  0  0  0  0  0  0  0  0  0  0
    5.9751  -10.9791   22.8363 H   0  0  0  0  0  0  0  0  0  0  0  0
    5.2625  -11.0081   21.4460 H   0  0  0  0  0  0  0  0  0  0  0  0
    5.0690  -10.1877   23.6898 H   0  0  0  0  0  0  0  0  0  0  0  0
    2.0046  -11.7895   23.3018 H   0  0  0  0  0  0  0  0  0  0  0  0
    3.0924  -12.6435   24.0127 H   0  0  0  0  0  0  0  0  0  0  0  0
    0.4671  -11.4337   25.7633 H   0  0  0  0  0  0  0  0  0  0  0  0
   -0.6553  -15.5530   28.1946 H   0  0  0  0  0  0  0  0  0  0  0  0
   -1.6920  -14.7995   27.1730 H   0  0  0  0  0  0  0  0  0  0  0  0
   -2.7923  -15.2842   29.0392 H   0  0  0  0  0  0  0  0  0  0  0  0
   -1.4229  -15.0371   30.2691 H   0  0  0  0  0  0  0  0  0  0  0  0
   -2.9030  -15.7905   31.9284 H   0  0  0  0  0  0  0  0  0  0  0  0
   -5.0083  -14.9142   33.2057 H   0  0  0  0  0  0  0  0  0  0  0  0
   -3.8852  -12.1578   29.7904 H   0  0  0  0  0  0  0  0  0  0  0  0
    5.0327   -7.7822   24.2111 H   0  0  0  0  0  0  0  0  0  0  0  0
    5.0172   -8.7353   25.7318 H   0  0  0  0  0  0  0  0  0  0  0  0
    7.3463   -8.8099   23.9845 H   0  0  0  0  0  0  0  0  0  0  0  0
    9.3330   -9.8803   23.8383 H   0  0  0  0  0  0  0  0  0  0  0  0
   11.5259   -6.4320   24.6819 H   0  0  0  0  0  0  0  0  0  0  0  0
    9.6299   -6.5680   26.3792 H   0  0  0  0  0  0  0  0  0  0  0  0
  1  2  1  0
  2  3  1  0
  3  4  1  0
  4  5  1  0
  5  6  2  0
  5  7  1  0
  7  8  1  0
  8  9  1  0
  9 10  1  0
 10 11  2  0
 11 12  1  0
 12 13  1  0
  2 14  1  0
 14 15  1  0
 15 16  1  0
 16 17  2  0
 16 18  1  0
 18 19  2  0
 19 20  1  0
 20 21  2  0
 21 22  1  0
 13  9  2  0
 22 18  1  0
  1 23  1  0
  1 24  1  0
  1 25  1  0
  2 26  1  0
  3 27  1  0
  3 28  1  0
  4 29  1  0
  7 30  1  0
  7 31  1  0
  8 32  1  0
  8 33  1  0
 10 34  1  0
 11 35  1  0
 13 36  1  0
 14 37  1  0
 14 38  1  0
 15 39  1  0
 19 40  1  0
 21 41  1  0
 22 42  1  0
M  END
>  <Energy>  (1651) 
969.99328785848149

>  <compound_id>  (1651) 
8183

>  <target_id>  (1651) 
1

>  <reference_id>  (1651) 
20

>  <inspiration_ids>  (1651) 
[35, 20]

>  <energy_score>  (1651) 
986.8333034100024

>  <distance_score>  (1651) 
12.696704614230004

>  <path>  (1651) 
/opt/xchem-fragalysis-2/maxwin/BulkDock/SCRATCH/511013/C8183-P20/C8183-P20.minimised.mol

>  <scratch_subdir>  (1651) 
/opt/xchem-fragalysis-2/maxwin/BulkDock/SCRATCH/511013/C8183-P20

>  <fragmenstein_runtime>  (1651) 
35.82585406303406

>  <fragmenstein_outcome>  (1651) 
too moved

>  <fragmenstein_mode>  (1651) 
expansion

>  <fragmenstein_error>  (1651) 


$$$$
C8184-P35
     RDKit          3D

 42 43  0  0  0  0  0  0  0  0999 V2000
   -2.2544   -6.0092   29.0332 C   0  0  0  0  0  0  0  0  0  0  0  0
   -1.3151   -5.9436   30.2274 C   0  0  0  0  0  0  0  0  0  0  0  0
   -0.1059   -4.9756   29.9502 C   0  0  0  0  0  0  0  0  0  0  0  0
    0.3788   -4.6009   28.6047 N   0  0  0  0  0  0  0  0  0  0  0  0
    1.2510   -3.5178   28.1748 C   0  0  0  0  0  0  0  0  0  0  0  0
    1.7286   -2.6135   28.7930 O   0  0  0  0  0  0  0  0  0  0  0  0
    1.7298   -3.5693   26.7557 C   0  0  0  0  0  0  0  0  0  0  0  0
    2.8186   -2.8352   26.2479 C   0  0  0  0  0  0  0  0  0  0  0  0
    3.1109   -3.1156   24.9345 N   0  0  0  0  0  0  0  0  0  0  0  0
    2.1893   -3.9745   24.6043 C   0  0  0  0  0  0  0  0  0  0  0  0
    1.9594   -4.7123   23.0967 Cl  0  0  0  0  0  0  0  0  0  0  0  0
    1.3481   -4.2913   25.6377 N   0  0  0  0  0  0  0  0  0  0  0  0
   -0.8932   -7.3506   30.7821 C   0  0  0  0  0  0  0  0  0  0  0  0
   -1.8984   -8.1762   31.5138 N   0  0  0  0  0  0  0  0  0  0  0  0
   -1.8240   -9.5677   32.0228 C   0  0  0  0  0  0  0  0  0  0  0  0
   -0.9662  -10.3966   31.9012 O   0  0  0  0  0  0  0  0  0  0  0  0
   -3.1297   -9.9687   32.8387 C   0  0  0  0  0  0  0  0  0  0  0  0
   -2.8467   -9.6889   34.3168 C   0  0  0  0  0  0  0  0  0  0  0  0
   -3.7058  -11.4267   32.6592 C   0  0  0  0  0  0  0  0  0  0  0  0
   -3.0021  -12.6289   32.2819 C   0  0  0  0  0  0  0  0  0  0  0  0
   -3.8000  -13.7564   32.2071 C   0  0  0  0  0  0  0  0  0  0  0  0
   -5.4144  -13.4196   32.6287 S   0  0  0  0  0  0  0  0  0  0  0  0
   -5.0394  -11.7643   32.8917 C   0  0  0  0  0  0  0  0  0  0  0  0
   -3.1869   -6.5134   29.2992 H   0  0  0  0  0  0  0  0  0  0  0  0
   -2.5224   -5.0026   28.6941 H   0  0  0  0  0  0  0  0  0  0  0  0
   -1.7921   -6.5353   28.1935 H   0  0  0  0  0  0  0  0  0  0  0  0
   -1.8780   -5.4781   31.0495 H   0  0  0  0  0  0  0  0  0  0  0  0
   -0.3506   -4.0135   30.4199 H   0  0  0  0  0  0  0  0  0  0  0  0
    0.7797   -5.3302   30.4908 H   0  0  0  0  0  0  0  0  0  0  0  0
    0.1014   -5.1409   27.7979 H   0  0  0  0  0  0  0  0  0  0  0  0
    3.4159   -2.1221   26.8066 H   0  0  0  0  0  0  0  0  0  0  0  0
    0.6328   -5.0005   25.5668 H   0  0  0  0  0  0  0  0  0  0  0  0
   -0.5467   -7.9766   29.9568 H   0  0  0  0  0  0  0  0  0  0  0  0
   -0.0612   -7.2372   31.4856 H   0  0  0  0  0  0  0  0  0  0  0  0
   -2.7361   -7.7324   31.8782 H   0  0  0  0  0  0  0  0  0  0  0  0
   -3.9338   -9.2929   32.5193 H   0  0  0  0  0  0  0  0  0  0  0  0
   -3.7463   -9.8276   34.9260 H   0  0  0  0  0  0  0  0  0  0  0  0
   -2.4937   -8.6624   34.4627 H   0  0  0  0  0  0  0  0  0  0  0  0
   -2.0738  -10.3632   34.7032 H   0  0  0  0  0  0  0  0  0  0  0  0
   -1.9423  -12.6648   32.0565 H   0  0  0  0  0  0  0  0  0  0  0  0
   -3.5020  -14.7568   31.9251 H   0  0  0  0  0  0  0  0  0  0  0  0
   -5.8355  -11.1030   33.2039 H   0  0  0  0  0  0  0  0  0  0  0  0
  1  2  1  0
  2  3  1  0
  3  4  1  0
  4  5  1  0
  5  6  2  0
  5  7  1  0
  7  8  2  0
  8  9  1  0
  9 10  2  0
 10 11  1  0
 10 12  1  0
  2 13  1  0
 13 14  1  0
 14 15  1  0
 15 16  2  0
 15 17  1  0
 17 18  1  0
 17 19  1  0
 19 20  1  0
 20 21  2  0
 21 22  1  0
 22 23  1  0
 12  7  1  0
 23 19  2  0
  1 24  1  0
  1 25  1  0
  1 26  1  0
  2 27  1  0
  3 28  1  0
  3 29  1  0
  4 30  1  0
  8 31  1  0
 12 32  1  0
 13 33  1  0
 13 34  1  0
 14 35  1  0
 17 36  1  0
 18 37  1  0
 18 38  1  0
 18 39  1  0
 20 40  1  0
 21 41  1  0
 23 42  1  0
M  END
>  <Energy>  (1652) 
13.269873983246619

>  <compound_id>  (1652) 
8184

>  <target_id>  (1652) 
1

>  <reference_id>  (1652) 
35

>  <inspiration_ids>  (1652) 
[35, 20]

>  <energy_score>  (1652) 
5.232967989893723

>  <distance_score>  (1652) 
15.008681417123132

>  <path>  (1652) 
/opt/xchem-fragalysis-2/maxwin/BulkDock/SCRATCH/511013/C8184-P35/C8184-P35.minimised.mol

>  <scratch_subdir>  (1652) 
/opt/xchem-fragalysis-2/maxwin/BulkDock/SCRATCH/511013/C8184-P35

>  <fragmenstein_runtime>  (1652) 
21.14922070503235

>  <fragmenstein_outcome>  (1652) 
too moved

>  <fragmenstein_mode>  (1652) 
expansion

>  <fragmenstein_error>  (1652) 


$$$$
C8184-P20
     RDKit          3D

 42 43  0  0  0  0  0  0  0  0999 V2000
   -0.1880   -9.5515   29.8888 C   0  0  0  0  0  0  0  0  0  0  0  0
    1.0549  -10.4548   30.1495 C   0  0  0  0  0  0  0  0  0  0  0  0
    2.3668  -10.6584   28.9852 C   0  0  0  0  0  0  0  0  0  0  0  0
    3.8491  -10.0294   28.6163 N   0  0  0  0  0  0  0  0  0  0  0  0
    5.1489  -10.6890   28.3653 C   0  0  0  0  0  0  0  0  0  0  0  0
    5.4651  -11.8380   28.4466 O   0  0  0  0  0  0  0  0  0  0  0  0
    6.1755   -9.7474   27.8310 C   0  0  0  0  0  0  0  0  0  0  0  0
    6.9942   -9.9519   26.7097 C   0  0  0  0  0  0  0  0  0  0  0  0
    7.6029   -8.7934   26.2795 N   0  0  0  0  0  0  0  0  0  0  0  0
    7.3630   -7.9575   27.2486 C   0  0  0  0  0  0  0  0  0  0  0  0
    7.8763   -6.3529   27.4034 Cl  0  0  0  0  0  0  0  0  0  0  0  0
    6.5969   -8.4995   28.2400 N   0  0  0  0  0  0  0  0  0  0  0  0
    0.9115  -10.9835   31.7233 C   0  0  0  0  0  0  0  0  0  0  0  0
   -0.1763  -11.9325   32.0101 N   0  0  0  0  0  0  0  0  0  0  0  0
   -0.2453  -13.0524   32.9376 C   0  0  0  0  0  0  0  0  0  0  0  0
    0.5398  -13.4356   33.7601 O   0  0  0  0  0  0  0  0  0  0  0  0
   -1.5942  -13.8422   32.7444 C   0  0  0  0  0  0  0  0  0  0  0  0
   -2.6182  -13.3181   33.7494 C   0  0  0  0  0  0  0  0  0  0  0  0
   -1.4268  -15.3707   32.8137 C   0  0  0  0  0  0  0  0  0  0  0  0
   -1.1242  -16.1353   33.9952 C   0  0  0  0  0  0  0  0  0  0  0  0
   -1.0247  -17.4909   33.7639 C   0  0  0  0  0  0  0  0  0  0  0  0
   -1.1861  -17.8614   32.1119 S   0  0  0  0  0  0  0  0  0  0  0  0
   -1.5657  -16.2321   31.7351 C   0  0  0  0  0  0  0  0  0  0  0  0
   -0.2856   -9.2872   28.8308 H   0  0  0  0  0  0  0  0  0  0  0  0
   -0.1976   -8.6544   30.5184 H   0  0  0  0  0  0  0  0  0  0  0  0
   -1.1002  -10.0745   30.1834 H   0  0  0  0  0  0  0  0  0  0  0  0
    0.6554  -11.2681   29.6548 H   0  0  0  0  0  0  0  0  0  0  0  0
    1.8316  -10.3239   28.0900 H   0  0  0  0  0  0  0  0  0  0  0  0
    2.4436  -11.7221   28.8345 H   0  0  0  0  0  0  0  0  0  0  0  0
    3.9616   -9.0506   28.5313 H   0  0  0  0  0  0  0  0  0  0  0  0
    7.0798  -10.8691   26.1353 H   0  0  0  0  0  0  0  0  0  0  0  0
    6.4305   -8.0700   29.1364 H   0  0  0  0  0  0  0  0  0  0  0  0
    0.6730  -10.1298   32.3710 H   0  0  0  0  0  0  0  0  0  0  0  0
    1.8362  -11.4360   32.0939 H   0  0  0  0  0  0  0  0  0  0  0  0
   -0.9881  -11.9565   31.3997 H   0  0  0  0  0  0  0  0  0  0  0  0
   -1.9909  -13.6281   31.7454 H   0  0  0  0  0  0  0  0  0  0  0  0
   -2.2886  -13.4796   34.7818 H   0  0  0  0  0  0  0  0  0  0  0  0
   -3.5850  -13.8168   33.6225 H   0  0  0  0  0  0  0  0  0  0  0  0
   -2.7718  -12.2411   33.6211 H   0  0  0  0  0  0  0  0  0  0  0  0
   -0.9871  -15.7011   34.9789 H   0  0  0  0  0  0  0  0  0  0  0  0
   -0.8274  -18.2714   34.4854 H   0  0  0  0  0  0  0  0  0  0  0  0
   -1.8235  -15.9769   30.7165 H   0  0  0  0  0  0  0  0  0  0  0  0
  1  2  1  0
  2  3  1  0
  3  4  1  0
  4  5  1  0
  5  6  2  0
  5  7  1  0
  7  8  2  0
  8  9  1  0
  9 10  2  0
 10 11  1  0
 10 12  1  0
  2 13  1  0
 13 14  1  0
 14 15  1  0
 15 16  2  0
 15 17  1  0
 17 18  1  0
 17 19  1  0
 19 20  1  0
 20 21  2  0
 21 22  1  0
 22 23  1  0
 12  7  1  0
 23 19  2  0
  1 24  1  0
  1 25  1  0
  1 26  1  0
  2 27  1  0
  3 28  1  0
  3 29  1  0
  4 30  1  0
  8 31  1  0
 12 32  1  0
 13 33  1  0
 13 34  1  0
 14 35  1  0
 17 36  1  0
 18 37  1  0
 18 38  1  0
 18 39  1  0
 20 40  1  0
 21 41  1  0
 23 42  1  0
M  END
>  <Energy>  (1653) 
91.789267878083663

>  <compound_id>  (1653) 
8184

>  <target_id>  (1653) 
1

>  <reference_id>  (1653) 
20

>  <inspiration_ids>  (1653) 
[35, 20]

>  <energy_score>  (1653) 
83.75236188473212

>  <distance_score>  (1653) 
14.130876137354562

>  <path>  (1653) 
/opt/xchem-fragalysis-2/maxwin/BulkDock/SCRATCH/511013/C8184-P20/C8184-P20.minimised.mol

>  <scratch_subdir>  (1653) 
/opt/xchem-fragalysis-2/maxwin/BulkDock/SCRATCH/511013/C8184-P20

>  <fragmenstein_runtime>  (1653) 
34.669923543930054

>  <fragmenstein_outcome>  (1653) 
too moved

>  <fragmenstein_mode>  (1653) 
expansion

>  <fragmenstein_error>  (1653) 


$$$$
C8185-P35
     RDKit          3D

 48 49  0  0  0  0  0  0  0  0999 V2000
    9.4079   -6.2253   19.2667 C   0  0  0  0  0  0  0  0  0  0  0  0
    7.2593   -6.4201   19.1593 C   0  0  0  0  0  0  0  0  0  0  0  0
    6.1392   -6.6835   18.0256 C   0  0  0  0  0  0  0  0  0  0  0  0
    6.1222   -6.0696   16.8052 N   0  0  0  0  0  0  0  0  0  0  0  0
    4.9717   -6.3207   16.2399 C   0  0  0  0  0  0  0  0  0  0  0  0
    4.3375   -7.2951   16.9042 N   0  0  0  0  0  0  0  0  0  0  0  0
    5.1753   -7.7541   17.9088 C   0  0  0  0  0  0  0  0  0  0  0  0
    4.6375   -9.0145   18.6416 C   0  0  0  0  0  0  0  0  0  0  0  0
    3.4163   -8.8931   18.7618 O   0  0  0  0  0  0  0  0  0  0  0  0
    5.5818  -10.5834   19.5048 N   0  0  0  0  0  0  0  0  0  0  0  0
    4.8637  -12.0623   20.7656 C   0  0  0  0  0  0  0  0  0  0  0  0
    3.5040  -12.5285   22.4083 C   0  0  0  0  0  0  0  0  0  0  0  0
    3.0965  -14.2313   22.8341 C   0  0  0  0  0  0  0  0  0  0  0  0
    2.7805  -13.0228   24.3482 C   0  0  0  0  0  0  0  0  0  0  0  0
    1.2018  -13.4230   25.5699 N   0  0  0  0  0  0  0  0  0  0  0  0
    0.9867  -14.5421   26.9781 C   0  0  0  0  0  0  0  0  0  0  0  0
    1.8425  -15.2886   27.6003 O   0  0  0  0  0  0  0  0  0  0  0  0
   -1.0479  -14.9054   27.7406 C   0  0  0  0  0  0  0  0  0  0  0  0
   -2.1626  -14.7306   29.1910 C   0  0  0  0  0  0  0  0  0  0  0  0
   -2.6289  -15.0896   26.7473 C   0  0  0  0  0  0  0  0  0  0  0  0
   -3.3574  -16.3968   26.7720 C   0  0  0  0  0  0  0  0  0  0  0  0
   -4.6349  -16.3700   26.2696 C   0  0  0  0  0  0  0  0  0  0  0  0
   -5.0128  -14.8263   25.6832 S   0  0  0  0  0  0  0  0  0  0  0  0
   -3.4651  -14.1901   26.1133 C   0  0  0  0  0  0  0  0  0  0  0  0
    9.5242   -7.3714   19.7171 H   0  0  0  0  0  0  0  0  0  0  0  0
   10.1665   -5.7899   18.6121 H   0  0  0  0  0  0  0  0  0  0  0  0
    9.7704   -5.4838   20.0164 H   0  0  0  0  0  0  0  0  0  0  0  0
    6.9442   -7.2295   19.8425 H   0  0  0  0  0  0  0  0  0  0  0  0
    6.8323   -5.5056   19.6580 H   0  0  0  0  0  0  0  0  0  0  0  0
    4.5494   -5.8491   15.3682 H   0  0  0  0  0  0  0  0  0  0  0  0
    3.4403   -7.7117   16.6917 H   0  0  0  0  0  0  0  0  0  0  0  0
    6.5753  -10.5737   19.2283 H   0  0  0  0  0  0  0  0  0  0  0  0
    5.8302  -12.5871   20.8207 H   0  0  0  0  0  0  0  0  0  0  0  0
    4.4028  -12.6932   19.9892 H   0  0  0  0  0  0  0  0  0  0  0  0
    3.3684  -11.5381   22.7791 H   0  0  0  0  0  0  0  0  0  0  0  0
    3.1270  -14.3530   21.7457 H   0  0  0  0  0  0  0  0  0  0  0  0
    3.5584  -15.2166   22.8338 H   0  0  0  0  0  0  0  0  0  0  0  0
    3.7539  -14.5137   23.6807 H   0  0  0  0  0  0  0  0  0  0  0  0
    3.6075  -13.4837   24.9027 H   0  0  0  0  0  0  0  0  0  0  0  0
    2.3325  -12.0402   24.2993 H   0  0  0  0  0  0  0  0  0  0  0  0
    0.3850  -12.9575   25.4014 H   0  0  0  0  0  0  0  0  0  0  0  0
   -1.2161  -15.9872   27.6287 H   0  0  0  0  0  0  0  0  0  0  0  0
   -1.6483  -14.8134   30.1594 H   0  0  0  0  0  0  0  0  0  0  0  0
   -2.8314  -13.8619   29.1191 H   0  0  0  0  0  0  0  0  0  0  0  0
   -2.9287  -15.5235   29.1925 H   0  0  0  0  0  0  0  0  0  0  0  0
   -2.9521  -17.3043   27.1899 H   0  0  0  0  0  0  0  0  0  0  0  0
   -5.3519  -17.1800   26.2291 H   0  0  0  0  0  0  0  0  0  0  0  0
   -3.3186  -13.1494   25.8778 H   0  0  0  0  0  0  0  0  0  0  0  0
  1  2  1  0
  2  3  1  0
  3  4  1  0
  4  5  2  0
  5  6  1  0
  6  7  1  0
  7  8  1  0
  8  9  2  0
  8 10  1  0
 10 11  1  0
 11 12  1  0
 12 13  1  0
 12 14  1  0
 14 15  1  0
 15 16  1  0
 16 17  2  0
 16 18  1  0
 18 19  1  0
 18 20  1  0
 20 21  1  0
 21 22  2  0
 22 23  1  0
 23 24  1  0
  7  3  2  0
 24 20  2  0
  1 25  1  0
  1 26  1  0
  1 27  1  0
  2 28  1  0
  2 29  1  0
  5 30  1  0
  6 31  1  0
 10 32  1  0
 11 33  1  0
 11 34  1  0
 12 35  1  0
 13 36  1  0
 13 37  1  0
 13 38  1  0
 14 39  1  0
 14 40  1  0
 15 41  1  0
 18 42  1  0
 19 43  1  0
 19 44  1  0
 19 45  1  0
 21 46  1  0
 22 47  1  0
 24 48  1  0
M  END
>  <Energy>  (1654) 
1304.4194767338563

>  <compound_id>  (1654) 
8185

>  <target_id>  (1654) 
1

>  <reference_id>  (1654) 
35

>  <inspiration_ids>  (1654) 
[35, 20]

>  <energy_score>  (1654) 
1273.9618425834387

>  <distance_score>  (1654) 
12.540425820034866

>  <path>  (1654) 
/opt/xchem-fragalysis-2/maxwin/BulkDock/SCRATCH/511013/C8185-P35/C8185-P35.minimised.mol

>  <scratch_subdir>  (1654) 
/opt/xchem-fragalysis-2/maxwin/BulkDock/SCRATCH/511013/C8185-P35

>  <fragmenstein_runtime>  (1654) 
25.682334423065186

>  <fragmenstein_outcome>  (1654) 
too moved

>  <fragmenstein_mode>  (1654) 
expansion

>  <fragmenstein_error>  (1654) 


$$$$
C8185-P20
     RDKit          3D

 48 49  0  0  0  0  0  0  0  0999 V2000
    8.3901  -14.2796   26.5663 C   0  0  0  0  0  0  0  0  0  0  0  0
    7.5132  -13.0766   26.3086 C   0  0  0  0  0  0  0  0  0  0  0  0
    5.8537  -12.8666   26.4656 C   0  0  0  0  0  0  0  0  0  0  0  0
    5.9846  -11.5182   26.7774 N   0  0  0  0  0  0  0  0  0  0  0  0
    5.7012  -11.5375   28.0231 C   0  0  0  0  0  0  0  0  0  0  0  0
    4.9259  -12.6522   28.2965 N   0  0  0  0  0  0  0  0  0  0  0  0
    4.4722  -13.6982   27.1243 C   0  0  0  0  0  0  0  0  0  0  0  0
    2.6214  -14.0936   27.2553 C   0  0  0  0  0  0  0  0  0  0  0  0
    1.7670  -13.3580   26.7971 O   0  0  0  0  0  0  0  0  0  0  0  0
    2.3625  -15.4845   28.2067 N   0  0  0  0  0  0  0  0  0  0  0  0
    0.7470  -16.2244   28.9836 C   0  0  0  0  0  0  0  0  0  0  0  0
   -0.4478  -15.5862   30.6180 C   0  0  0  0  0  0  0  0  0  0  0  0
   -2.2392  -15.2312   30.5757 C   0  0  0  0  0  0  0  0  0  0  0  0
   -0.6056  -13.9703   31.6436 C   0  0  0  0  0  0  0  0  0  0  0  0
   -1.7348  -13.5606   32.5619 N   0  0  0  0  0  0  0  0  0  0  0  0
   -2.7101  -12.4947   32.4496 C   0  0  0  0  0  0  0  0  0  0  0  0
   -2.9216  -11.7162   31.5604 O   0  0  0  0  0  0  0  0  0  0  0  0
   -3.5118  -12.3059   33.7426 C   0  0  0  0  0  0  0  0  0  0  0  0
   -2.6199  -12.2811   34.9882 C   0  0  0  0  0  0  0  0  0  0  0  0
   -4.6625  -13.2515   33.8064 C   0  0  0  0  0  0  0  0  0  0  0  0
   -5.3777  -13.5574   35.0026 C   0  0  0  0  0  0  0  0  0  0  0  0
   -6.3943  -14.4360   34.7670 C   0  0  0  0  0  0  0  0  0  0  0  0
   -6.5306  -14.8281   33.1055 S   0  0  0  0  0  0  0  0  0  0  0  0
   -5.2135  -13.8742   32.7019 C   0  0  0  0  0  0  0  0  0  0  0  0
    9.3590  -14.1218   26.0758 H   0  0  0  0  0  0  0  0  0  0  0  0
    8.6279  -14.4003   27.6257 H   0  0  0  0  0  0  0  0  0  0  0  0
    8.0005  -15.2079   26.1772 H   0  0  0  0  0  0  0  0  0  0  0  0
    7.9774  -12.3134   26.9573 H   0  0  0  0  0  0  0  0  0  0  0  0
    7.7327  -12.6839   25.3018 H   0  0  0  0  0  0  0  0  0  0  0  0
    5.8292  -10.7494   28.7529 H   0  0  0  0  0  0  0  0  0  0  0  0
    4.2454  -12.3924   28.9596 H   0  0  0  0  0  0  0  0  0  0  0  0
    3.2957  -15.9655   28.3761 H   0  0  0  0  0  0  0  0  0  0  0  0
    1.2415  -16.8854   29.7121 H   0  0  0  0  0  0  0  0  0  0  0  0
    0.4618  -17.0173   28.3019 H   0  0  0  0  0  0  0  0  0  0  0  0
   -0.2480  -16.4523   31.1950 H   0  0  0  0  0  0  0  0  0  0  0  0
   -2.6373  -15.4818   31.5650 H   0  0  0  0  0  0  0  0  0  0  0  0
   -2.4435  -14.1903   30.3374 H   0  0  0  0  0  0  0  0  0  0  0  0
   -2.9707  -15.6888   29.9003 H   0  0  0  0  0  0  0  0  0  0  0  0
    0.2947  -13.6640   32.2141 H   0  0  0  0  0  0  0  0  0  0  0  0
   -0.6474  -13.0785   31.1156 H   0  0  0  0  0  0  0  0  0  0  0  0
   -1.8993  -14.0690   33.4211 H   0  0  0  0  0  0  0  0  0  0  0  0
   -3.9433  -11.2953   33.6705 H   0  0  0  0  0  0  0  0  0  0  0  0
   -3.1433  -11.8143   35.8303 H   0  0  0  0  0  0  0  0  0  0  0  0
   -1.7076  -11.7022   34.8091 H   0  0  0  0  0  0  0  0  0  0  0  0
   -2.3262  -13.2861   35.3109 H   0  0  0  0  0  0  0  0  0  0  0  0
   -5.1406  -13.1863   35.9917 H   0  0  0  0  0  0  0  0  0  0  0  0
   -7.0226  -14.9203   35.5010 H   0  0  0  0  0  0  0  0  0  0  0  0
   -4.9095  -13.7935   31.6653 H   0  0  0  0  0  0  0  0  0  0  0  0
  1  2  1  0
  2  3  1  0
  3  4  1  0
  4  5  2  0
  5  6  1  0
  6  7  1  0
  7  8  1  0
  8  9  2  0
  8 10  1  0
 10 11  1  0
 11 12  1  0
 12 13  1  0
 12 14  1  0
 14 15  1  0
 15 16  1  0
 16 17  2  0
 16 18  1  0
 18 19  1  0
 18 20  1  0
 20 21  1  0
 21 22  2  0
 22 23  1  0
 23 24  1  0
  7  3  2  0
 24 20  2  0
  1 25  1  0
  1 26  1  0
  1 27  1  0
  2 28  1  0
  2 29  1  0
  5 30  1  0
  6 31  1  0
 10 32  1  0
 11 33  1  0
 11 34  1  0
 12 35  1  0
 13 36  1  0
 13 37  1  0
 13 38  1  0
 14 39  1  0
 14 40  1  0
 15 41  1  0
 18 42  1  0
 19 43  1  0
 19 44  1  0
 19 45  1  0
 21 46  1  0
 22 47  1  0
 24 48  1  0
M  END
>  <Energy>  (1655) 
554.40399628256478

>  <compound_id>  (1655) 
8185

>  <target_id>  (1655) 
1

>  <reference_id>  (1655) 
20

>  <inspiration_ids>  (1655) 
[35, 20]

>  <energy_score>  (1655) 
523.9463621321473

>  <distance_score>  (1655) 
15.004812260786448

>  <path>  (1655) 
/opt/xchem-fragalysis-2/maxwin/BulkDock/SCRATCH/511013/C8185-P20/C8185-P20.minimised.mol

>  <scratch_subdir>  (1655) 
/opt/xchem-fragalysis-2/maxwin/BulkDock/SCRATCH/511013/C8185-P20

>  <fragmenstein_runtime>  (1655) 
31.79268217086792

>  <fragmenstein_outcome>  (1655) 
too moved

>  <fragmenstein_mode>  (1655) 
expansion

>  <fragmenstein_error>  (1655) 


$$$$
C8186-P35
     RDKit          3D

 35 36  0  0  0  0  0  0  0  0999 V2000
   -2.2194   -4.3110   25.1360 O   0  0  0  0  0  0  0  0  0  0  0  0
   -1.3116   -4.3089   24.3148 C   0  0  0  0  0  0  0  0  0  0  0  0
   -0.1823   -3.5948   24.4939 O   0  0  0  0  0  0  0  0  0  0  0  0
   -1.3546   -5.1188   23.0499 C   0  0  0  0  0  0  0  0  0  0  0  0
   -0.7546   -6.5057   23.3145 C   0  0  0  0  0  0  0  0  0  0  0  0
    0.5943   -6.6164   22.7170 N   0  0  0  0  0  0  0  0  0  0  0  0
    1.6791   -5.6258   22.5939 C   0  0  0  0  0  0  0  0  0  0  0  0
    1.7072   -4.4585   22.8771 O   0  0  0  0  0  0  0  0  0  0  0  0
    2.9270   -6.2880   21.9775 C   0  0  0  0  0  0  0  0  0  0  0  0
    4.1420   -5.4848   21.6837 N   0  0  0  0  0  0  0  0  0  0  0  0
    4.7243   -5.3867   20.4406 C   0  0  0  0  0  0  0  0  0  0  0  0
    5.9621   -4.9456   20.5014 N   0  0  0  0  0  0  0  0  0  0  0  0
    6.2159   -4.6698   21.8394 C   0  0  0  0  0  0  0  0  0  0  0  0
    7.5710   -4.1622   22.3148 C   0  0  0  0  0  0  0  0  0  0  0  0
    8.3078   -5.1686   22.8721 F   0  0  0  0  0  0  0  0  0  0  0  0
    7.4726   -3.1773   23.2414 F   0  0  0  0  0  0  0  0  0  0  0  0
    8.3764   -3.6882   21.3122 F   0  0  0  0  0  0  0  0  0  0  0  0
    5.0905   -5.0307   22.5784 C   0  0  0  0  0  0  0  0  0  0  0  0
   -1.7406   -7.6253   22.8931 C   0  0  0  0  0  0  0  0  0  0  0  0
   -3.0134   -7.8677   23.5645 C   0  0  0  0  0  0  0  0  0  0  0  0
   -3.7954   -8.8169   22.9394 C   0  0  0  0  0  0  0  0  0  0  0  0
   -3.0184   -9.4526   21.5620 S   0  0  0  0  0  0  0  0  0  0  0  0
   -1.6136   -8.5172   21.8411 C   0  0  0  0  0  0  0  0  0  0  0  0
    0.5205   -3.7443   23.8131 H   0  0  0  0  0  0  0  0  0  0  0  0
   -2.4104   -5.1696   22.7545 H   0  0  0  0  0  0  0  0  0  0  0  0
   -0.8600   -4.5718   22.2400 H   0  0  0  0  0  0  0  0  0  0  0  0
   -0.5854   -6.6493   24.3897 H   0  0  0  0  0  0  0  0  0  0  0  0
    0.9494   -7.5336   22.4581 H   0  0  0  0  0  0  0  0  0  0  0  0
    3.2603   -7.0909   22.6413 H   0  0  0  0  0  0  0  0  0  0  0  0
    2.6018   -6.6991   21.0169 H   0  0  0  0  0  0  0  0  0  0  0  0
    4.2136   -5.6899   19.5350 H   0  0  0  0  0  0  0  0  0  0  0  0
    4.9037   -5.0295   23.6443 H   0  0  0  0  0  0  0  0  0  0  0  0
   -3.3491   -7.3064   24.4310 H   0  0  0  0  0  0  0  0  0  0  0  0
   -4.7934   -9.1468   23.1970 H   0  0  0  0  0  0  0  0  0  0  0  0
   -0.7875   -8.6196   21.1490 H   0  0  0  0  0  0  0  0  0  0  0  0
  1  2  2  0
  2  3  1  0
  2  4  1  0
  4  5  1  0
  5  6  1  0
  6  7  1  0
  7  8  2  0
  7  9  1  0
  9 10  1  0
 10 11  1  0
 11 12  2  0
 12 13  1  0
 13 14  1  0
 14 15  1  0
 14 16  1  0
 14 17  1  0
 13 18  2  0
  5 19  1  0
 19 20  1  0
 20 21  2  0
 21 22  1  0
 22 23  1  0
 18 10  1  0
 23 19  2  0
  3 24  1  0
  4 25  1  0
  4 26  1  0
  5 27  1  0
  6 28  1  0
  9 29  1  0
  9 30  1  0
 11 31  1  0
 18 32  1  0
 20 33  1  0
 21 34  1  0
 23 35  1  0
M  END
>  <Energy>  (1656) 
53.129399754217971

>  <compound_id>  (1656) 
8186

>  <target_id>  (1656) 
1

>  <reference_id>  (1656) 
35

>  <inspiration_ids>  (1656) 
[35, 20]

>  <energy_score>  (1656) 
-31.49300416056633

>  <distance_score>  (1656) 
16.352693544637223

>  <path>  (1656) 
/opt/xchem-fragalysis-2/maxwin/BulkDock/SCRATCH/511013/C8186-P35/C8186-P35.minimised.mol

>  <scratch_subdir>  (1656) 
/opt/xchem-fragalysis-2/maxwin/BulkDock/SCRATCH/511013/C8186-P35

>  <fragmenstein_runtime>  (1656) 
28.69875144958496

>  <fragmenstein_outcome>  (1656) 
too moved

>  <fragmenstein_mode>  (1656) 
expansion

>  <fragmenstein_error>  (1656) 


$$$$
C8186-P20
     RDKit          3D

 35 36  0  0  0  0  0  0  0  0999 V2000
   -2.8052  -15.3646   27.9562 O   0  0  0  0  0  0  0  0  0  0  0  0
   -1.9397  -14.8855   27.3038 C   0  0  0  0  0  0  0  0  0  0  0  0
   -0.9136  -14.8642   27.9494 O   0  0  0  0  0  0  0  0  0  0  0  0
   -1.9819  -14.0971   25.5930 C   0  0  0  0  0  0  0  0  0  0  0  0
   -0.9152  -14.5846   24.0494 C   0  0  0  0  0  0  0  0  0  0  0  0
   -0.3703  -12.8577   22.8673 N   0  0  0  0  0  0  0  0  0  0  0  0
    1.0186  -11.8022   22.9335 C   0  0  0  0  0  0  0  0  0  0  0  0
    2.0452  -11.8899   23.5983 O   0  0  0  0  0  0  0  0  0  0  0  0
    0.3721  -10.3543   21.7439 C   0  0  0  0  0  0  0  0  0  0  0  0
    0.6656   -8.7234   21.4571 N   0  0  0  0  0  0  0  0  0  0  0  0
    0.1202   -8.0418   20.3604 C   0  0  0  0  0  0  0  0  0  0  0  0
    0.5490   -6.7976   20.2273 N   0  0  0  0  0  0  0  0  0  0  0  0
    1.2568   -6.5138   21.3772 C   0  0  0  0  0  0  0  0  0  0  0  0
    2.2177   -5.2784   21.4761 C   0  0  0  0  0  0  0  0  0  0  0  0
    3.2507   -5.4584   22.3620 F   0  0  0  0  0  0  0  0  0  0  0  0
    1.5639   -4.1504   21.8605 F   0  0  0  0  0  0  0  0  0  0  0  0
    2.8583   -4.9864   20.2936 F   0  0  0  0  0  0  0  0  0  0  0  0
    1.1427   -7.6426   22.2176 C   0  0  0  0  0  0  0  0  0  0  0  0
   -2.2355  -16.1185   24.8497 C   0  0  0  0  0  0  0  0  0  0  0  0
   -2.5102  -17.1116   26.5475 C   0  0  0  0  0  0  0  0  0  0  0  0
   -2.8340  -18.5399   27.0355 C   0  0  0  0  0  0  0  0  0  0  0  0
   -2.0621  -19.4379   25.9358 S   0  0  0  0  0  0  0  0  0  0  0  0
   -1.7032  -17.7182   25.5911 C   0  0  0  0  0  0  0  0  0  0  0  0
   -1.4854  -14.6737   28.7510 H   0  0  0  0  0  0  0  0  0  0  0  0
   -2.6917  -13.2638   25.5941 H   0  0  0  0  0  0  0  0  0  0  0  0
   -1.3389  -13.2587   25.5603 H   0  0  0  0  0  0  0  0  0  0  0  0
    0.0907  -14.5194   24.4256 H   0  0  0  0  0  0  0  0  0  0  0  0
   -1.0716  -12.4154   22.2627 H   0  0  0  0  0  0  0  0  0  0  0  0
   -0.3827  -10.0144   22.4705 H   0  0  0  0  0  0  0  0  0  0  0  0
   -0.4543  -10.5986   21.0697 H   0  0  0  0  0  0  0  0  0  0  0  0
   -0.5712   -8.5122   19.6764 H   0  0  0  0  0  0  0  0  0  0  0  0
    1.5464   -7.7582   23.2033 H   0  0  0  0  0  0  0  0  0  0  0  0
   -3.2255  -16.8589   27.3239 H   0  0  0  0  0  0  0  0  0  0  0  0
   -3.4581  -18.8652   27.8623 H   0  0  0  0  0  0  0  0  0  0  0  0
   -0.6689  -17.8963   25.9437 H   0  0  0  0  0  0  0  0  0  0  0  0
  1  2  2  0
  2  3  1  0
  2  4  1  0
  4  5  1  0
  5  6  1  0
  6  7  1  0
  7  8  2  0
  7  9  1  0
  9 10  1  0
 10 11  1  0
 11 12  2  0
 12 13  1  0
 13 14  1  0
 14 15  1  0
 14 16  1  0
 14 17  1  0
 13 18  2  0
  5 19  1  0
 19 20  1  0
 20 21  2  0
 21 22  1  0
 22 23  1  0
 18 10  1  0
 23 19  2  0
  3 24  1  0
  4 25  1  0
  4 26  1  0
  5 27  1  0
  6 28  1  0
  9 29  1  0
  9 30  1  0
 11 31  1  0
 18 32  1  0
 20 33  1  0
 21 34  1  0
 23 35  1  0
M  END
>  <Energy>  (1657) 
1158.1402417099769

>  <compound_id>  (1657) 
8186

>  <target_id>  (1657) 
1

>  <reference_id>  (1657) 
20

>  <inspiration_ids>  (1657) 
[35, 20]

>  <energy_score>  (1657) 
1073.5178377951931

>  <distance_score>  (1657) 
13.332681502923068

>  <path>  (1657) 
/opt/xchem-fragalysis-2/maxwin/BulkDock/SCRATCH/511013/C8186-P20/C8186-P20.minimised.mol

>  <scratch_subdir>  (1657) 
/opt/xchem-fragalysis-2/maxwin/BulkDock/SCRATCH/511013/C8186-P20

>  <fragmenstein_runtime>  (1657) 
28.343077659606934

>  <fragmenstein_outcome>  (1657) 
too moved

>  <fragmenstein_mode>  (1657) 
expansion

>  <fragmenstein_error>  (1657) 


$$$$
C8187-P35
     RDKit          3D

 46 47  0  0  0  0  0  0  0  0999 V2000
    8.3664  -12.8316   25.9367 C   0  0  0  0  0  0  0  0  0  0  0  0
    7.4268  -11.7398   26.1028 C   0  0  0  0  0  0  0  0  0  0  0  0
    7.8305  -10.4836   25.6810 N   0  0  0  0  0  0  0  0  0  0  0  0
    7.1756   -9.5810   26.4514 C   0  0  0  0  0  0  0  0  0  0  0  0
    6.2451  -10.1839   27.1552 N   0  0  0  0  0  0  0  0  0  0  0  0
    6.2748  -11.5943   26.8655 C   0  0  0  0  0  0  0  0  0  0  0  0
    5.3330  -12.5419   27.7240 C   0  0  0  0  0  0  0  0  0  0  0  0
    5.4311  -12.2662   28.8843 O   0  0  0  0  0  0  0  0  0  0  0  0
    4.4650  -13.7624   27.0097 N   0  0  0  0  0  0  0  0  0  0  0  0
    3.5748  -15.0218   27.6900 C   0  0  0  0  0  0  0  0  0  0  0  0
    1.9427  -16.0353   28.0202 C   0  0  0  0  0  0  0  0  0  0  0  0
    0.8242  -16.1343   29.6010 N   0  0  0  0  0  0  0  0  0  0  0  0
   -0.9133  -15.4540   29.9097 C   0  0  0  0  0  0  0  0  0  0  0  0
   -1.6041  -14.9175   29.0458 O   0  0  0  0  0  0  0  0  0  0  0  0
   -1.6246  -15.3570   31.2667 C   0  0  0  0  0  0  0  0  0  0  0  0
   -2.8906  -14.5993   31.2257 O   0  0  0  0  0  0  0  0  0  0  0  0
   -4.0683  -15.1919   31.5571 C   0  0  0  0  0  0  0  0  0  0  0  0
   -4.4011  -16.5436   31.7915 C   0  0  0  0  0  0  0  0  0  0  0  0
   -5.7567  -16.7537   31.9401 C   0  0  0  0  0  0  0  0  0  0  0  0
   -6.6003  -15.2831   31.9998 S   0  0  0  0  0  0  0  0  0  0  0  0
   -5.1867  -14.3965   31.6675 C   0  0  0  0  0  0  0  0  0  0  0  0
    2.0906  -17.2018   27.1030 C   0  0  0  0  0  0  0  0  0  0  0  0
    0.6827  -17.7517   27.1581 C   0  0  0  0  0  0  0  0  0  0  0  0
    2.9433  -17.8052   25.8991 C   0  0  0  0  0  0  0  0  0  0  0  0
    8.6518  -12.9700   24.8907 H   0  0  0  0  0  0  0  0  0  0  0  0
    9.2714  -12.5737   26.5005 H   0  0  0  0  0  0  0  0  0  0  0  0
    7.9612  -13.7505   26.3518 H   0  0  0  0  0  0  0  0  0  0  0  0
    8.6589  -10.2862   25.1357 H   0  0  0  0  0  0  0  0  0  0  0  0
    7.4139   -8.5261   26.4763 H   0  0  0  0  0  0  0  0  0  0  0  0
    4.5229  -13.6752   26.0005 H   0  0  0  0  0  0  0  0  0  0  0  0
    2.8378  -14.2928   27.3190 H   0  0  0  0  0  0  0  0  0  0  0  0
    3.9515  -15.7094   26.9723 H   0  0  0  0  0  0  0  0  0  0  0  0
    1.4123  -15.2554   27.5798 H   0  0  0  0  0  0  0  0  0  0  0  0
    1.1564  -16.6021   30.4404 H   0  0  0  0  0  0  0  0  0  0  0  0
   -1.9466  -16.2988   31.6151 H   0  0  0  0  0  0  0  0  0  0  0  0
   -1.0369  -14.6226   31.7803 H   0  0  0  0  0  0  0  0  0  0  0  0
   -3.6946  -17.3510   31.8523 H   0  0  0  0  0  0  0  0  0  0  0  0
   -6.2651  -17.6932   32.0955 H   0  0  0  0  0  0  0  0  0  0  0  0
   -5.2329  -13.3237   31.5479 H   0  0  0  0  0  0  0  0  0  0  0  0
    2.9895  -17.3515   27.6763 H   0  0  0  0  0  0  0  0  0  0  0  0
    0.7611  -18.0284   28.1452 H   0  0  0  0  0  0  0  0  0  0  0  0
    0.4229  -18.4692   26.3583 H   0  0  0  0  0  0  0  0  0  0  0  0
   -0.3433  -17.3881   27.1353 H   0  0  0  0  0  0  0  0  0  0  0  0
    3.4693  -18.7344   26.1205 H   0  0  0  0  0  0  0  0  0  0  0  0
    2.5054  -18.0401   24.9292 H   0  0  0  0  0  0  0  0  0  0  0  0
    3.6723  -17.1529   25.5586 H   0  0  0  0  0  0  0  0  0  0  0  0
  1  2  1  0
  2  3  1  0
  3  4  1  0
  4  5  2  0
  5  6  1  0
  6  7  1  0
  7  8  2  0
  7  9  1  0
  9 10  1  0
 10 11  1  0
 11 12  1  0
 12 13  1  0
 13 14  2  0
 13 15  1  0
 15 16  1  0
 16 17  1  0
 17 18  1  0
 18 19  2  0
 19 20  1  0
 20 21  1  0
 11 22  1  0
 22 23  1  0
 22 24  1  0
  6  2  2  0
 21 17  2  0
  1 25  1  0
  1 26  1  0
  1 27  1  0
  3 28  1  0
  4 29  1  0
  9 30  1  0
 10 31  1  0
 10 32  1  0
 11 33  1  0
 12 34  1  0
 15 35  1  0
 15 36  1  0
 18 37  1  0
 19 38  1  0
 21 39  1  0
 22 40  1  0
 23 41  1  0
 23 42  1  0
 23 43  1  0
 24 44  1  0
 24 45  1  0
 24 46  1  0
M  END
>  <Energy>  (1658) 
519.41529394297311

>  <compound_id>  (1658) 
8187

>  <target_id>  (1658) 
1

>  <reference_id>  (1658) 
35

>  <inspiration_ids>  (1658) 
[35, 20]

>  <energy_score>  (1658) 
426.07107677916724

>  <distance_score>  (1658) 
13.455051591843123

>  <path>  (1658) 
/opt/xchem-fragalysis-2/maxwin/BulkDock/SCRATCH/511013/C8187-P35/C8187-P35.minimised.mol

>  <scratch_subdir>  (1658) 
/opt/xchem-fragalysis-2/maxwin/BulkDock/SCRATCH/511013/C8187-P35

>  <fragmenstein_runtime>  (1658) 
20.613993406295776

>  <fragmenstein_outcome>  (1658) 
too moved

>  <fragmenstein_mode>  (1658) 
expansion

>  <fragmenstein_error>  (1658) 


$$$$
C8187-P20
     RDKit          3D

 46 47  0  0  0  0  0  0  0  0999 V2000
    2.2124   -6.0858   20.5669 C   0  0  0  0  0  0  0  0  0  0  0  0
    3.4146   -6.3150   21.4082 C   0  0  0  0  0  0  0  0  0  0  0  0
    4.4591   -5.4226   21.4404 N   0  0  0  0  0  0  0  0  0  0  0  0
    5.2640   -5.7952   22.4692 C   0  0  0  0  0  0  0  0  0  0  0  0
    4.8213   -6.8906   23.0448 N   0  0  0  0  0  0  0  0  0  0  0  0
    3.7526   -7.3679   22.2916 C   0  0  0  0  0  0  0  0  0  0  0  0
    2.6973   -8.6012   22.7220 C   0  0  0  0  0  0  0  0  0  0  0  0
    1.5655   -8.1127   22.9470 O   0  0  0  0  0  0  0  0  0  0  0  0
    3.2124  -10.4810   23.0020 N   0  0  0  0  0  0  0  0  0  0  0  0
    2.1866  -12.0310   23.8331 C   0  0  0  0  0  0  0  0  0  0  0  0
    1.6098  -13.1097   25.5821 C   0  0  0  0  0  0  0  0  0  0  0  0
    0.6501  -14.2781   26.7800 N   0  0  0  0  0  0  0  0  0  0  0  0
   -1.3502  -14.7031   26.9342 C   0  0  0  0  0  0  0  0  0  0  0  0
   -2.1939  -14.2557   26.1266 O   0  0  0  0  0  0  0  0  0  0  0  0
   -1.7999  -15.4137   28.0449 C   0  0  0  0  0  0  0  0  0  0  0  0
   -2.3022  -14.6856   29.3116 O   0  0  0  0  0  0  0  0  0  0  0  0
   -2.9537  -14.9975   30.5117 C   0  0  0  0  0  0  0  0  0  0  0  0
   -2.7177  -14.1941   31.6766 C   0  0  0  0  0  0  0  0  0  0  0  0
   -3.6220  -14.3844   32.7021 C   0  0  0  0  0  0  0  0  0  0  0  0
   -4.8474  -15.4682   32.2599 S   0  0  0  0  0  0  0  0  0  0  0  0
   -4.0434  -15.8036   30.7901 C   0  0  0  0  0  0  0  0  0  0  0  0
    3.1343  -14.0514   26.3462 C   0  0  0  0  0  0  0  0  0  0  0  0
    3.5649  -15.0065   27.4505 C   0  0  0  0  0  0  0  0  0  0  0  0
    4.2168  -14.2205   25.3564 C   0  0  0  0  0  0  0  0  0  0  0  0
    1.6379   -7.0052   20.4205 H   0  0  0  0  0  0  0  0  0  0  0  0
    2.4974   -5.7107   19.5785 H   0  0  0  0  0  0  0  0  0  0  0  0
    1.5572   -5.3476   21.0399 H   0  0  0  0  0  0  0  0  0  0  0  0
    4.5340   -4.5649   20.9095 H   0  0  0  0  0  0  0  0  0  0  0  0
    6.1229   -5.2189   22.7851 H   0  0  0  0  0  0  0  0  0  0  0  0
    4.1700  -10.6375   22.6622 H   0  0  0  0  0  0  0  0  0  0  0  0
    1.3099  -11.8038   23.2522 H   0  0  0  0  0  0  0  0  0  0  0  0
    2.8431  -12.7706   23.3910 H   0  0  0  0  0  0  0  0  0  0  0  0
    1.2401  -12.2673   26.2089 H   0  0  0  0  0  0  0  0  0  0  0  0
    1.1710  -14.8261   27.4689 H   0  0  0  0  0  0  0  0  0  0  0  0
   -0.8926  -15.8108   28.3788 H   0  0  0  0  0  0  0  0  0  0  0  0
   -2.4803  -16.1372   27.5650 H   0  0  0  0  0  0  0  0  0  0  0  0
   -1.9340  -13.4510   31.7405 H   0  0  0  0  0  0  0  0  0  0  0  0
   -3.6491  -13.8799   33.6577 H   0  0  0  0  0  0  0  0  0  0  0  0
   -4.6141  -16.4537   30.1697 H   0  0  0  0  0  0  0  0  0  0  0  0
    2.8770  -13.5066   27.2299 H   0  0  0  0  0  0  0  0  0  0  0  0
    4.2700  -14.4829   28.0576 H   0  0  0  0  0  0  0  0  0  0  0  0
    3.8593  -15.9868   27.1335 H   0  0  0  0  0  0  0  0  0  0  0  0
    2.6838  -15.3239   27.9685 H   0  0  0  0  0  0  0  0  0  0  0  0
    3.7410  -14.0325   24.4071 H   0  0  0  0  0  0  0  0  0  0  0  0
    4.6103  -15.1810   25.1233 H   0  0  0  0  0  0  0  0  0  0  0  0
    5.0553  -13.6005   25.6723 H   0  0  0  0  0  0  0  0  0  0  0  0
  1  2  1  0
  2  3  1  0
  3  4  1  0
  4  5  2  0
  5  6  1  0
  6  7  1  0
  7  8  2  0
  7  9  1  0
  9 10  1  0
 10 11  1  0
 11 12  1  0
 12 13  1  0
 13 14  2  0
 13 15  1  0
 15 16  1  0
 16 17  1  0
 17 18  1  0
 18 19  2  0
 19 20  1  0
 20 21  1  0
 11 22  1  0
 22 23  1  0
 22 24  1  0
  6  2  2  0
 21 17  2  0
  1 25  1  0
  1 26  1  0
  1 27  1  0
  3 28  1  0
  4 29  1  0
  9 30  1  0
 10 31  1  0
 10 32  1  0
 11 33  1  0
 12 34  1  0
 15 35  1  0
 15 36  1  0
 18 37  1  0
 19 38  1  0
 21 39  1  0
 22 40  1  0
 23 41  1  0
 23 42  1  0
 23 43  1  0
 24 44  1  0
 24 45  1  0
 24 46  1  0
M  END
>  <Energy>  (1659) 
842.54068849192709

>  <compound_id>  (1659) 
8187

>  <target_id>  (1659) 
1

>  <reference_id>  (1659) 
20

>  <inspiration_ids>  (1659) 
[35, 20]

>  <energy_score>  (1659) 
749.1964713281241

>  <distance_score>  (1659) 
12.546498722175949

>  <path>  (1659) 
/opt/xchem-fragalysis-2/maxwin/BulkDock/SCRATCH/511013/C8187-P20/C8187-P20.minimised.mol

>  <scratch_subdir>  (1659) 
/opt/xchem-fragalysis-2/maxwin/BulkDock/SCRATCH/511013/C8187-P20

>  <fragmenstein_runtime>  (1659) 
47.357760429382324

>  <fragmenstein_outcome>  (1659) 
too moved

>  <fragmenstein_mode>  (1659) 
expansion

>  <fragmenstein_error>  (1659) 


$$$$
C8189-P35
     RDKit          3D

 46 47  0  0  0  0  0  0  0  0999 V2000
   -2.9207  -13.1355   29.3228 C   0  0  0  0  0  0  0  0  0  0  0  0
   -2.3187  -14.5781   27.8981 C   0  0  0  0  0  0  0  0  0  0  0  0
   -2.4295  -16.4045   27.2236 C   0  0  0  0  0  0  0  0  0  0  0  0
   -0.8548  -14.7469   27.9152 C   0  0  0  0  0  0  0  0  0  0  0  0
    0.5244  -13.4566   26.7443 C   0  0  0  0  0  0  0  0  0  0  0  0
    1.9088  -13.5516   26.0881 N   0  0  0  0  0  0  0  0  0  0  0  0
    2.4861  -12.9617   24.5126 C   0  0  0  0  0  0  0  0  0  0  0  0
    1.9244  -12.2957   23.6792 O   0  0  0  0  0  0  0  0  0  0  0  0
    4.0955  -13.5652   24.0706 C   0  0  0  0  0  0  0  0  0  0  0  0
    5.4567  -12.8714   23.5533 C   0  0  0  0  0  0  0  0  0  0  0  0
    5.6164  -11.9312   22.3561 C   0  0  0  0  0  0  0  0  0  0  0  0
    6.0758  -10.6169   22.3437 C   0  0  0  0  0  0  0  0  0  0  0  0
    6.1799  -10.2563   21.0264 N   0  0  0  0  0  0  0  0  0  0  0  0
    5.8578  -11.3533   20.2859 C   0  0  0  0  0  0  0  0  0  0  0  0
    5.5477  -12.3777   21.0526 N   0  0  0  0  0  0  0  0  0  0  0  0
   -1.6869  -14.9869   29.5249 N   0  0  0  0  0  0  0  0  0  0  0  0
   -3.1784  -15.9358   29.7660 C   0  0  0  0  0  0  0  0  0  0  0  0
   -5.0362  -16.2063   30.2081 C   0  0  0  0  0  0  0  0  0  0  0  0
   -5.1771  -16.7064   32.0983 C   0  0  0  0  0  0  0  0  0  0  0  0
   -6.3164  -16.5477   32.7931 C   0  0  0  0  0  0  0  0  0  0  0  0
   -6.6561  -17.7817   31.8398 S   0  0  0  0  0  0  0  0  0  0  0  0
   -5.9043  -17.0667   29.9070 C   0  0  0  0  0  0  0  0  0  0  0  0
   -3.9668  -13.1649   29.7227 H   0  0  0  0  0  0  0  0  0  0  0  0
   -2.4126  -12.6953   30.1563 H   0  0  0  0  0  0  0  0  0  0  0  0
   -3.1211  -12.1403   28.8357 H   0  0  0  0  0  0  0  0  0  0  0  0
   -2.5723  -14.1589   26.8974 H   0  0  0  0  0  0  0  0  0  0  0  0
   -3.2923  -16.8855   27.6275 H   0  0  0  0  0  0  0  0  0  0  0  0
   -1.5804  -17.1039   27.2322 H   0  0  0  0  0  0  0  0  0  0  0  0
   -2.6394  -16.4915   26.1263 H   0  0  0  0  0  0  0  0  0  0  0  0
   -0.5793  -15.7456   28.2523 H   0  0  0  0  0  0  0  0  0  0  0  0
   -0.0142  -13.0591   25.9559 H   0  0  0  0  0  0  0  0  0  0  0  0
    0.7885  -12.4507   27.2123 H   0  0  0  0  0  0  0  0  0  0  0  0
    2.6526  -14.0045   26.5823 H   0  0  0  0  0  0  0  0  0  0  0  0
    3.8366  -14.2577   23.2560 H   0  0  0  0  0  0  0  0  0  0  0  0
    4.4049  -14.2093   24.9057 H   0  0  0  0  0  0  0  0  0  0  0  0
    5.9470  -12.4051   24.4180 H   0  0  0  0  0  0  0  0  0  0  0  0
    6.1181  -13.7202   23.3180 H   0  0  0  0  0  0  0  0  0  0  0  0
    6.3332   -9.9334   23.1387 H   0  0  0  0  0  0  0  0  0  0  0  0
    6.4526   -9.3537   20.6662 H   0  0  0  0  0  0  0  0  0  0  0  0
    5.8666  -11.3570   19.2044 H   0  0  0  0  0  0  0  0  0  0  0  0
   -1.0167  -15.2316   30.2558 H   0  0  0  0  0  0  0  0  0  0  0  0
   -2.6982  -16.1324   30.7595 H   0  0  0  0  0  0  0  0  0  0  0  0
   -3.5049  -14.9874   29.9373 H   0  0  0  0  0  0  0  0  0  0  0  0
   -4.1761  -16.6445   32.5484 H   0  0  0  0  0  0  0  0  0  0  0  0
   -6.6663  -16.3922   33.7990 H   0  0  0  0  0  0  0  0  0  0  0  0
   -6.2401  -17.4005   28.9772 H   0  0  0  0  0  0  0  0  0  0  0  0
  1  2  1  0
  2  3  1  0
  2  4  1  0
  4  5  1  0
  5  6  1  0
  6  7  1  0
  7  8  2  0
  7  9  1  0
  9 10  1  0
 10 11  1  0
 11 12  2  0
 12 13  1  0
 13 14  1  0
 14 15  2  0
  4 16  1  0
 16 17  1  0
 17 18  1  0
 18 19  1  0
 19 20  2  0
 20 21  1  0
 21 22  1  0
 15 11  1  0
 22 18  2  0
  1 23  1  0
  1 24  1  0
  1 25  1  0
  2 26  1  0
  3 27  1  0
  3 28  1  0
  3 29  1  0
  4 30  1  0
  5 31  1  0
  5 32  1  0
  6 33  1  0
  9 34  1  0
  9 35  1  0
 10 36  1  0
 10 37  1  0
 12 38  1  0
 13 39  1  0
 14 40  1  0
 16 41  1  0
 17 42  1  0
 17 43  1  0
 19 44  1  0
 20 45  1  0
 22 46  1  0
M  END
>  <Energy>  (1660) 
955.42591038819023

>  <compound_id>  (1660) 
8189

>  <target_id>  (1660) 
1

>  <reference_id>  (1660) 
35

>  <inspiration_ids>  (1660) 
[35, 20]

>  <energy_score>  (1660) 
892.5700918364881

>  <distance_score>  (1660) 
12.051005919714088

>  <path>  (1660) 
/opt/xchem-fragalysis-2/maxwin/BulkDock/SCRATCH/511013/C8189-P35/C8189-P35.minimised.mol

>  <scratch_subdir>  (1660) 
/opt/xchem-fragalysis-2/maxwin/BulkDock/SCRATCH/511013/C8189-P35

>  <fragmenstein_runtime>  (1660) 
27.10512638092041

>  <fragmenstein_outcome>  (1660) 
too moved

>  <fragmenstein_mode>  (1660) 
expansion

>  <fragmenstein_error>  (1660) 


$$$$
C8189-P20
     RDKit          3D

 46 47  0  0  0  0  0  0  0  0999 V2000
   -8.0933  -15.7138   33.1173 C   0  0  0  0  0  0  0  0  0  0  0  0
   -6.6620  -16.0217   33.3631 C   0  0  0  0  0  0  0  0  0  0  0  0
   -6.4158  -14.9648   34.7696 C   0  0  0  0  0  0  0  0  0  0  0  0
   -5.8759  -16.7452   31.9374 C   0  0  0  0  0  0  0  0  0  0  0  0
   -5.2539  -16.2576   29.9739 C   0  0  0  0  0  0  0  0  0  0  0  0
   -3.6243  -16.1591   28.7424 N   0  0  0  0  0  0  0  0  0  0  0  0
   -2.1067  -14.9503   28.6701 C   0  0  0  0  0  0  0  0  0  0  0  0
   -2.1472  -14.2301   29.5521 O   0  0  0  0  0  0  0  0  0  0  0  0
   -0.2891  -14.6356   27.5851 C   0  0  0  0  0  0  0  0  0  0  0  0
    1.0772  -13.5474   26.2953 C   0  0  0  0  0  0  0  0  0  0  0  0
    2.1834  -13.1770   24.6468 C   0  0  0  0  0  0  0  0  0  0  0  0
    3.5405  -13.7539   24.2654 C   0  0  0  0  0  0  0  0  0  0  0  0
    3.9899  -13.2323   23.0832 N   0  0  0  0  0  0  0  0  0  0  0  0
    3.1467  -12.2260   22.7829 C   0  0  0  0  0  0  0  0  0  0  0  0
    2.1255  -12.1771   23.6610 N   0  0  0  0  0  0  0  0  0  0  0  0
   -6.9302  -17.9178   32.3449 N   0  0  0  0  0  0  0  0  0  0  0  0
   -7.8246  -18.3517   33.7430 C   0  0  0  0  0  0  0  0  0  0  0  0
   -9.4616  -18.0962   33.9363 C   0  0  0  0  0  0  0  0  0  0  0  0
  -10.1412  -17.0943   34.8507 C   0  0  0  0  0  0  0  0  0  0  0  0
  -11.4714  -17.3527   35.1587 C   0  0  0  0  0  0  0  0  0  0  0  0
  -12.0245  -18.8313   34.4907 S   0  0  0  0  0  0  0  0  0  0  0  0
  -10.4827  -19.0003   33.5812 C   0  0  0  0  0  0  0  0  0  0  0  0
   -8.4364  -15.8856   34.1081 H   0  0  0  0  0  0  0  0  0  0  0  0
   -8.8379  -16.2562   32.6220 H   0  0  0  0  0  0  0  0  0  0  0  0
   -8.2315  -14.7576   32.6060 H   0  0  0  0  0  0  0  0  0  0  0  0
   -6.5262  -16.8280   34.0205 H   0  0  0  0  0  0  0  0  0  0  0  0
   -6.9024  -13.9934   34.7252 H   0  0  0  0  0  0  0  0  0  0  0  0
   -5.3818  -14.7059   35.0138 H   0  0  0  0  0  0  0  0  0  0  0  0
   -6.9165  -15.4185   35.6421 H   0  0  0  0  0  0  0  0  0  0  0  0
   -4.9549  -16.9881   32.4691 H   0  0  0  0  0  0  0  0  0  0  0  0
   -5.7571  -17.0396   29.4202 H   0  0  0  0  0  0  0  0  0  0  0  0
   -5.8450  -15.3406   29.8251 H   0  0  0  0  0  0  0  0  0  0  0  0
   -3.6066  -16.7321   27.8940 H   0  0  0  0  0  0  0  0  0  0  0  0
    0.2623  -13.1817   27.5305 H   0  0  0  0  0  0  0  0  0  0  0  0
    0.7457  -15.4195   28.1465 H   0  0  0  0  0  0  0  0  0  0  0  0
    0.9219  -12.4344   26.3826 H   0  0  0  0  0  0  0  0  0  0  0  0
    1.9985  -13.7810   26.8591 H   0  0  0  0  0  0  0  0  0  0  0  0
    4.1675  -14.4534   24.8024 H   0  0  0  0  0  0  0  0  0  0  0  0
    4.8269  -13.4859   22.5805 H   0  0  0  0  0  0  0  0  0  0  0  0
    3.2631  -11.5673   21.9317 H   0  0  0  0  0  0  0  0  0  0  0  0
   -6.6934  -18.8260   31.9518 H   0  0  0  0  0  0  0  0  0  0  0  0
   -7.3727  -18.0993   34.7119 H   0  0  0  0  0  0  0  0  0  0  0  0
   -7.7193  -19.4424   33.8017 H   0  0  0  0  0  0  0  0  0  0  0  0
   -9.6255  -16.3346   35.4177 H   0  0  0  0  0  0  0  0  0  0  0  0
  -12.1113  -16.7872   35.8192 H   0  0  0  0  0  0  0  0  0  0  0  0
  -10.4273  -19.8182   32.8751 H   0  0  0  0  0  0  0  0  0  0  0  0
  1  2  1  0
  2  3  1  0
  2  4  1  0
  4  5  1  0
  5  6  1  0
  6  7  1  0
  7  8  2  0
  7  9  1  0
  9 10  1  0
 10 11  1  0
 11 12  2  0
 12 13  1  0
 13 14  1  0
 14 15  2  0
  4 16  1  0
 16 17  1  0
 17 18  1  0
 18 19  1  0
 19 20  2  0
 20 21  1  0
 21 22  1  0
 15 11  1  0
 22 18  2  0
  1 23  1  0
  1 24  1  0
  1 25  1  0
  2 26  1  0
  3 27  1  0
  3 28  1  0
  3 29  1  0
  4 30  1  0
  5 31  1  0
  5 32  1  0
  6 33  1  0
  9 34  1  0
  9 35  1  0
 10 36  1  0
 10 37  1  0
 12 38  1  0
 13 39  1  0
 14 40  1  0
 16 41  1  0
 17 42  1  0
 17 43  1  0
 19 44  1  0
 20 45  1  0
 22 46  1  0
M  END
>  <Energy>  (1661) 
1123.4899874385649

>  <compound_id>  (1661) 
8189

>  <target_id>  (1661) 
1

>  <reference_id>  (1661) 
20

>  <inspiration_ids>  (1661) 
[35, 20]

>  <energy_score>  (1661) 
1060.6341688868508

>  <distance_score>  (1661) 
13.017925455173566

>  <path>  (1661) 
/opt/xchem-fragalysis-2/maxwin/BulkDock/SCRATCH/511013/C8189-P20/C8189-P20.minimised.mol

>  <scratch_subdir>  (1661) 
/opt/xchem-fragalysis-2/maxwin/BulkDock/SCRATCH/511013/C8189-P20

>  <fragmenstein_runtime>  (1661) 
25.081238985061646

>  <fragmenstein_outcome>  (1661) 
too moved

>  <fragmenstein_mode>  (1661) 
expansion

>  <fragmenstein_error>  (1661) 


$$$$
C8190-P35
     RDKit          3D

 30 32  0  0  0  0  0  0  0  0999 V2000
    8.3704  -11.0021   27.6576 O   0  0  0  0  0  0  0  0  0  0  0  0
    7.9716  -11.4486   26.5860 C   0  0  0  0  0  0  0  0  0  0  0  0
    6.9966  -12.4568   26.5241 O   0  0  0  0  0  0  0  0  0  0  0  0
    6.5843  -12.9541   27.8679 C   0  0  0  0  0  0  0  0  0  0  0  0
    5.4274  -14.0081   28.0387 C   0  0  0  0  0  0  0  0  0  0  0  0
    5.2369  -15.2425   27.3165 C   0  0  0  0  0  0  0  0  0  0  0  0
    4.2224  -16.0409   27.8206 C   0  0  0  0  0  0  0  0  0  0  0  0
    3.4101  -15.3031   29.1263 S   0  0  0  0  0  0  0  0  0  0  0  0
    4.4678  -13.9499   29.0547 C   0  0  0  0  0  0  0  0  0  0  0  0
    8.5637  -10.9165   25.2660 C   0  0  0  0  0  0  0  0  0  0  0  0
    8.0277  -11.2380   24.0399 C   0  0  0  0  0  0  0  0  0  0  0  0
    8.5754  -10.8728   22.8380 N   0  0  0  0  0  0  0  0  0  0  0  0
    9.6885  -10.1055   22.8946 C   0  0  0  0  0  0  0  0  0  0  0  0
   10.2303   -9.6960   24.1005 C   0  0  0  0  0  0  0  0  0  0  0  0
   11.3831   -8.8574   24.0877 N   0  0  0  0  0  0  0  0  0  0  0  0
   12.1767   -8.4852   23.0185 C   0  0  0  0  0  0  0  0  0  0  0  0
   13.1466   -7.6596   23.5385 C   0  0  0  0  0  0  0  0  0  0  0  0
   12.9785   -7.5048   24.8836 N   0  0  0  0  0  0  0  0  0  0  0  0
   11.9330   -8.2417   25.1867 C   0  0  0  0  0  0  0  0  0  0  0  0
    9.6754  -10.0912   25.3032 N   0  0  0  0  0  0  0  0  0  0  0  0
    6.2934  -12.0751   28.4579 H   0  0  0  0  0  0  0  0  0  0  0  0
    7.4753  -13.4044   28.3241 H   0  0  0  0  0  0  0  0  0  0  0  0
    5.8567  -15.5508   26.4825 H   0  0  0  0  0  0  0  0  0  0  0  0
    3.9131  -17.0142   27.4646 H   0  0  0  0  0  0  0  0  0  0  0  0
    4.3498  -13.1692   29.7935 H   0  0  0  0  0  0  0  0  0  0  0  0
    7.1137  -11.8048   23.9828 H   0  0  0  0  0  0  0  0  0  0  0  0
   10.0873   -9.8336   21.9253 H   0  0  0  0  0  0  0  0  0  0  0  0
   12.0191   -8.8336   22.0109 H   0  0  0  0  0  0  0  0  0  0  0  0
   13.9581   -7.1710   23.0133 H   0  0  0  0  0  0  0  0  0  0  0  0
   11.5195   -8.3656   26.1805 H   0  0  0  0  0  0  0  0  0  0  0  0
  1  2  2  0
  2  3  1  0
  3  4  1  0
  4  5  1  0
  5  6  1  0
  6  7  2  0
  7  8  1  0
  8  9  1  0
  2 10  1  0
 10 11  2  0
 11 12  1  0
 12 13  2  0
 13 14  1  0
 14 15  1  0
 15 16  1  0
 16 17  2  0
 17 18  1  0
 18 19  2  0
 14 20  2  0
  9  5  2  0
 20 10  1  0
 19 15  1  0
  4 21  1  0
  4 22  1  0
  6 23  1  0
  7 24  1  0
  9 25  1  0
 11 26  1  0
 13 27  1  0
 16 28  1  0
 17 29  1  0
 19 30  1  0
M  END
>  <Energy>  (1662) 
130.46148053802364

>  <compound_id>  (1662) 
8190

>  <target_id>  (1662) 
1

>  <reference_id>  (1662) 
35

>  <inspiration_ids>  (1662) 
[35, 20]

>  <energy_score>  (1662) 
-25.88133718092098

>  <distance_score>  (1662) 
16.291082454046407

>  <path>  (1662) 
/opt/xchem-fragalysis-2/maxwin/BulkDock/SCRATCH/511013/C8190-P35/C8190-P35.minimised.mol

>  <scratch_subdir>  (1662) 
/opt/xchem-fragalysis-2/maxwin/BulkDock/SCRATCH/511013/C8190-P35

>  <fragmenstein_runtime>  (1662) 
16.756267547607422

>  <fragmenstein_outcome>  (1662) 
too moved

>  <fragmenstein_mode>  (1662) 
expansion

>  <fragmenstein_error>  (1662) 


$$$$
C8190-P20
     RDKit          3D

 30 32  0  0  0  0  0  0  0  0999 V2000
   -2.5399   -8.3064   19.7902 O   0  0  0  0  0  0  0  0  0  0  0  0
   -1.9961   -7.9505   20.8317 C   0  0  0  0  0  0  0  0  0  0  0  0
   -2.5100   -8.3112   22.0891 O   0  0  0  0  0  0  0  0  0  0  0  0
   -3.8384   -8.9828   22.0192 C   0  0  0  0  0  0  0  0  0  0  0  0
   -4.3534   -9.8534   23.2237 C   0  0  0  0  0  0  0  0  0  0  0  0
   -5.2055  -11.0286   23.0479 C   0  0  0  0  0  0  0  0  0  0  0  0
   -5.5331  -11.6803   24.2209 C   0  0  0  0  0  0  0  0  0  0  0  0
   -4.8593  -10.8930   25.5743 S   0  0  0  0  0  0  0  0  0  0  0  0
   -4.1576   -9.6631   24.5844 C   0  0  0  0  0  0  0  0  0  0  0  0
   -0.7893   -6.9939   20.7716 C   0  0  0  0  0  0  0  0  0  0  0  0
   -0.6190   -6.0025   21.7190 C   0  0  0  0  0  0  0  0  0  0  0  0
    0.2731   -4.9703   21.5844 N   0  0  0  0  0  0  0  0  0  0  0  0
    1.0459   -4.9701   20.4684 C   0  0  0  0  0  0  0  0  0  0  0  0
    0.9484   -5.9667   19.5132 C   0  0  0  0  0  0  0  0  0  0  0  0
    1.8758   -5.9922   18.4268 N   0  0  0  0  0  0  0  0  0  0  0  0
    1.9181   -6.9484   17.4350 C   0  0  0  0  0  0  0  0  0  0  0  0
    2.9807   -6.6247   16.6322 C   0  0  0  0  0  0  0  0  0  0  0  0
    3.6084   -5.5032   17.0968 N   0  0  0  0  0  0  0  0  0  0  0  0
    2.9323   -5.1426   18.1649 C   0  0  0  0  0  0  0  0  0  0  0  0
    0.0065   -6.9731   19.6354 N   0  0  0  0  0  0  0  0  0  0  0  0
   -3.8439   -9.6513   21.1494 H   0  0  0  0  0  0  0  0  0  0  0  0
   -4.5782   -8.1890   21.8609 H   0  0  0  0  0  0  0  0  0  0  0  0
   -5.5410  -11.3795   22.0775 H   0  0  0  0  0  0  0  0  0  0  0  0
   -6.1327  -12.5725   24.3412 H   0  0  0  0  0  0  0  0  0  0  0  0
   -3.6095   -8.8614   25.0614 H   0  0  0  0  0  0  0  0  0  0  0  0
   -1.2342   -5.9580   22.6118 H   0  0  0  0  0  0  0  0  0  0  0  0
    1.7557   -4.1531   20.4276 H   0  0  0  0  0  0  0  0  0  0  0  0
    1.2009   -7.7584   17.4002 H   0  0  0  0  0  0  0  0  0  0  0  0
    3.3280   -7.1462   15.7495 H   0  0  0  0  0  0  0  0  0  0  0  0
    3.1773   -4.2893   18.7817 H   0  0  0  0  0  0  0  0  0  0  0  0
  1  2  2  0
  2  3  1  0
  3  4  1  0
  4  5  1  0
  5  6  1  0
  6  7  2  0
  7  8  1  0
  8  9  1  0
  2 10  1  0
 10 11  2  0
 11 12  1  0
 12 13  2  0
 13 14  1  0
 14 15  1  0
 15 16  1  0
 16 17  2  0
 17 18  1  0
 18 19  2  0
 14 20  2  0
  9  5  2  0
 20 10  1  0
 19 15  1  0
  4 21  1  0
  4 22  1  0
  6 23  1  0
  7 24  1  0
  9 25  1  0
 11 26  1  0
 13 27  1  0
 16 28  1  0
 17 29  1  0
 19 30  1  0
M  END
>  <Energy>  (1663) 
133.03044982763987

>  <compound_id>  (1663) 
8190

>  <target_id>  (1663) 
1

>  <reference_id>  (1663) 
20

>  <inspiration_ids>  (1663) 
[35, 20]

>  <energy_score>  (1663) 
-23.31236789130483

>  <distance_score>  (1663) 
16.23180411473967

>  <path>  (1663) 
/opt/xchem-fragalysis-2/maxwin/BulkDock/SCRATCH/511013/C8190-P20/C8190-P20.minimised.mol

>  <scratch_subdir>  (1663) 
/opt/xchem-fragalysis-2/maxwin/BulkDock/SCRATCH/511013/C8190-P20

>  <fragmenstein_runtime>  (1663) 
18.94066596031189

>  <fragmenstein_outcome>  (1663) 
too moved

>  <fragmenstein_mode>  (1663) 
expansion

>  <fragmenstein_error>  (1663) 


$$$$
C8191-P35
     RDKit          3D

 31 33  0  0  0  0  0  0  0  0999 V2000
    2.2570  -14.4895   16.3716 O   0  0  0  0  0  0  0  0  0  0  0  0
    2.9264  -14.8506   17.3026 C   0  0  0  0  0  0  0  0  0  0  0  0
    2.6769  -15.8957   18.3162 N   0  0  0  0  0  0  0  0  0  0  0  0
    1.5779  -16.8835   18.4411 C   0  0  0  0  0  0  0  0  0  0  0  0
    0.9346  -17.2428   19.8145 C   0  0  0  0  0  0  0  0  0  0  0  0
   -0.4855  -17.5697   19.9617 C   0  0  0  0  0  0  0  0  0  0  0  0
   -0.8575  -17.9639   21.2320 C   0  0  0  0  0  0  0  0  0  0  0  0
    0.4767  -17.9695   22.2916 S   0  0  0  0  0  0  0  0  0  0  0  0
    1.5451  -17.4304   21.0463 C   0  0  0  0  0  0  0  0  0  0  0  0
    4.3221  -14.1227   17.3171 C   0  0  0  0  0  0  0  0  0  0  0  0
    5.5002  -14.8009   17.5882 C   0  0  0  0  0  0  0  0  0  0  0  0
    6.7444  -14.2307   17.5296 N   0  0  0  0  0  0  0  0  0  0  0  0
    6.7980  -12.9439   17.1192 C   0  0  0  0  0  0  0  0  0  0  0  0
    5.6580  -12.2308   16.7887 C   0  0  0  0  0  0  0  0  0  0  0  0
    5.8169  -10.9101   16.2717 N   0  0  0  0  0  0  0  0  0  0  0  0
    6.9774  -10.2792   15.8581 C   0  0  0  0  0  0  0  0  0  0  0  0
    6.5707   -9.0928   15.2939 C   0  0  0  0  0  0  0  0  0  0  0  0
    5.2301   -8.9118   15.4458 N   0  0  0  0  0  0  0  0  0  0  0  0
    4.8043  -10.0158   16.0194 C   0  0  0  0  0  0  0  0  0  0  0  0
    4.3999  -12.8024   16.8992 N   0  0  0  0  0  0  0  0  0  0  0  0
    3.4269  -15.8733   19.0129 H   0  0  0  0  0  0  0  0  0  0  0  0
    0.7845  -16.5496   17.7620 H   0  0  0  0  0  0  0  0  0  0  0  0
    1.9800  -17.8162   18.0273 H   0  0  0  0  0  0  0  0  0  0  0  0
   -1.1910  -17.5233   19.1396 H   0  0  0  0  0  0  0  0  0  0  0  0
   -1.8399  -18.2548   21.5774 H   0  0  0  0  0  0  0  0  0  0  0  0
    2.5909  -17.2961   21.2854 H   0  0  0  0  0  0  0  0  0  0  0  0
    5.4974  -15.8516   17.8619 H   0  0  0  0  0  0  0  0  0  0  0  0
    7.8021  -12.5425   17.0711 H   0  0  0  0  0  0  0  0  0  0  0  0
    7.9567  -10.7295   15.9100 H   0  0  0  0  0  0  0  0  0  0  0  0
    7.1866   -8.3572   14.7952 H   0  0  0  0  0  0  0  0  0  0  0  0
    3.7745  -10.2378   16.2719 H   0  0  0  0  0  0  0  0  0  0  0  0
  1  2  2  0
  2  3  1  0
  3  4  1  0
  4  5  1  0
  5  6  1  0
  6  7  2  0
  7  8  1  0
  8  9  1  0
  2 10  1  0
 10 11  2  0
 11 12  1  0
 12 13  2  0
 13 14  1  0
 14 15  1  0
 15 16  1  0
 16 17  2  0
 17 18  1  0
 18 19  2  0
 14 20  2  0
  9  5  2  0
 20 10  1  0
 19 15  1  0
  3 21  1  0
  4 22  1  0
  4 23  1  0
  6 24  1  0
  7 25  1  0
  9 26  1  0
 11 27  1  0
 13 28  1  0
 16 29  1  0
 17 30  1  0
 19 31  1  0
M  END
>  <Energy>  (1664) 
129.5511532980382

>  <compound_id>  (1664) 
8191

>  <target_id>  (1664) 
1

>  <reference_id>  (1664) 
35

>  <inspiration_ids>  (1664) 
[35, 20]

>  <energy_score>  (1664) 
12.843166303449948

>  <distance_score>  (1664) 
16.611759389503547

>  <path>  (1664) 
/opt/xchem-fragalysis-2/maxwin/BulkDock/SCRATCH/511013/C8191-P35/C8191-P35.minimised.mol

>  <scratch_subdir>  (1664) 
/opt/xchem-fragalysis-2/maxwin/BulkDock/SCRATCH/511013/C8191-P35

>  <fragmenstein_runtime>  (1664) 
22.84971332550049

>  <fragmenstein_outcome>  (1664) 
too moved

>  <fragmenstein_mode>  (1664) 
expansion

>  <fragmenstein_error>  (1664) 


$$$$
C8191-P20
     RDKit          3D

 31 33  0  0  0  0  0  0  0  0999 V2000
   -4.1817  -15.3672   30.0341 O   0  0  0  0  0  0  0  0  0  0  0  0
   -4.7566  -15.9840   29.1750 C   0  0  0  0  0  0  0  0  0  0  0  0
   -5.4315  -17.3217   29.2249 N   0  0  0  0  0  0  0  0  0  0  0  0
   -5.5119  -18.3600   30.3476 C   0  0  0  0  0  0  0  0  0  0  0  0
   -6.7473  -19.3214   30.4356 C   0  0  0  0  0  0  0  0  0  0  0  0
   -8.2065  -19.3922   28.9408 C   0  0  0  0  0  0  0  0  0  0  0  0
   -9.8040  -20.5220   29.6577 C   0  0  0  0  0  0  0  0  0  0  0  0
   -9.5431  -20.8008   32.0310 S   0  0  0  0  0  0  0  0  0  0  0  0
   -7.0541  -20.8980   31.6614 C   0  0  0  0  0  0  0  0  0  0  0  0
   -4.6639  -15.1968   27.7797 C   0  0  0  0  0  0  0  0  0  0  0  0
   -4.5510  -15.8251   26.5506 C   0  0  0  0  0  0  0  0  0  0  0  0
   -4.4770  -15.1577   25.3510 N   0  0  0  0  0  0  0  0  0  0  0  0
   -4.4854  -13.8021   25.4088 C   0  0  0  0  0  0  0  0  0  0  0  0
   -4.4414  -13.1087   26.6007 C   0  0  0  0  0  0  0  0  0  0  0  0
   -4.1894  -11.6896   26.5669 N   0  0  0  0  0  0  0  0  0  0  0  0
   -3.9226  -10.8799   27.6513 C   0  0  0  0  0  0  0  0  0  0  0  0
   -3.7158   -9.6162   27.1558 C   0  0  0  0  0  0  0  0  0  0  0  0
   -3.8171   -9.6121   25.7920 N   0  0  0  0  0  0  0  0  0  0  0  0
   -4.1256  -10.8481   25.4709 C   0  0  0  0  0  0  0  0  0  0  0  0
   -4.5324  -13.7990   27.8023 N   0  0  0  0  0  0  0  0  0  0  0  0
   -5.7401  -17.5721   28.2987 H   0  0  0  0  0  0  0  0  0  0  0  0
   -5.4425  -17.8047   31.2885 H   0  0  0  0  0  0  0  0  0  0  0  0
   -4.6088  -18.9712   30.2490 H   0  0  0  0  0  0  0  0  0  0  0  0
   -8.0523  -19.0259   27.9213 H   0  0  0  0  0  0  0  0  0  0  0  0
  -10.5782  -21.1852   29.2259 H   0  0  0  0  0  0  0  0  0  0  0  0
   -6.6362  -20.8444   32.6738 H   0  0  0  0  0  0  0  0  0  0  0  0
   -4.5247  -16.9059   26.4660 H   0  0  0  0  0  0  0  0  0  0  0  0
   -4.5359  -13.3243   24.4419 H   0  0  0  0  0  0  0  0  0  0  0  0
   -3.9127  -11.2759   28.6586 H   0  0  0  0  0  0  0  0  0  0  0  0
   -3.4879   -8.7141   27.7100 H   0  0  0  0  0  0  0  0  0  0  0  0
   -4.3522  -11.1724   24.4665 H   0  0  0  0  0  0  0  0  0  0  0  0
  1  2  2  0
  2  3  1  0
  3  4  1  0
  4  5  1  0
  5  6  1  0
  6  7  2  0
  7  8  1  0
  8  9  1  0
  2 10  1  0
 10 11  2  0
 11 12  1  0
 12 13  2  0
 13 14  1  0
 14 15  1  0
 15 16  1  0
 16 17  2  0
 17 18  1  0
 18 19  2  0
 14 20  2  0
  9  5  2  0
 20 10  1  0
 19 15  1  0
  3 21  1  0
  4 22  1  0
  4 23  1  0
  6 24  1  0
  7 25  1  0
  9 26  1  0
 11 27  1  0
 13 28  1  0
 16 29  1  0
 17 30  1  0
 19 31  1  0
M  END
>  <Energy>  (1665) 
792.51890298103547

>  <compound_id>  (1665) 
8191

>  <target_id>  (1665) 
1

>  <reference_id>  (1665) 
20

>  <inspiration_ids>  (1665) 
[35, 20]

>  <energy_score>  (1665) 
675.810915986453

>  <distance_score>  (1665) 
16.62615020779883

>  <path>  (1665) 
/opt/xchem-fragalysis-2/maxwin/BulkDock/SCRATCH/511013/C8191-P20/C8191-P20.minimised.mol

>  <scratch_subdir>  (1665) 
/opt/xchem-fragalysis-2/maxwin/BulkDock/SCRATCH/511013/C8191-P20

>  <fragmenstein_runtime>  (1665) 
23.77840280532837

>  <fragmenstein_outcome>  (1665) 
too moved

>  <fragmenstein_mode>  (1665) 
expansion

>  <fragmenstein_error>  (1665) 


$$$$
C8192-P35
     RDKit          3D

 31 33  0  0  0  0  0  0  0  0999 V2000
   -0.7941  -17.0928   19.7489 C   0  0  0  0  0  0  0  0  0  0  0  0
    0.0993  -18.0030   18.8595 N   0  0  0  0  0  0  0  0  0  0  0  0
    1.5090  -17.5558   18.9160 C   0  0  0  0  0  0  0  0  0  0  0  0
    2.4042  -17.8846   19.6558 O   0  0  0  0  0  0  0  0  0  0  0  0
    1.8871  -16.3882   17.9281 C   0  0  0  0  0  0  0  0  0  0  0  0
    0.9452  -15.9301   17.0312 C   0  0  0  0  0  0  0  0  0  0  0  0
    1.1415  -14.8122   16.2677 N   0  0  0  0  0  0  0  0  0  0  0  0
    2.3279  -14.1440   16.4148 C   0  0  0  0  0  0  0  0  0  0  0  0
    3.3186  -14.5388   17.3013 C   0  0  0  0  0  0  0  0  0  0  0  0
    4.5095  -13.7012   17.4237 N   0  0  0  0  0  0  0  0  0  0  0  0
    5.6645  -13.9752   18.1285 C   0  0  0  0  0  0  0  0  0  0  0  0
    6.4904  -12.8789   17.9984 C   0  0  0  0  0  0  0  0  0  0  0  0
    5.9005  -11.9193   17.2296 N   0  0  0  0  0  0  0  0  0  0  0  0
    4.7402  -12.4385   16.8821 C   0  0  0  0  0  0  0  0  0  0  0  0
    3.1075  -15.6861   18.0704 N   0  0  0  0  0  0  0  0  0  0  0  0
   -0.6224  -19.0824   19.6343 C   0  0  0  0  0  0  0  0  0  0  0  0
   -0.0822  -19.8431   20.7394 C   0  0  0  0  0  0  0  0  0  0  0  0
   -1.0107  -20.6507   21.3719 C   0  0  0  0  0  0  0  0  0  0  0  0
   -2.5147  -20.6343   20.5693 S   0  0  0  0  0  0  0  0  0  0  0  0
   -1.9042  -19.5682   19.3606 C   0  0  0  0  0  0  0  0  0  0  0  0
   -0.6953  -16.1195   19.2691 H   0  0  0  0  0  0  0  0  0  0  0  0
   -0.4092  -16.9838   20.7649 H   0  0  0  0  0  0  0  0  0  0  0  0
   -1.8836  -17.2342   19.6962 H   0  0  0  0  0  0  0  0  0  0  0  0
   -0.0090  -16.4195   16.8753 H   0  0  0  0  0  0  0  0  0  0  0  0
    2.4123  -13.2842   15.7599 H   0  0  0  0  0  0  0  0  0  0  0  0
    5.7986  -14.9172   18.6418 H   0  0  0  0  0  0  0  0  0  0  0  0
    7.4790  -12.7435   18.4191 H   0  0  0  0  0  0  0  0  0  0  0  0
    4.0216  -11.9271   16.2575 H   0  0  0  0  0  0  0  0  0  0  0  0
    0.9371  -19.7439   21.0932 H   0  0  0  0  0  0  0  0  0  0  0  0
   -0.8612  -21.2591   22.2535 H   0  0  0  0  0  0  0  0  0  0  0  0
   -2.5535  -19.2812   18.5450 H   0  0  0  0  0  0  0  0  0  0  0  0
  1  2  1  0
  2  3  1  0
  3  4  2  0
  3  5  1  0
  5  6  2  0
  6  7  1  0
  7  8  2  0
  8  9  1  0
  9 10  1  0
 10 11  1  0
 11 12  2  0
 12 13  1  0
 13 14  2  0
  9 15  2  0
  2 16  1  0
 16 17  1  0
 17 18  2  0
 18 19  1  0
 19 20  1  0
 15  5  1  0
 20 16  2  0
 14 10  1  0
  1 21  1  0
  1 22  1  0
  1 23  1  0
  6 24  1  0
  8 25  1  0
 11 26  1  0
 12 27  1  0
 14 28  1  0
 17 29  1  0
 18 30  1  0
 20 31  1  0
M  END
>  <Energy>  (1666) 
212.97521483856292

>  <compound_id>  (1666) 
8192

>  <target_id>  (1666) 
1

>  <reference_id>  (1666) 
35

>  <inspiration_ids>  (1666) 
[35, 20]

>  <energy_score>  (1666) 
48.65509409549304

>  <distance_score>  (1666) 
16.477752136275107

>  <path>  (1666) 
/opt/xchem-fragalysis-2/maxwin/BulkDock/SCRATCH/511013/C8192-P35/C8192-P35.minimised.mol

>  <scratch_subdir>  (1666) 
/opt/xchem-fragalysis-2/maxwin/BulkDock/SCRATCH/511013/C8192-P35

>  <fragmenstein_runtime>  (1666) 
19.77385973930359

>  <fragmenstein_outcome>  (1666) 
too moved

>  <fragmenstein_mode>  (1666) 
expansion

>  <fragmenstein_error>  (1666) 


$$$$
C8192-P20
     RDKit          3D

 31 33  0  0  0  0  0  0  0  0999 V2000
    4.5209  -19.5239   22.3394 C   0  0  0  0  0  0  0  0  0  0  0  0
    5.7229  -19.7904   23.3099 N   0  0  0  0  0  0  0  0  0  0  0  0
    6.5173  -18.5727   23.4844 C   0  0  0  0  0  0  0  0  0  0  0  0
    6.4238  -17.6907   24.2995 O   0  0  0  0  0  0  0  0  0  0  0  0
    7.6041  -18.2851   22.3860 C   0  0  0  0  0  0  0  0  0  0  0  0
    7.6995  -19.1190   21.2975 C   0  0  0  0  0  0  0  0  0  0  0  0
    8.3382  -18.7436   20.1475 N   0  0  0  0  0  0  0  0  0  0  0  0
    8.8858  -17.4856   20.1028 C   0  0  0  0  0  0  0  0  0  0  0  0
    8.8594  -16.6121   21.1764 C   0  0  0  0  0  0  0  0  0  0  0  0
    9.4891  -15.3068   21.0392 N   0  0  0  0  0  0  0  0  0  0  0  0
    9.8158  -14.4255   22.0523 C   0  0  0  0  0  0  0  0  0  0  0  0
   10.3791  -13.3173   21.4579 C   0  0  0  0  0  0  0  0  0  0  0  0
   10.4312  -13.4731   20.1040 N   0  0  0  0  0  0  0  0  0  0  0  0
    9.9136  -14.6651   19.8815 C   0  0  0  0  0  0  0  0  0  0  0  0
    8.2223  -17.0184   22.3439 N   0  0  0  0  0  0  0  0  0  0  0  0
    4.6098  -20.3755   24.1617 C   0  0  0  0  0  0  0  0  0  0  0  0
    3.9807  -21.6834   24.0447 C   0  0  0  0  0  0  0  0  0  0  0  0
    2.9422  -21.8905   24.9368 C   0  0  0  0  0  0  0  0  0  0  0  0
    2.7497  -20.5723   26.0022 S   0  0  0  0  0  0  0  0  0  0  0  0
    4.0664  -19.7344   25.2740 C   0  0  0  0  0  0  0  0  0  0  0  0
    3.7992  -18.8091   22.7406 H   0  0  0  0  0  0  0  0  0  0  0  0
    4.0894  -20.4354   21.9046 H   0  0  0  0  0  0  0  0  0  0  0  0
    4.9508  -19.0038   21.4738 H   0  0  0  0  0  0  0  0  0  0  0  0
    7.2442  -20.1013   21.2596 H   0  0  0  0  0  0  0  0  0  0  0  0
    9.3698  -17.2625   19.1585 H   0  0  0  0  0  0  0  0  0  0  0  0
    9.6222  -14.6738   23.0882 H   0  0  0  0  0  0  0  0  0  0  0  0
   10.7539  -12.4244   21.9419 H   0  0  0  0  0  0  0  0  0  0  0  0
    9.7985  -15.0977   18.8972 H   0  0  0  0  0  0  0  0  0  0  0  0
    4.2646  -22.4217   23.3039 H   0  0  0  0  0  0  0  0  0  0  0  0
    2.3050  -22.7606   25.0199 H   0  0  0  0  0  0  0  0  0  0  0  0
    4.3397  -18.7660   25.6637 H   0  0  0  0  0  0  0  0  0  0  0  0
  1  2  1  0
  2  3  1  0
  3  4  2  0
  3  5  1  0
  5  6  2  0
  6  7  1  0
  7  8  2  0
  8  9  1  0
  9 10  1  0
 10 11  1  0
 11 12  2  0
 12 13  1  0
 13 14  2  0
  9 15  2  0
  2 16  1  0
 16 17  1  0
 17 18  2  0
 18 19  1  0
 19 20  1  0
 15  5  1  0
 20 16  2  0
 14 10  1  0
  1 21  1  0
  1 22  1  0
  1 23  1  0
  6 24  1  0
  8 25  1  0
 11 26  1  0
 12 27  1  0
 14 28  1  0
 17 29  1  0
 18 30  1  0
 20 31  1  0
M  END
>  <Energy>  (1667) 
212.07606481198798

>  <compound_id>  (1667) 
8192

>  <target_id>  (1667) 
1

>  <reference_id>  (1667) 
20

>  <inspiration_ids>  (1667) 
[35, 20]

>  <energy_score>  (1667) 
47.755944068920144

>  <distance_score>  (1667) 
16.90377499680301

>  <path>  (1667) 
/opt/xchem-fragalysis-2/maxwin/BulkDock/SCRATCH/511013/C8192-P20/C8192-P20.minimised.mol

>  <scratch_subdir>  (1667) 
/opt/xchem-fragalysis-2/maxwin/BulkDock/SCRATCH/511013/C8192-P20

>  <fragmenstein_runtime>  (1667) 
17.06638813018799

>  <fragmenstein_outcome>  (1667) 
too moved

>  <fragmenstein_mode>  (1667) 
expansion

>  <fragmenstein_error>  (1667) 


$$$$
C8193-P35
     RDKit          3D

 37 39  0  0  0  0  0  0  0  0999 V2000
    1.1028  -18.7901   31.6158 C   0  0  0  0  0  0  0  0  0  0  0  0
    0.3855  -19.7452   30.6563 C   0  0  0  0  0  0  0  0  0  0  0  0
    1.0194  -19.7650   29.2327 C   0  0  0  0  0  0  0  0  0  0  0  0
    1.4058  -18.4973   28.6259 N   0  0  0  0  0  0  0  0  0  0  0  0
    2.5559  -17.6371   28.8644 C   0  0  0  0  0  0  0  0  0  0  0  0
    3.5127  -17.7935   29.5622 O   0  0  0  0  0  0  0  0  0  0  0  0
    2.4516  -16.2809   28.1794 C   0  0  0  0  0  0  0  0  0  0  0  0
    1.1823  -15.7073   28.2710 C   0  0  0  0  0  0  0  0  0  0  0  0
    0.9363  -14.4714   27.8100 N   0  0  0  0  0  0  0  0  0  0  0  0
    2.0581  -13.7518   27.3706 C   0  0  0  0  0  0  0  0  0  0  0  0
    3.5286  -14.1678   27.3154 C   0  0  0  0  0  0  0  0  0  0  0  0
    4.9669  -13.0782   27.5345 N   0  0  0  0  0  0  0  0  0  0  0  0
    5.4138  -11.8382   28.1912 C   0  0  0  0  0  0  0  0  0  0  0  0
    6.5736  -11.3302   27.6186 C   0  0  0  0  0  0  0  0  0  0  0  0
    6.8519  -11.9699   26.4723 N   0  0  0  0  0  0  0  0  0  0  0  0
    5.8728  -12.8160   26.3910 C   0  0  0  0  0  0  0  0  0  0  0  0
    3.6096  -15.5575   27.6382 N   0  0  0  0  0  0  0  0  0  0  0  0
   -1.1172  -19.5660   30.7260 C   0  0  0  0  0  0  0  0  0  0  0  0
   -1.8539  -18.3740   30.4154 C   0  0  0  0  0  0  0  0  0  0  0  0
   -3.1835  -18.4620   30.7601 C   0  0  0  0  0  0  0  0  0  0  0  0
   -3.5467  -19.9789   31.4290 S   0  0  0  0  0  0  0  0  0  0  0  0
   -1.9643  -20.5416   31.2201 C   0  0  0  0  0  0  0  0  0  0  0  0
    0.7156  -18.9008   32.6354 H   0  0  0  0  0  0  0  0  0  0  0  0
    2.1762  -19.0029   31.6471 H   0  0  0  0  0  0  0  0  0  0  0  0
    0.9644  -17.7424   31.3288 H   0  0  0  0  0  0  0  0  0  0  0  0
    0.5768  -20.7559   31.0501 H   0  0  0  0  0  0  0  0  0  0  0  0
    1.9472  -20.3473   29.2911 H   0  0  0  0  0  0  0  0  0  0  0  0
    0.3545  -20.2717   28.5249 H   0  0  0  0  0  0  0  0  0  0  0  0
    0.8244  -18.0824   27.9069 H   0  0  0  0  0  0  0  0  0  0  0  0
    0.3336  -16.1929   28.7348 H   0  0  0  0  0  0  0  0  0  0  0  0
    1.6537  -12.7443   27.2742 H   0  0  0  0  0  0  0  0  0  0  0  0
    4.8275  -11.3056   28.8949 H   0  0  0  0  0  0  0  0  0  0  0  0
    7.1343  -10.4615   27.9406 H   0  0  0  0  0  0  0  0  0  0  0  0
    5.4837  -13.3490   25.5780 H   0  0  0  0  0  0  0  0  0  0  0  0
   -1.4175  -17.4676   30.0169 H   0  0  0  0  0  0  0  0  0  0  0  0
   -3.9490  -17.7022   30.6660 H   0  0  0  0  0  0  0  0  0  0  0  0
   -1.7001  -21.5377   31.5490 H   0  0  0  0  0  0  0  0  0  0  0  0
  1  2  1  0
  2  3  1  0
  3  4  1  0
  4  5  1  0
  5  6  2  0
  5  7  1  0
  7  8  2  0
  8  9  1  0
  9 10  2  0
 10 11  1  0
 11 12  1  0
 12 13  1  0
 13 14  2  0
 14 15  1  0
 15 16  2  0
 11 17  2  0
  2 18  1  0
 18 19  1  0
 19 20  2  0
 20 21  1  0
 21 22  1  0
 17  7  1  0
 22 18  2  0
 16 12  1  0
  1 23  1  0
  1 24  1  0
  1 25  1  0
  2 26  1  0
  3 27  1  0
  3 28  1  0
  4 29  1  0
  8 30  1  0
 10 31  1  0
 13 32  1  0
 14 33  1  0
 16 34  1  0
 19 35  1  0
 20 36  1  0
 22 37  1  0
M  END
>  <Energy>  (1668) 
272.3717950326328

>  <compound_id>  (1668) 
8193

>  <target_id>  (1668) 
1

>  <reference_id>  (1668) 
35

>  <inspiration_ids>  (1668) 
[35, 20]

>  <energy_score>  (1668) 
102.87441072704155

>  <distance_score>  (1668) 
14.687312943372428

>  <path>  (1668) 
/opt/xchem-fragalysis-2/maxwin/BulkDock/SCRATCH/511013/C8193-P35/C8193-P35.minimised.mol

>  <scratch_subdir>  (1668) 
/opt/xchem-fragalysis-2/maxwin/BulkDock/SCRATCH/511013/C8193-P35

>  <fragmenstein_runtime>  (1668) 
23.836426734924316

>  <fragmenstein_outcome>  (1668) 
too moved

>  <fragmenstein_mode>  (1668) 
expansion

>  <fragmenstein_error>  (1668) 


$$$$
C8193-P20
     RDKit          3D

 37 39  0  0  0  0  0  0  0  0999 V2000
    1.9713  -13.7600   27.3006 C   0  0  0  0  0  0  0  0  0  0  0  0
    3.7045  -14.2750   27.3045 C   0  0  0  0  0  0  0  0  0  0  0  0
    5.2888  -12.9488   27.3795 C   0  0  0  0  0  0  0  0  0  0  0  0
    6.1914  -11.6337   26.3100 N   0  0  0  0  0  0  0  0  0  0  0  0
    6.3768   -9.9015   26.5274 C   0  0  0  0  0  0  0  0  0  0  0  0
    6.0128   -9.2502   27.4865 O   0  0  0  0  0  0  0  0  0  0  0  0
    7.0536   -8.7464   25.1767 C   0  0  0  0  0  0  0  0  0  0  0  0
    8.2998   -8.3049   25.2611 C   0  0  0  0  0  0  0  0  0  0  0  0
    8.5962   -7.1325   24.4892 N   0  0  0  0  0  0  0  0  0  0  0  0
    7.6794   -6.3271   23.3351 C   0  0  0  0  0  0  0  0  0  0  0  0
    6.7310   -6.9024   22.6333 C   0  0  0  0  0  0  0  0  0  0  0  0
    7.3250   -7.5191   20.8602 N   0  0  0  0  0  0  0  0  0  0  0  0
    7.2149   -7.5517   19.4464 C   0  0  0  0  0  0  0  0  0  0  0  0
    9.0190   -7.7755   19.7436 C   0  0  0  0  0  0  0  0  0  0  0  0
    9.3623   -8.8829   19.4895 N   0  0  0  0  0  0  0  0  0  0  0  0
    9.2983   -8.1495   20.5129 C   0  0  0  0  0  0  0  0  0  0  0  0
    6.3818   -7.6120   24.1729 N   0  0  0  0  0  0  0  0  0  0  0  0
    3.3534  -16.0554   28.0204 C   0  0  0  0  0  0  0  0  0  0  0  0
    3.1632  -16.5806   29.4372 C   0  0  0  0  0  0  0  0  0  0  0  0
    2.4423  -17.7491   29.6055 C   0  0  0  0  0  0  0  0  0  0  0  0
    2.1672  -18.4947   28.1238 S   0  0  0  0  0  0  0  0  0  0  0  0
    3.0961  -17.2786   27.3267 C   0  0  0  0  0  0  0  0  0  0  0  0
    1.7351  -12.7625   27.6973 H   0  0  0  0  0  0  0  0  0  0  0  0
    1.5138  -13.6761   26.3183 H   0  0  0  0  0  0  0  0  0  0  0  0
    1.3558  -14.4873   27.8500 H   0  0  0  0  0  0  0  0  0  0  0  0
    3.8871  -14.6156   26.2738 H   0  0  0  0  0  0  0  0  0  0  0  0
    4.9842  -12.2426   28.1375 H   0  0  0  0  0  0  0  0  0  0  0  0
    5.3052  -13.2404   26.3281 H   0  0  0  0  0  0  0  0  0  0  0  0
    6.5119  -11.8925   25.3822 H   0  0  0  0  0  0  0  0  0  0  0  0
    9.0613   -8.6490   25.9415 H   0  0  0  0  0  0  0  0  0  0  0  0
    7.9054   -5.2556   23.2637 H   0  0  0  0  0  0  0  0  0  0  0  0
    6.5561   -8.1666   18.8600 H   0  0  0  0  0  0  0  0  0  0  0  0
    9.4899   -6.5656   19.4005 H   0  0  0  0  0  0  0  0  0  0  0  0
   10.1735   -8.1771   21.3344 H   0  0  0  0  0  0  0  0  0  0  0  0
    3.5382  -16.1076   30.3347 H   0  0  0  0  0  0  0  0  0  0  0  0
    2.1418  -18.2132   30.5345 H   0  0  0  0  0  0  0  0  0  0  0  0
    3.3063  -17.5364   26.3032 H   0  0  0  0  0  0  0  0  0  0  0  0
  1  2  1  0
  2  3  1  0
  3  4  1  0
  4  5  1  0
  5  6  2  0
  5  7  1  0
  7  8  2  0
  8  9  1  0
  9 10  2  0
 10 11  1  0
 11 12  1  0
 12 13  1  0
 13 14  2  0
 14 15  1  0
 15 16  2  0
 11 17  2  0
  2 18  1  0
 18 19  1  0
 19 20  2  0
 20 21  1  0
 21 22  1  0
 17  7  1  0
 22 18  2  0
 16 12  1  0
  1 23  1  0
  1 24  1  0
  1 25  1  0
  2 26  1  0
  3 27  1  0
  3 28  1  0
  4 29  1  0
  8 30  1  0
 10 31  1  0
 13 32  1  0
 14 33  1  0
 16 34  1  0
 19 35  1  0
 20 36  1  0
 22 37  1  0
M  END
>  <Energy>  (1669) 
1382.5737521426943

>  <compound_id>  (1669) 
8193

>  <target_id>  (1669) 
1

>  <reference_id>  (1669) 
20

>  <inspiration_ids>  (1669) 
[35, 20]

>  <energy_score>  (1669) 
1213.0763678371077

>  <distance_score>  (1669) 
14.378211415039704

>  <path>  (1669) 
/opt/xchem-fragalysis-2/maxwin/BulkDock/SCRATCH/511013/C8193-P20/C8193-P20.minimised.mol

>  <scratch_subdir>  (1669) 
/opt/xchem-fragalysis-2/maxwin/BulkDock/SCRATCH/511013/C8193-P20

>  <fragmenstein_runtime>  (1669) 
21.873586177825928

>  <fragmenstein_outcome>  (1669) 
too moved

>  <fragmenstein_mode>  (1669) 
expansion

>  <fragmenstein_error>  (1669) 


$$$$
C8194-P35
     RDKit          3D

 42 43  0  0  0  0  0  0  0  0999 V2000
    9.4938  -10.7676   26.6606 C   0  0  0  0  0  0  0  0  0  0  0  0
    8.6128  -11.9530   26.7208 C   0  0  0  0  0  0  0  0  0  0  0  0
    7.4033  -12.0217   27.2196 N   0  0  0  0  0  0  0  0  0  0  0  0
    6.8532  -13.3767   27.0961 C   0  0  0  0  0  0  0  0  0  0  0  0
    4.9936  -13.1387   27.1763 C   0  0  0  0  0  0  0  0  0  0  0  0
    4.8059  -11.9836   27.6508 O   0  0  0  0  0  0  0  0  0  0  0  0
    3.2361  -13.8585   26.4951 N   0  0  0  0  0  0  0  0  0  0  0  0
    3.0240  -13.3999   24.6507 C   0  0  0  0  0  0  0  0  0  0  0  0
    1.6275  -14.9620   27.3878 C   0  0  0  0  0  0  0  0  0  0  0  0
    1.2302  -13.3119   26.5270 C   0  0  0  0  0  0  0  0  0  0  0  0
   -0.6008  -14.9279   27.8649 C   0  0  0  0  0  0  0  0  0  0  0  0
   -2.2176  -15.9347   27.4664 C   0  0  0  0  0  0  0  0  0  0  0  0
   -3.3391  -15.8540   28.4060 N   0  0  0  0  0  0  0  0  0  0  0  0
   -4.5176  -16.6587   28.5314 C   0  0  0  0  0  0  0  0  0  0  0  0
   -4.9270  -17.5519   27.8533 O   0  0  0  0  0  0  0  0  0  0  0  0
   -5.2422  -16.3407   29.7680 C   0  0  0  0  0  0  0  0  0  0  0  0
   -5.6801  -15.0536   30.2160 C   0  0  0  0  0  0  0  0  0  0  0  0
   -6.3062  -15.1024   31.4411 C   0  0  0  0  0  0  0  0  0  0  0  0
   -6.3507  -16.6801   32.0709 S   0  0  0  0  0  0  0  0  0  0  0  0
   -5.6053  -17.3233   30.6755 C   0  0  0  0  0  0  0  0  0  0  0  0
    7.9374  -14.0475   26.4683 C   0  0  0  0  0  0  0  0  0  0  0  0
    8.9830  -13.1755   26.2614 N   0  0  0  0  0  0  0  0  0  0  0  0
    9.7377  -10.5211   25.6225 H   0  0  0  0  0  0  0  0  0  0  0  0
   10.4261  -10.9506   27.2042 H   0  0  0  0  0  0  0  0  0  0  0  0
    9.0026   -9.8991   27.1103 H   0  0  0  0  0  0  0  0  0  0  0  0
    3.6935  -12.7019   24.2477 H   0  0  0  0  0  0  0  0  0  0  0  0
    2.1507  -12.8594   24.2905 H   0  0  0  0  0  0  0  0  0  0  0  0
    3.4767  -14.2348   24.0830 H   0  0  0  0  0  0  0  0  0  0  0  0
    2.1568  -15.1174   28.2474 H   0  0  0  0  0  0  0  0  0  0  0  0
    1.4662  -12.3947   27.0899 H   0  0  0  0  0  0  0  0  0  0  0  0
    0.2749  -12.9995   26.3498 H   0  0  0  0  0  0  0  0  0  0  0  0
    1.2663  -13.4599   25.5207 H   0  0  0  0  0  0  0  0  0  0  0  0
   -1.1589  -14.7433   28.8329 H   0  0  0  0  0  0  0  0  0  0  0  0
   -1.3376  -14.7866   27.0495 H   0  0  0  0  0  0  0  0  0  0  0  0
   -2.7361  -15.5567   26.5661 H   0  0  0  0  0  0  0  0  0  0  0  0
   -2.0106  -16.9911   27.2251 H   0  0  0  0  0  0  0  0  0  0  0  0
   -3.2691  -15.2423   29.2132 H   0  0  0  0  0  0  0  0  0  0  0  0
   -5.5437  -14.1322   29.6623 H   0  0  0  0  0  0  0  0  0  0  0  0
   -6.7261  -14.2793   32.0032 H   0  0  0  0  0  0  0  0  0  0  0  0
   -5.4343  -18.3907   30.6023 H   0  0  0  0  0  0  0  0  0  0  0  0
    8.0459  -15.0525   26.0909 H   0  0  0  0  0  0  0  0  0  0  0  0
    9.8618  -13.4106   25.8214 H   0  0  0  0  0  0  0  0  0  0  0  0
  1  2  1  0
  2  3  2  0
  3  4  1  0
  4  5  1  0
  5  6  2  0
  5  7  1  0
  7  8  1  0
  7  9  1  0
  9 10  1  0
  9 11  1  0
 11 12  1  0
 12 13  1  0
 13 14  1  0
 14 15  2  0
 14 16  1  0
 16 17  1  0
 17 18  2  0
 18 19  1  0
 19 20  1  0
  4 21  2  0
 21 22  1  0
 22  2  1  0
 20 16  2  0
  1 23  1  0
  1 24  1  0
  1 25  1  0
  8 26  1  0
  8 27  1  0
  8 28  1  0
  9 29  1  0
 10 30  1  0
 10 31  1  0
 10 32  1  0
 11 33  1  0
 11 34  1  0
 12 35  1  0
 12 36  1  0
 13 37  1  0
 17 38  1  0
 18 39  1  0
 20 40  1  0
 21 41  1  0
 22 42  1  0
M  END
>  <Energy>  (1670) 
967.33376301177009

>  <compound_id>  (1670) 
8194

>  <target_id>  (1670) 
1

>  <reference_id>  (1670) 
35

>  <inspiration_ids>  (1670) 
[35, 20]

>  <energy_score>  (1670) 
887.6529780194263

>  <distance_score>  (1670) 
13.685431625990228

>  <path>  (1670) 
/opt/xchem-fragalysis-2/maxwin/BulkDock/SCRATCH/511013/C8194-P35/C8194-P35.minimised.mol

>  <scratch_subdir>  (1670) 
/opt/xchem-fragalysis-2/maxwin/BulkDock/SCRATCH/511013/C8194-P35

>  <fragmenstein_runtime>  (1670) 
30.425685167312622

>  <fragmenstein_outcome>  (1670) 
too moved

>  <fragmenstein_mode>  (1670) 
expansion

>  <fragmenstein_error>  (1670) 


$$$$
C8194-P20
     RDKit          3D

 42 43  0  0  0  0  0  0  0  0999 V2000
   11.4779  -13.8985   25.1639 C   0  0  0  0  0  0  0  0  0  0  0  0
   10.2551  -13.1406   24.8063 C   0  0  0  0  0  0  0  0  0  0  0  0
    9.0719  -13.2467   25.3862 N   0  0  0  0  0  0  0  0  0  0  0  0
    8.2370  -12.4076   24.7019 C   0  0  0  0  0  0  0  0  0  0  0  0
    6.8208  -12.0632   24.9875 C   0  0  0  0  0  0  0  0  0  0  0  0
    6.4952  -11.0277   24.4015 O   0  0  0  0  0  0  0  0  0  0  0  0
    5.8668  -12.7305   25.9462 N   0  0  0  0  0  0  0  0  0  0  0  0
    6.0354  -12.2374   27.2993 C   0  0  0  0  0  0  0  0  0  0  0  0
    4.5413  -14.0592   25.6347 C   0  0  0  0  0  0  0  0  0  0  0  0
    3.3580  -13.6331   24.3444 C   0  0  0  0  0  0  0  0  0  0  0  0
    3.6512  -14.6646   27.1682 C   0  0  0  0  0  0  0  0  0  0  0  0
    3.0727  -16.3783   27.7982 C   0  0  0  0  0  0  0  0  0  0  0  0
    1.3318  -16.7100   28.2889 N   0  0  0  0  0  0  0  0  0  0  0  0
    0.6755  -16.9314   29.1595 C   0  0  0  0  0  0  0  0  0  0  0  0
    1.6926  -16.7946   30.4072 O   0  0  0  0  0  0  0  0  0  0  0  0
   -0.7135  -17.3843   29.3558 C   0  0  0  0  0  0  0  0  0  0  0  0
   -1.3324  -17.5683   30.6559 C   0  0  0  0  0  0  0  0  0  0  0  0
   -2.6007  -18.1144   30.6119 C   0  0  0  0  0  0  0  0  0  0  0  0
   -3.0894  -18.4317   29.0110 S   0  0  0  0  0  0  0  0  0  0  0  0
   -1.6079  -17.8207   28.3907 C   0  0  0  0  0  0  0  0  0  0  0  0
    8.9826  -11.7181   23.7346 C   0  0  0  0  0  0  0  0  0  0  0  0
   10.2448  -12.2139   23.7962 N   0  0  0  0  0  0  0  0  0  0  0  0
   11.8552  -14.4525   24.2988 H   0  0  0  0  0  0  0  0  0  0  0  0
   12.2618  -13.2202   25.5142 H   0  0  0  0  0  0  0  0  0  0  0  0
   11.2656  -14.6165   25.9620 H   0  0  0  0  0  0  0  0  0  0  0  0
    7.0738  -12.4235   27.5871 H   0  0  0  0  0  0  0  0  0  0  0  0
    5.2913  -12.5635   28.0127 H   0  0  0  0  0  0  0  0  0  0  0  0
    5.9899  -11.1404   27.2792 H   0  0  0  0  0  0  0  0  0  0  0  0
    5.0124  -14.9128   25.1733 H   0  0  0  0  0  0  0  0  0  0  0  0
    3.2777  -14.5023   23.6789 H   0  0  0  0  0  0  0  0  0  0  0  0
    2.3916  -13.2346   24.6828 H   0  0  0  0  0  0  0  0  0  0  0  0
    3.4872  -12.7839   23.6724 H   0  0  0  0  0  0  0  0  0  0  0  0
    2.7258  -14.0727   27.1507 H   0  0  0  0  0  0  0  0  0  0  0  0
    4.2772  -14.2662   27.9338 H   0  0  0  0  0  0  0  0  0  0  0  0
    3.7261  -16.8472   28.5234 H   0  0  0  0  0  0  0  0  0  0  0  0
    3.1266  -17.0599   26.9453 H   0  0  0  0  0  0  0  0  0  0  0  0
    1.5494  -16.6436   27.3467 H   0  0  0  0  0  0  0  0  0  0  0  0
   -0.8334  -17.3216   31.5876 H   0  0  0  0  0  0  0  0  0  0  0  0
   -3.2529  -18.3489   31.4438 H   0  0  0  0  0  0  0  0  0  0  0  0
   -1.4630  -17.8637   27.3251 H   0  0  0  0  0  0  0  0  0  0  0  0
    8.6930  -10.9489   23.0324 H   0  0  0  0  0  0  0  0  0  0  0  0
   11.0322  -11.9585   23.2154 H   0  0  0  0  0  0  0  0  0  0  0  0
  1  2  1  0
  2  3  2  0
  3  4  1  0
  4  5  1  0
  5  6  2  0
  5  7  1  0
  7  8  1  0
  7  9  1  0
  9 10  1  0
  9 11  1  0
 11 12  1  0
 12 13  1  0
 13 14  1  0
 14 15  2  0
 14 16  1  0
 16 17  1  0
 17 18  2  0
 18 19  1  0
 19 20  1  0
  4 21  2  0
 21 22  1  0
 22  2  1  0
 20 16  2  0
  1 23  1  0
  1 24  1  0
  1 25  1  0
  8 26  1  0
  8 27  1  0
  8 28  1  0
  9 29  1  0
 10 30  1  0
 10 31  1  0
 10 32  1  0
 11 33  1  0
 11 34  1  0
 12 35  1  0
 12 36  1  0
 13 37  1  0
 17 38  1  0
 18 39  1  0
 20 40  1  0
 21 41  1  0
 22 42  1  0
M  END
>  <Energy>  (1671) 
439.25064538738036

>  <compound_id>  (1671) 
8194

>  <target_id>  (1671) 
1

>  <reference_id>  (1671) 
20

>  <inspiration_ids>  (1671) 
[35, 20]

>  <energy_score>  (1671) 
359.5698603950302

>  <distance_score>  (1671) 
13.600579936156878

>  <path>  (1671) 
/opt/xchem-fragalysis-2/maxwin/BulkDock/SCRATCH/511013/C8194-P20/C8194-P20.minimised.mol

>  <scratch_subdir>  (1671) 
/opt/xchem-fragalysis-2/maxwin/BulkDock/SCRATCH/511013/C8194-P20

>  <fragmenstein_runtime>  (1671) 
20.932332277297974

>  <fragmenstein_outcome>  (1671) 
too moved

>  <fragmenstein_mode>  (1671) 
expansion

>  <fragmenstein_error>  (1671) 


$$$$
C8195-P35
     RDKit          3D

 42 43  0  0  0  0  0  0  0  0999 V2000
    5.8994  -11.2700   27.5749 C   0  0  0  0  0  0  0  0  0  0  0  0
    5.8908  -12.6043   26.5569 C   0  0  0  0  0  0  0  0  0  0  0  0
    4.3380  -13.9639   26.5902 C   0  0  0  0  0  0  0  0  0  0  0  0
    3.4878  -15.3776   27.6839 C   0  0  0  0  0  0  0  0  0  0  0  0
    1.9663  -16.4072   27.9154 N   0  0  0  0  0  0  0  0  0  0  0  0
    1.0895  -16.7264   29.2480 C   0  0  0  0  0  0  0  0  0  0  0  0
    1.2694  -16.3886   30.4002 O   0  0  0  0  0  0  0  0  0  0  0  0
   -0.2507  -17.4742   29.1227 C   0  0  0  0  0  0  0  0  0  0  0  0
   -0.6230  -18.6158   29.9689 C   0  0  0  0  0  0  0  0  0  0  0  0
   -1.9159  -19.0647   29.8045 C   0  0  0  0  0  0  0  0  0  0  0  0
   -2.7721  -18.0515   28.7429 S   0  0  0  0  0  0  0  0  0  0  0  0
   -1.4361  -16.9993   28.5842 C   0  0  0  0  0  0  0  0  0  0  0  0
    7.5942  -12.5303   25.7890 N   0  0  0  0  0  0  0  0  0  0  0  0
    7.9032  -13.2993   26.9097 C   0  0  0  0  0  0  0  0  0  0  0  0
    7.9562  -11.1590   25.4588 C   0  0  0  0  0  0  0  0  0  0  0  0
    8.5292  -10.3257   26.1130 O   0  0  0  0  0  0  0  0  0  0  0  0
    7.7327  -10.6559   24.0808 C   0  0  0  0  0  0  0  0  0  0  0  0
    8.6408   -9.7036   23.5512 C   0  0  0  0  0  0  0  0  0  0  0  0
    8.6388   -9.8589   22.1946 N   0  0  0  0  0  0  0  0  0  0  0  0
    9.5169   -9.2453   21.2393 C   0  0  0  0  0  0  0  0  0  0  0  0
    7.7112  -10.8043   21.9085 C   0  0  0  0  0  0  0  0  0  0  0  0
    7.1947  -11.3096   23.0138 N   0  0  0  0  0  0  0  0  0  0  0  0
    5.2055  -11.3909   28.4065 H   0  0  0  0  0  0  0  0  0  0  0  0
    6.8746  -11.1584   28.0649 H   0  0  0  0  0  0  0  0  0  0  0  0
    5.7578  -10.2949   27.1223 H   0  0  0  0  0  0  0  0  0  0  0  0
    6.1337  -13.0349   27.4590 H   0  0  0  0  0  0  0  0  0  0  0  0
    4.6112  -14.5501   25.7087 H   0  0  0  0  0  0  0  0  0  0  0  0
    4.5269  -13.6880   27.6183 H   0  0  0  0  0  0  0  0  0  0  0  0
    3.7660  -16.1432   26.9930 H   0  0  0  0  0  0  0  0  0  0  0  0
    2.6760  -14.6555   27.6118 H   0  0  0  0  0  0  0  0  0  0  0  0
    1.5892  -16.9044   27.1426 H   0  0  0  0  0  0  0  0  0  0  0  0
    0.0582  -19.0795   30.6721 H   0  0  0  0  0  0  0  0  0  0  0  0
   -2.3941  -19.9021   30.2943 H   0  0  0  0  0  0  0  0  0  0  0  0
   -1.6359  -16.0459   28.1226 H   0  0  0  0  0  0  0  0  0  0  0  0
    7.8370  -14.3533   26.7215 H   0  0  0  0  0  0  0  0  0  0  0  0
    8.9872  -13.1509   26.8685 H   0  0  0  0  0  0  0  0  0  0  0  0
    7.9481  -12.8038   27.8795 H   0  0  0  0  0  0  0  0  0  0  0  0
    9.3594   -9.0708   24.0553 H   0  0  0  0  0  0  0  0  0  0  0  0
   10.3914   -8.8427   21.7547 H   0  0  0  0  0  0  0  0  0  0  0  0
    8.9666   -8.4519   20.7309 H   0  0  0  0  0  0  0  0  0  0  0  0
    9.8407   -9.9997   20.5172 H   0  0  0  0  0  0  0  0  0  0  0  0
    7.4533  -11.1094   20.9017 H   0  0  0  0  0  0  0  0  0  0  0  0
  1  2  1  0
  2  3  1  0
  3  4  1  0
  4  5  1  0
  5  6  1  0
  6  7  2  0
  6  8  1  0
  8  9  1  0
  9 10  2  0
 10 11  1  0
 11 12  1  0
  2 13  1  0
 13 14  1  0
 13 15  1  0
 15 16  2  0
 15 17  1  0
 17 18  2  0
 18 19  1  0
 19 20  1  0
 19 21  1  0
 21 22  2  0
 12  8  2  0
 22 17  1  0
  1 23  1  0
  1 24  1  0
  1 25  1  0
  2 26  1  0
  3 27  1  0
  3 28  1  0
  4 29  1  0
  4 30  1  0
  5 31  1  0
  9 32  1  0
 10 33  1  0
 12 34  1  0
 14 35  1  0
 14 36  1  0
 14 37  1  0
 18 38  1  0
 20 39  1  0
 20 40  1  0
 20 41  1  0
 21 42  1  0
M  END
>  <Energy>  (1672) 
531.57949011928361

>  <compound_id>  (1672) 
8195

>  <target_id>  (1672) 
1

>  <reference_id>  (1672) 
35

>  <inspiration_ids>  (1672) 
[35, 20]

>  <energy_score>  (1672) 
449.33667583013676

>  <distance_score>  (1672) 
13.153797497768238

>  <path>  (1672) 
/opt/xchem-fragalysis-2/maxwin/BulkDock/SCRATCH/511013/C8195-P35/C8195-P35.minimised.mol

>  <scratch_subdir>  (1672) 
/opt/xchem-fragalysis-2/maxwin/BulkDock/SCRATCH/511013/C8195-P35

>  <fragmenstein_runtime>  (1672) 
20.396649837493896

>  <fragmenstein_outcome>  (1672) 
too moved

>  <fragmenstein_mode>  (1672) 
expansion

>  <fragmenstein_error>  (1672) 


$$$$
C8195-P20
     RDKit          3D

 42 43  0  0  0  0  0  0  0  0999 V2000
    3.7858  -14.6113   23.9742 C   0  0  0  0  0  0  0  0  0  0  0  0
    3.3096  -13.1527   23.6430 C   0  0  0  0  0  0  0  0  0  0  0  0
    1.7515  -13.1655   24.3933 C   0  0  0  0  0  0  0  0  0  0  0  0
    0.0796  -14.2703   24.0950 C   0  0  0  0  0  0  0  0  0  0  0  0
   -1.5022  -15.0249   24.1889 N   0  0  0  0  0  0  0  0  0  0  0  0
   -2.5677  -15.0394   25.3341 C   0  0  0  0  0  0  0  0  0  0  0  0
   -2.5140  -14.6002   26.4512 O   0  0  0  0  0  0  0  0  0  0  0  0
   -3.8376  -15.8033   25.0791 C   0  0  0  0  0  0  0  0  0  0  0  0
   -4.7094  -15.8709   23.9448 C   0  0  0  0  0  0  0  0  0  0  0  0
   -5.7875  -16.7191   24.1290 C   0  0  0  0  0  0  0  0  0  0  0  0
   -5.7926  -17.4375   25.6743 S   0  0  0  0  0  0  0  0  0  0  0  0
   -4.3682  -16.5981   26.1022 C   0  0  0  0  0  0  0  0  0  0  0  0
    3.4992  -11.9934   22.1944 N   0  0  0  0  0  0  0  0  0  0  0  0
    4.9180  -12.4996   20.8177 C   0  0  0  0  0  0  0  0  0  0  0  0
    4.1076  -11.7693   22.1925 C   0  0  0  0  0  0  0  0  0  0  0  0
    3.4425  -13.2041   21.1384 O   0  0  0  0  0  0  0  0  0  0  0  0
    5.8275  -10.8929   22.1955 C   0  0  0  0  0  0  0  0  0  0  0  0
    6.8762  -11.0348   23.2036 C   0  0  0  0  0  0  0  0  0  0  0  0
    8.0782  -10.6581   22.6352 N   0  0  0  0  0  0  0  0  0  0  0  0
    9.3445  -10.6283   23.3217 C   0  0  0  0  0  0  0  0  0  0  0  0
    7.8739  -10.3593   21.3293 C   0  0  0  0  0  0  0  0  0  0  0  0
    6.6137  -10.5243   21.0151 N   0  0  0  0  0  0  0  0  0  0  0  0
    3.9136  -14.6056   25.0660 H   0  0  0  0  0  0  0  0  0  0  0  0
    3.1294  -15.2273   23.4217 H   0  0  0  0  0  0  0  0  0  0  0  0
    4.7088  -15.1443   23.8180 H   0  0  0  0  0  0  0  0  0  0  0  0
    3.7726  -12.6265   24.3602 H   0  0  0  0  0  0  0  0  0  0  0  0
    1.6890  -12.1011   24.1121 H   0  0  0  0  0  0  0  0  0  0  0  0
    1.7379  -13.2014   25.4979 H   0  0  0  0  0  0  0  0  0  0  0  0
   -0.6468  -13.8487   24.8142 H   0  0  0  0  0  0  0  0  0  0  0  0
   -0.0858  -14.0732   23.0460 H   0  0  0  0  0  0  0  0  0  0  0  0
   -1.9042  -15.4048   23.3541 H   0  0  0  0  0  0  0  0  0  0  0  0
   -4.5497  -15.3310   23.0189 H   0  0  0  0  0  0  0  0  0  0  0  0
   -6.5723  -16.9481   23.4209 H   0  0  0  0  0  0  0  0  0  0  0  0
   -3.9615  -16.7289   27.0971 H   0  0  0  0  0  0  0  0  0  0  0  0
    4.5521  -12.9072   19.8189 H   0  0  0  0  0  0  0  0  0  0  0  0
    5.3163  -11.6557   20.2803 H   0  0  0  0  0  0  0  0  0  0  0  0
    5.7829  -13.1247   21.0128 H   0  0  0  0  0  0  0  0  0  0  0  0
    6.8317  -11.3917   24.2225 H   0  0  0  0  0  0  0  0  0  0  0  0
   10.1203  -10.2579   22.6468 H   0  0  0  0  0  0  0  0  0  0  0  0
    9.2540   -9.9631   24.1843 H   0  0  0  0  0  0  0  0  0  0  0  0
    9.5846  -11.6445   23.6450 H   0  0  0  0  0  0  0  0  0  0  0  0
    8.6565  -10.0527   20.6485 H   0  0  0  0  0  0  0  0  0  0  0  0
  1  2  1  0
  2  3  1  0
  3  4  1  0
  4  5  1  0
  5  6  1  0
  6  7  2  0
  6  8  1  0
  8  9  1  0
  9 10  2  0
 10 11  1  0
 11 12  1  0
  2 13  1  0
 13 14  1  0
 13 15  1  0
 15 16  2  0
 15 17  1  0
 17 18  2  0
 18 19  1  0
 19 20  1  0
 19 21  1  0
 21 22  2  0
 12  8  2  0
 22 17  1  0
  1 23  1  0
  1 24  1  0
  1 25  1  0
  2 26  1  0
  3 27  1  0
  3 28  1  0
  4 29  1  0
  4 30  1  0
  5 31  1  0
  9 32  1  0
 10 33  1  0
 12 34  1  0
 14 35  1  0
 14 36  1  0
 14 37  1  0
 18 38  1  0
 20 39  1  0
 20 40  1  0
 20 41  1  0
 21 42  1  0
M  END
>  <Energy>  (1673) 
2048.8121935375716

>  <compound_id>  (1673) 
8195

>  <target_id>  (1673) 
1

>  <reference_id>  (1673) 
20

>  <inspiration_ids>  (1673) 
[35, 20]

>  <energy_score>  (1673) 
1966.5693792484462

>  <distance_score>  (1673) 
13.582049124714768

>  <path>  (1673) 
/opt/xchem-fragalysis-2/maxwin/BulkDock/SCRATCH/511013/C8195-P20/C8195-P20.minimised.mol

>  <scratch_subdir>  (1673) 
/opt/xchem-fragalysis-2/maxwin/BulkDock/SCRATCH/511013/C8195-P20

>  <fragmenstein_runtime>  (1673) 
24.131556749343872

>  <fragmenstein_outcome>  (1673) 
too moved

>  <fragmenstein_mode>  (1673) 
expansion

>  <fragmenstein_error>  (1673) 


$$$$
C8208-P35
     RDKit          3D

 37 39  0  0  0  0  0  0  0  0999 V2000
    1.9131  -11.4694   24.5522 O   0  0  0  0  0  0  0  0  0  0  0  0
    2.0517  -12.5703   24.8054 C   0  0  0  0  0  0  0  0  0  0  0  0
    3.5519  -13.3526   24.3033 N   0  0  0  0  0  0  0  0  0  0  0  0
    4.6349  -12.8862   23.5318 C   0  0  0  0  0  0  0  0  0  0  0  0
    4.6663  -11.5802   22.9012 C   0  0  0  0  0  0  0  0  0  0  0  0
    5.8171  -11.3260   22.1837 C   0  0  0  0  0  0  0  0  0  0  0  0
    6.8870  -12.6530   22.2513 S   0  0  0  0  0  0  0  0  0  0  0  0
    5.7983  -13.5640   23.2377 C   0  0  0  0  0  0  0  0  0  0  0  0
    0.7592  -13.7003   25.5814 C   0  0  0  0  0  0  0  0  0  0  0  0
    0.3217  -14.3810   24.5819 O   0  0  0  0  0  0  0  0  0  0  0  0
   -0.1281  -14.5319   27.3419 N   0  0  0  0  0  0  0  0  0  0  0  0
   -1.4661  -15.9207   27.6046 C   0  0  0  0  0  0  0  0  0  0  0  0
   -3.3804  -16.2774   28.3198 C   0  0  0  0  0  0  0  0  0  0  0  0
   -4.7629  -16.1622   29.7272 C   0  0  0  0  0  0  0  0  0  0  0  0
   -5.6848  -16.6937   31.4383 C   0  0  0  0  0  0  0  0  0  0  0  0
   -5.1389  -17.3988   32.4129 N   0  0  0  0  0  0  0  0  0  0  0  0
   -6.1750  -18.2463   32.5899 C   0  0  0  0  0  0  0  0  0  0  0  0
   -7.1088  -17.5150   33.2116 C   0  0  0  0  0  0  0  0  0  0  0  0
   -6.6147  -16.3326   32.7258 N   0  0  0  0  0  0  0  0  0  0  0  0
   -3.0563  -15.1063   29.6153 C   0  0  0  0  0  0  0  0  0  0  0  0
   -1.8493  -14.1820   28.3323 C   0  0  0  0  0  0  0  0  0  0  0  0
    3.5615  -14.2718   24.6650 H   0  0  0  0  0  0  0  0  0  0  0  0
    3.8560  -10.8640   22.9724 H   0  0  0  0  0  0  0  0  0  0  0  0
    6.0671  -10.4349   21.6252 H   0  0  0  0  0  0  0  0  0  0  0  0
    6.0847  -14.5581   23.5498 H   0  0  0  0  0  0  0  0  0  0  0  0
   -1.3091  -16.9684   27.1575 H   0  0  0  0  0  0  0  0  0  0  0  0
   -0.7173  -15.9965   28.4150 H   0  0  0  0  0  0  0  0  0  0  0  0
   -3.6033  -16.9942   27.5167 H   0  0  0  0  0  0  0  0  0  0  0  0
   -3.1883  -16.8184   29.2179 H   0  0  0  0  0  0  0  0  0  0  0  0
   -5.7281  -15.8561   29.2747 H   0  0  0  0  0  0  0  0  0  0  0  0
   -5.9708  -19.3187   32.5628 H   0  0  0  0  0  0  0  0  0  0  0  0
   -7.9775  -17.6616   33.8347 H   0  0  0  0  0  0  0  0  0  0  0  0
   -7.2971  -15.5990   32.8122 H   0  0  0  0  0  0  0  0  0  0  0  0
   -3.4794  -14.1068   29.7725 H   0  0  0  0  0  0  0  0  0  0  0  0
   -2.4255  -15.6345   30.3760 H   0  0  0  0  0  0  0  0  0  0  0  0
   -1.3759  -14.6795   29.1917 H   0  0  0  0  0  0  0  0  0  0  0  0
   -2.4493  -14.3865   27.4336 H   0  0  0  0  0  0  0  0  0  0  0  0
  1  2  2  0
  2  3  1  0
  3  4  1  0
  4  5  1  0
  5  6  2  0
  6  7  1  0
  7  8  1  0
  2  9  1  0
  9 10  2  0
  9 11  1  0
 11 12  1  0
 12 13  1  0
 13 14  1  0
 14 15  1  0
 15 16  2  0
 16 17  1  0
 17 18  2  0
 18 19  1  0
 14 20  1  0
 20 21  1  0
  8  4  2  0
 21 11  1  0
 19 15  1  0
  3 22  1  0
  5 23  1  0
  6 24  1  0
  8 25  1  0
 12 26  1  0
 12 27  1  0
 13 28  1  0
 13 29  1  0
 14 30  1  0
 17 31  1  0
 18 32  1  0
 19 33  1  0
 20 34  1  0
 20 35  1  0
 21 36  1  0
 21 37  1  0
M  END
>  <Energy>  (1674) 
1448.0795775460217

>  <compound_id>  (1674) 
8208

>  <target_id>  (1674) 
1

>  <reference_id>  (1674) 
35

>  <inspiration_ids>  (1674) 
[35, 20]

>  <energy_score>  (1674) 
1375.9878660266918

>  <distance_score>  (1674) 
12.400585798933264

>  <path>  (1674) 
/opt/xchem-fragalysis-2/maxwin/BulkDock/SCRATCH/511013/C8208-P35/C8208-P35.minimised.mol

>  <scratch_subdir>  (1674) 
/opt/xchem-fragalysis-2/maxwin/BulkDock/SCRATCH/511013/C8208-P35

>  <fragmenstein_runtime>  (1674) 
17.691587924957275

>  <fragmenstein_outcome>  (1674) 
too moved

>  <fragmenstein_mode>  (1674) 
expansion

>  <fragmenstein_error>  (1674) 


$$$$
C8208-P20
     RDKit          3D

 37 39  0  0  0  0  0  0  0  0999 V2000
    2.6791  -14.0963   34.5014 O   0  0  0  0  0  0  0  0  0  0  0  0
    2.8062  -13.4043   33.5391 C   0  0  0  0  0  0  0  0  0  0  0  0
    4.0172  -12.7667   32.9481 N   0  0  0  0  0  0  0  0  0  0  0  0
    5.3519  -12.8658   33.2865 C   0  0  0  0  0  0  0  0  0  0  0  0
    6.1904  -13.7570   32.5006 C   0  0  0  0  0  0  0  0  0  0  0  0
    7.3466  -13.1768   32.0037 C   0  0  0  0  0  0  0  0  0  0  0  0
    7.5036  -11.5564   32.4998 S   0  0  0  0  0  0  0  0  0  0  0  0
    6.0385  -11.6544   33.3983 C   0  0  0  0  0  0  0  0  0  0  0  0
    1.7488  -12.9692   32.4379 C   0  0  0  0  0  0  0  0  0  0  0  0
    2.2482  -12.0840   31.7298 O   0  0  0  0  0  0  0  0  0  0  0  0
    0.1749  -13.7573   32.2125 N   0  0  0  0  0  0  0  0  0  0  0  0
   -0.9002  -13.5025   31.2576 C   0  0  0  0  0  0  0  0  0  0  0  0
   -1.9278  -14.9489   30.0993 C   0  0  0  0  0  0  0  0  0  0  0  0
   -2.9646  -16.0958   31.4247 C   0  0  0  0  0  0  0  0  0  0  0  0
   -4.5811  -16.5963   32.5619 C   0  0  0  0  0  0  0  0  0  0  0  0
   -5.2873  -17.8030   32.5949 N   0  0  0  0  0  0  0  0  0  0  0  0
   -6.6636  -17.8932   33.0290 C   0  0  0  0  0  0  0  0  0  0  0  0
   -7.0092  -16.6524   33.3131 C   0  0  0  0  0  0  0  0  0  0  0  0
   -6.0204  -16.1678   32.5116 N   0  0  0  0  0  0  0  0  0  0  0  0
   -1.8327  -15.4334   32.0434 C   0  0  0  0  0  0  0  0  0  0  0  0
   -0.2403  -15.1426   31.3465 C   0  0  0  0  0  0  0  0  0  0  0  0
    3.7381  -12.1708   32.1660 H   0  0  0  0  0  0  0  0  0  0  0  0
    5.8645  -14.7372   32.1706 H   0  0  0  0  0  0  0  0  0  0  0  0
    8.0802  -13.6287   31.3500 H   0  0  0  0  0  0  0  0  0  0  0  0
    5.6561  -10.7373   33.8249 H   0  0  0  0  0  0  0  0  0  0  0  0
   -1.4277  -13.4387   32.1968 H   0  0  0  0  0  0  0  0  0  0  0  0
   -0.9668  -12.4772   31.0892 H   0  0  0  0  0  0  0  0  0  0  0  0
   -2.7473  -14.4167   29.5808 H   0  0  0  0  0  0  0  0  0  0  0  0
   -1.5451  -15.1801   29.1117 H   0  0  0  0  0  0  0  0  0  0  0  0
   -2.6734  -17.1587   31.5639 H   0  0  0  0  0  0  0  0  0  0  0  0
   -7.1262  -18.8173   33.3339 H   0  0  0  0  0  0  0  0  0  0  0  0
   -7.9192  -16.1738   33.6348 H   0  0  0  0  0  0  0  0  0  0  0  0
   -6.2800  -15.5792   31.7583 H   0  0  0  0  0  0  0  0  0  0  0  0
   -1.3894  -16.2987   31.7480 H   0  0  0  0  0  0  0  0  0  0  0  0
   -2.0579  -15.0186   33.0548 H   0  0  0  0  0  0  0  0  0  0  0  0
    0.5891  -15.8810   31.3217 H   0  0  0  0  0  0  0  0  0  0  0  0
   -0.1355  -15.7388   30.4499 H   0  0  0  0  0  0  0  0  0  0  0  0
  1  2  2  0
  2  3  1  0
  3  4  1  0
  4  5  1  0
  5  6  2  0
  6  7  1  0
  7  8  1  0
  2  9  1  0
  9 10  2  0
  9 11  1  0
 11 12  1  0
 12 13  1  0
 13 14  1  0
 14 15  1  0
 15 16  2  0
 16 17  1  0
 17 18  2  0
 18 19  1  0
 14 20  1  0
 20 21  1  0
  8  4  2  0
 21 11  1  0
 19 15  1  0
  3 22  1  0
  5 23  1  0
  6 24  1  0
  8 25  1  0
 12 26  1  0
 12 27  1  0
 13 28  1  0
 13 29  1  0
 14 30  1  0
 17 31  1  0
 18 32  1  0
 19 33  1  0
 20 34  1  0
 20 35  1  0
 21 36  1  0
 21 37  1  0
M  END
>  <Energy>  (1675) 
897.25496131631155

>  <compound_id>  (1675) 
8208

>  <target_id>  (1675) 
1

>  <reference_id>  (1675) 
20

>  <inspiration_ids>  (1675) 
[35, 20]

>  <energy_score>  (1675) 
825.1632497969719

>  <distance_score>  (1675) 
15.824157923583018

>  <path>  (1675) 
/opt/xchem-fragalysis-2/maxwin/BulkDock/SCRATCH/511013/C8208-P20/C8208-P20.minimised.mol

>  <scratch_subdir>  (1675) 
/opt/xchem-fragalysis-2/maxwin/BulkDock/SCRATCH/511013/C8208-P20

>  <fragmenstein_runtime>  (1675) 
20.167240142822266

>  <fragmenstein_outcome>  (1675) 
too moved

>  <fragmenstein_mode>  (1675) 
expansion

>  <fragmenstein_error>  (1675) 


$$$$
C8209-P35
     RDKit          3D

 46 47  0  0  0  0  0  0  0  0999 V2000
    1.0403  -17.5407   27.2717 C   0  0  0  0  0  0  0  0  0  0  0  0
    1.9343  -15.9893   27.8015 C   0  0  0  0  0  0  0  0  0  0  0  0
    0.9534  -16.4820   29.4484 C   0  0  0  0  0  0  0  0  0  0  0  0
   -0.5729  -16.6225   29.5215 N   0  0  0  0  0  0  0  0  0  0  0  0
   -1.1371  -16.3724   30.8616 C   0  0  0  0  0  0  0  0  0  0  0  0
   -2.3685  -15.4978   30.7910 C   0  0  0  0  0  0  0  0  0  0  0  0
   -3.1482  -15.1774   29.6139 C   0  0  0  0  0  0  0  0  0  0  0  0
   -4.3475  -14.5637   29.9084 C   0  0  0  0  0  0  0  0  0  0  0  0
   -4.5269  -14.2853   31.5834 S   0  0  0  0  0  0  0  0  0  0  0  0
   -2.9971  -14.9825   31.9177 C   0  0  0  0  0  0  0  0  0  0  0  0
    3.2344  -14.5072   27.1003 C   0  0  0  0  0  0  0  0  0  0  0  0
    3.8173  -14.1049   25.2616 N   0  0  0  0  0  0  0  0  0  0  0  0
    3.0758  -13.0094   23.9434 C   0  0  0  0  0  0  0  0  0  0  0  0
    2.0425  -12.5027   24.1503 O   0  0  0  0  0  0  0  0  0  0  0  0
    3.7386  -12.3884   22.3306 C   0  0  0  0  0  0  0  0  0  0  0  0
    4.2799  -12.9007   20.9480 C   0  0  0  0  0  0  0  0  0  0  0  0
    5.2680  -11.9663   20.4372 N   0  0  0  0  0  0  0  0  0  0  0  0
    6.0091  -12.2207   19.2077 C   0  0  0  0  0  0  0  0  0  0  0  0
    5.2744  -11.6524   17.9984 C   0  0  0  0  0  0  0  0  0  0  0  0
    7.4729  -11.7990   19.3072 C   0  0  0  0  0  0  0  0  0  0  0  0
    5.2094  -10.7895   21.1795 C   0  0  0  0  0  0  0  0  0  0  0  0
    4.3889  -10.9185   22.2365 N   0  0  0  0  0  0  0  0  0  0  0  0
    1.7305  -18.2196   26.7249 H   0  0  0  0  0  0  0  0  0  0  0  0
    0.0170  -17.5811   26.8540 H   0  0  0  0  0  0  0  0  0  0  0  0
    0.5919  -18.1052   28.0904 H   0  0  0  0  0  0  0  0  0  0  0  0
    2.9435  -16.4499   27.7888 H   0  0  0  0  0  0  0  0  0  0  0  0
    1.2317  -15.8889   30.3066 H   0  0  0  0  0  0  0  0  0  0  0  0
    1.2879  -17.4005   29.8958 H   0  0  0  0  0  0  0  0  0  0  0  0
   -0.8870  -17.5290   29.1860 H   0  0  0  0  0  0  0  0  0  0  0  0
   -0.4194  -15.8688   31.5197 H   0  0  0  0  0  0  0  0  0  0  0  0
   -1.3742  -17.3291   31.3392 H   0  0  0  0  0  0  0  0  0  0  0  0
   -2.8657  -15.4600   28.6069 H   0  0  0  0  0  0  0  0  0  0  0  0
   -5.1244  -14.2673   29.2184 H   0  0  0  0  0  0  0  0  0  0  0  0
   -2.6606  -15.0452   32.9423 H   0  0  0  0  0  0  0  0  0  0  0  0
    4.1475  -14.5697   27.6187 H   0  0  0  0  0  0  0  0  0  0  0  0
    2.5313  -13.7062   27.1673 H   0  0  0  0  0  0  0  0  0  0  0  0
    4.6570  -14.5274   24.8973 H   0  0  0  0  0  0  0  0  0  0  0  0
    3.9492  -13.6678   20.2677 H   0  0  0  0  0  0  0  0  0  0  0  0
    6.0170  -13.3122   19.0869 H   0  0  0  0  0  0  0  0  0  0  0  0
    5.8738  -11.7488   17.0879 H   0  0  0  0  0  0  0  0  0  0  0  0
    4.3357  -12.1948   17.8348 H   0  0  0  0  0  0  0  0  0  0  0  0
    5.0033  -10.6034   18.1385 H   0  0  0  0  0  0  0  0  0  0  0  0
    7.5913  -10.7418   19.5522 H   0  0  0  0  0  0  0  0  0  0  0  0
    7.9783  -12.3649   20.0982 H   0  0  0  0  0  0  0  0  0  0  0  0
    8.0008  -11.9950   18.3683 H   0  0  0  0  0  0  0  0  0  0  0  0
    5.7574   -9.8963   20.9053 H   0  0  0  0  0  0  0  0  0  0  0  0
  1  2  1  0
  2  3  1  0
  3  4  1  0
  4  5  1  0
  5  6  1  0
  6  7  1  0
  7  8  2  0
  8  9  1  0
  9 10  1  0
  2 11  1  0
 11 12  1  0
 12 13  1  0
 13 14  2  0
 13 15  1  0
 15 16  2  0
 16 17  1  0
 17 18  1  0
 18 19  1  0
 18 20  1  0
 17 21  1  0
 21 22  2  0
 10  6  2  0
 22 15  1  0
  1 23  1  0
  1 24  1  0
  1 25  1  0
  2 26  1  0
  3 27  1  0
  3 28  1  0
  4 29  1  0
  5 30  1  0
  5 31  1  0
  7 32  1  0
  8 33  1  0
 10 34  1  0
 11 35  1  0
 11 36  1  0
 12 37  1  0
 16 38  1  0
 18 39  1  0
 19 40  1  0
 19 41  1  0
 19 42  1  0
 20 43  1  0
 20 44  1  0
 20 45  1  0
 21 46  1  0
M  END
>  <Energy>  (1676) 
542.19886895396678

>  <compound_id>  (1676) 
8209

>  <target_id>  (1676) 
1

>  <reference_id>  (1676) 
35

>  <inspiration_ids>  (1676) 
[35, 20]

>  <energy_score>  (1676) 
466.809328274279

>  <distance_score>  (1676) 
13.671405040661224

>  <path>  (1676) 
/opt/xchem-fragalysis-2/maxwin/BulkDock/SCRATCH/511013/C8209-P35/C8209-P35.minimised.mol

>  <scratch_subdir>  (1676) 
/opt/xchem-fragalysis-2/maxwin/BulkDock/SCRATCH/511013/C8209-P35

>  <fragmenstein_runtime>  (1676) 
27.544375896453857

>  <fragmenstein_outcome>  (1676) 
too moved

>  <fragmenstein_mode>  (1676) 
expansion

>  <fragmenstein_error>  (1676) 


$$$$
C8209-P20
     RDKit          3D

 46 47  0  0  0  0  0  0  0  0999 V2000
   -7.2223  -14.6178   24.3654 C   0  0  0  0  0  0  0  0  0  0  0  0
   -6.2999  -15.8332   24.2089 C   0  0  0  0  0  0  0  0  0  0  0  0
   -6.5681  -16.8864   25.3522 C   0  0  0  0  0  0  0  0  0  0  0  0
   -7.8956  -17.4875   25.1663 N   0  0  0  0  0  0  0  0  0  0  0  0
   -8.3629  -18.3505   26.2411 C   0  0  0  0  0  0  0  0  0  0  0  0
   -8.0975  -19.8058   25.9830 C   0  0  0  0  0  0  0  0  0  0  0  0
   -9.1165  -20.7890   25.7218 C   0  0  0  0  0  0  0  0  0  0  0  0
   -8.6236  -22.0699   25.6333 C   0  0  0  0  0  0  0  0  0  0  0  0
   -6.9278  -22.1024   25.7990 S   0  0  0  0  0  0  0  0  0  0  0  0
   -6.8567  -20.4141   25.9943 C   0  0  0  0  0  0  0  0  0  0  0  0
   -4.8109  -15.3637   24.1177 C   0  0  0  0  0  0  0  0  0  0  0  0
   -4.4225  -14.4357   23.0223 N   0  0  0  0  0  0  0  0  0  0  0  0
   -3.6951  -14.6739   21.7838 C   0  0  0  0  0  0  0  0  0  0  0  0
   -3.2972  -15.6920   21.2993 O   0  0  0  0  0  0  0  0  0  0  0  0
   -3.2904  -13.3908   21.0371 C   0  0  0  0  0  0  0  0  0  0  0  0
   -3.7454  -12.0803   21.1341 C   0  0  0  0  0  0  0  0  0  0  0  0
   -2.9491  -11.3115   20.3049 N   0  0  0  0  0  0  0  0  0  0  0  0
   -3.0451   -9.8690   20.1204 C   0  0  0  0  0  0  0  0  0  0  0  0
   -1.7496   -9.1614   20.5198 C   0  0  0  0  0  0  0  0  0  0  0  0
   -3.4608   -9.5091   18.6946 C   0  0  0  0  0  0  0  0  0  0  0  0
   -2.0756  -12.1462   19.6814 C   0  0  0  0  0  0  0  0  0  0  0  0
   -2.2278  -13.3783   20.1142 N   0  0  0  0  0  0  0  0  0  0  0  0
   -7.0821  -13.9088   23.5429 H   0  0  0  0  0  0  0  0  0  0  0  0
   -8.2763  -14.9129   24.3615 H   0  0  0  0  0  0  0  0  0  0  0  0
   -7.0209  -14.0910   25.3042 H   0  0  0  0  0  0  0  0  0  0  0  0
   -6.5356  -16.3075   23.2460 H   0  0  0  0  0  0  0  0  0  0  0  0
   -5.7960  -17.6614   25.3122 H   0  0  0  0  0  0  0  0  0  0  0  0
   -6.5015  -16.3851   26.3248 H   0  0  0  0  0  0  0  0  0  0  0  0
   -7.9213  -18.0059   24.2876 H   0  0  0  0  0  0  0  0  0  0  0  0
   -9.4425  -18.2011   26.2253 H   0  0  0  0  0  0  0  0  0  0  0  0
   -8.0280  -18.0071   27.2180 H   0  0  0  0  0  0  0  0  0  0  0  0
  -10.1740  -20.5721   25.6267 H   0  0  0  0  0  0  0  0  0  0  0  0
   -9.1816  -22.9780   25.4574 H   0  0  0  0  0  0  0  0  0  0  0  0
   -5.8981  -19.9385   26.1453 H   0  0  0  0  0  0  0  0  0  0  0  0
   -4.5248  -14.8654   25.0508 H   0  0  0  0  0  0  0  0  0  0  0  0
   -4.1736  -16.2485   24.0067 H   0  0  0  0  0  0  0  0  0  0  0  0
   -4.5245  -13.4411   23.1585 H   0  0  0  0  0  0  0  0  0  0  0  0
   -4.5459  -11.6385   21.7095 H   0  0  0  0  0  0  0  0  0  0  0  0
   -3.8366   -9.5259   20.7992 H   0  0  0  0  0  0  0  0  0  0  0  0
   -1.4635   -9.4166   21.5458 H   0  0  0  0  0  0  0  0  0  0  0  0
   -1.8704   -8.0744   20.4646 H   0  0  0  0  0  0  0  0  0  0  0  0
   -0.9169   -9.4405   19.8648 H   0  0  0  0  0  0  0  0  0  0  0  0
   -3.6181   -8.4296   18.5987 H   0  0  0  0  0  0  0  0  0  0  0  0
   -2.6989   -9.8039   17.9647 H   0  0  0  0  0  0  0  0  0  0  0  0
   -4.3951  -10.0118   18.4213 H   0  0  0  0  0  0  0  0  0  0  0  0
   -1.3458  -11.8221   18.9497 H   0  0  0  0  0  0  0  0  0  0  0  0
  1  2  1  0
  2  3  1  0
  3  4  1  0
  4  5  1  0
  5  6  1  0
  6  7  1  0
  7  8  2  0
  8  9  1  0
  9 10  1  0
  2 11  1  0
 11 12  1  0
 12 13  1  0
 13 14  2  0
 13 15  1  0
 15 16  2  0
 16 17  1  0
 17 18  1  0
 18 19  1  0
 18 20  1  0
 17 21  1  0
 21 22  2  0
 10  6  2  0
 22 15  1  0
  1 23  1  0
  1 24  1  0
  1 25  1  0
  2 26  1  0
  3 27  1  0
  3 28  1  0
  4 29  1  0
  5 30  1  0
  5 31  1  0
  7 32  1  0
  8 33  1  0
 10 34  1  0
 11 35  1  0
 11 36  1  0
 12 37  1  0
 16 38  1  0
 18 39  1  0
 19 40  1  0
 19 41  1  0
 19 42  1  0
 20 43  1  0
 20 44  1  0
 20 45  1  0
 21 46  1  0
M  END
>  <Energy>  (1677) 
43.565848531119691

>  <compound_id>  (1677) 
8209

>  <target_id>  (1677) 
1

>  <reference_id>  (1677) 
20

>  <inspiration_ids>  (1677) 
[35, 20]

>  <energy_score>  (1677) 
-31.82369214855487

>  <distance_score>  (1677) 
15.511344186601809

>  <path>  (1677) 
/opt/xchem-fragalysis-2/maxwin/BulkDock/SCRATCH/511013/C8209-P20/C8209-P20.minimised.mol

>  <scratch_subdir>  (1677) 
/opt/xchem-fragalysis-2/maxwin/BulkDock/SCRATCH/511013/C8209-P20

>  <fragmenstein_runtime>  (1677) 
39.493433713912964

>  <fragmenstein_outcome>  (1677) 
too moved

>  <fragmenstein_mode>  (1677) 
expansion

>  <fragmenstein_error>  (1677) 


$$$$
C8210-P35
     RDKit          3D

 40 41  0  0  0  0  0  0  0  0999 V2000
    5.8209  -12.7892   19.1586 C   0  0  0  0  0  0  0  0  0  0  0  0
    6.4178  -11.7560   20.0407 C   0  0  0  0  0  0  0  0  0  0  0  0
    7.5913  -11.1596   19.6032 N   0  0  0  0  0  0  0  0  0  0  0  0
    7.9706  -10.2243   20.5027 C   0  0  0  0  0  0  0  0  0  0  0  0
    7.1095  -10.1641   21.4819 N   0  0  0  0  0  0  0  0  0  0  0  0
    6.0385  -11.0783   21.2169 C   0  0  0  0  0  0  0  0  0  0  0  0
    4.8149  -11.0117   22.4973 C   0  0  0  0  0  0  0  0  0  0  0  0
    5.0939  -10.0964   23.2821 O   0  0  0  0  0  0  0  0  0  0  0  0
    3.4639  -12.3032   22.5845 N   0  0  0  0  0  0  0  0  0  0  0  0
    2.1693  -12.7163   23.9697 C   0  0  0  0  0  0  0  0  0  0  0  0
    0.4908  -14.0358   24.0633 C   0  0  0  0  0  0  0  0  0  0  0  0
   -0.2907  -14.1453   22.7088 C   0  0  0  0  0  0  0  0  0  0  0  0
   -1.3653  -14.2372   25.0001 C   0  0  0  0  0  0  0  0  0  0  0  0
   -2.5013  -14.6665   26.2760 N   0  0  0  0  0  0  0  0  0  0  0  0
   -3.4547  -15.8105   26.1385 C   0  0  0  0  0  0  0  0  0  0  0  0
   -4.0351  -16.1273   27.5111 C   0  0  0  0  0  0  0  0  0  0  0  0
   -3.3999  -16.9643   28.4992 C   0  0  0  0  0  0  0  0  0  0  0  0
   -4.1102  -17.0572   29.6773 C   0  0  0  0  0  0  0  0  0  0  0  0
   -5.5517  -16.1481   29.6211 S   0  0  0  0  0  0  0  0  0  0  0  0
   -5.2530  -15.6806   27.9992 C   0  0  0  0  0  0  0  0  0  0  0  0
    4.8372  -13.0799   19.5071 H   0  0  0  0  0  0  0  0  0  0  0  0
    5.6885  -12.3867   18.1472 H   0  0  0  0  0  0  0  0  0  0  0  0
    6.4645  -13.6668   19.0743 H   0  0  0  0  0  0  0  0  0  0  0  0
    8.0948  -11.4027   18.7603 H   0  0  0  0  0  0  0  0  0  0  0  0
    8.8730   -9.6362   20.4087 H   0  0  0  0  0  0  0  0  0  0  0  0
    3.5517  -12.9783   21.8097 H   0  0  0  0  0  0  0  0  0  0  0  0
    1.9244  -11.7956   24.3882 H   0  0  0  0  0  0  0  0  0  0  0  0
    2.9416  -13.2721   24.4785 H   0  0  0  0  0  0  0  0  0  0  0  0
    1.1738  -14.7264   23.6166 H   0  0  0  0  0  0  0  0  0  0  0  0
   -1.0487  -14.7135   22.1419 H   0  0  0  0  0  0  0  0  0  0  0  0
    0.4070  -14.7610   22.1393 H   0  0  0  0  0  0  0  0  0  0  0  0
   -1.0507  -14.6952   23.1877 H   0  0  0  0  0  0  0  0  0  0  0  0
   -1.8407  -15.1061   24.5085 H   0  0  0  0  0  0  0  0  0  0  0  0
   -1.7145  -13.2343   25.1953 H   0  0  0  0  0  0  0  0  0  0  0  0
   -3.1306  -13.8606   26.3244 H   0  0  0  0  0  0  0  0  0  0  0  0
   -2.9866  -16.7199   25.7522 H   0  0  0  0  0  0  0  0  0  0  0  0
   -4.2518  -15.5328   25.4394 H   0  0  0  0  0  0  0  0  0  0  0  0
   -2.4407  -17.4447   28.3530 H   0  0  0  0  0  0  0  0  0  0  0  0
   -3.8454  -17.5985   30.5745 H   0  0  0  0  0  0  0  0  0  0  0  0
   -5.9762  -15.0563   27.4942 H   0  0  0  0  0  0  0  0  0  0  0  0
  1  2  1  0
  2  3  1  0
  3  4  1  0
  4  5  2  0
  5  6  1  0
  6  7  1  0
  7  8  2  0
  7  9  1  0
  9 10  1  0
 10 11  1  0
 11 12  1  0
 11 13  1  0
 13 14  1  0
 14 15  1  0
 15 16  1  0
 16 17  1  0
 17 18  2  0
 18 19  1  0
 19 20  1  0
  6  2  2  0
 20 16  2  0
  1 21  1  0
  1 22  1  0
  1 23  1  0
  3 24  1  0
  4 25  1  0
  9 26  1  0
 10 27  1  0
 10 28  1  0
 11 29  1  0
 12 30  1  0
 12 31  1  0
 12 32  1  0
 13 33  1  0
 13 34  1  0
 14 35  1  0
 15 36  1  0
 15 37  1  0
 17 38  1  0
 18 39  1  0
 20 40  1  0
M  END
>  <Energy>  (1678) 
615.05716717811333

>  <compound_id>  (1678) 
8210

>  <target_id>  (1678) 
1

>  <reference_id>  (1678) 
35

>  <inspiration_ids>  (1678) 
[35, 20]

>  <energy_score>  (1678) 
534.2567970265587

>  <distance_score>  (1678) 
12.46982503571736

>  <path>  (1678) 
/opt/xchem-fragalysis-2/maxwin/BulkDock/SCRATCH/511013/C8210-P35/C8210-P35.minimised.mol

>  <scratch_subdir>  (1678) 
/opt/xchem-fragalysis-2/maxwin/BulkDock/SCRATCH/511013/C8210-P35

>  <fragmenstein_runtime>  (1678) 
11.769802808761597

>  <fragmenstein_outcome>  (1678) 
too moved

>  <fragmenstein_mode>  (1678) 
expansion

>  <fragmenstein_error>  (1678) 


$$$$
C8210-P20
     RDKit          3D

 40 41  0  0  0  0  0  0  0  0999 V2000
    6.4769  -10.3844   28.3737 C   0  0  0  0  0  0  0  0  0  0  0  0
    6.6191  -11.1924   27.1370 C   0  0  0  0  0  0  0  0  0  0  0  0
    7.5291  -10.8494   26.1641 N   0  0  0  0  0  0  0  0  0  0  0  0
    7.4880  -11.8259   25.2271 C   0  0  0  0  0  0  0  0  0  0  0  0
    6.5955  -12.7487   25.5380 N   0  0  0  0  0  0  0  0  0  0  0  0
    5.9691  -12.3750   26.7052 C   0  0  0  0  0  0  0  0  0  0  0  0
    4.8914  -13.2088   27.6440 C   0  0  0  0  0  0  0  0  0  0  0  0
    4.9262  -12.7897   28.7614 O   0  0  0  0  0  0  0  0  0  0  0  0
    4.0246  -14.5322   27.0521 N   0  0  0  0  0  0  0  0  0  0  0  0
    3.0716  -15.7089   27.8803 C   0  0  0  0  0  0  0  0  0  0  0  0
    2.0731  -17.3141   28.1956 C   0  0  0  0  0  0  0  0  0  0  0  0
    2.9546  -18.3834   28.8760 C   0  0  0  0  0  0  0  0  0  0  0  0
    0.6735  -17.3038   29.1798 C   0  0  0  0  0  0  0  0  0  0  0  0
    0.0415  -18.5747   29.6456 N   0  0  0  0  0  0  0  0  0  0  0  0
   -1.2207  -18.9846   29.0123 C   0  0  0  0  0  0  0  0  0  0  0  0
   -2.4412  -18.3476   29.6233 C   0  0  0  0  0  0  0  0  0  0  0  0
   -3.3098  -17.4448   28.9142 C   0  0  0  0  0  0  0  0  0  0  0  0
   -4.4014  -17.0454   29.6510 C   0  0  0  0  0  0  0  0  0  0  0  0
   -4.4043  -17.7446   31.1984 S   0  0  0  0  0  0  0  0  0  0  0  0
   -2.9516  -18.6012   30.8873 C   0  0  0  0  0  0  0  0  0  0  0  0
    5.4391  -10.0651   28.5057 H   0  0  0  0  0  0  0  0  0  0  0  0
    6.7861  -10.9611   29.2505 H   0  0  0  0  0  0  0  0  0  0  0  0
    7.0956   -9.4816   28.3350 H   0  0  0  0  0  0  0  0  0  0  0  0
    8.1667  -10.0641   26.1831 H   0  0  0  0  0  0  0  0  0  0  0  0
    8.1385  -11.8362   24.3623 H   0  0  0  0  0  0  0  0  0  0  0  0
    4.1339  -14.5857   26.0445 H   0  0  0  0  0  0  0  0  0  0  0  0
    2.1439  -15.1418   27.8559 H   0  0  0  0  0  0  0  0  0  0  0  0
    3.5283  -16.4226   27.2197 H   0  0  0  0  0  0  0  0  0  0  0  0
    1.7862  -17.7255   27.2412 H   0  0  0  0  0  0  0  0  0  0  0  0
    3.3820  -18.0284   29.8161 H   0  0  0  0  0  0  0  0  0  0  0  0
    3.7444  -18.7327   28.2266 H   0  0  0  0  0  0  0  0  0  0  0  0
    2.3828  -19.2891   29.1019 H   0  0  0  0  0  0  0  0  0  0  0  0
   -0.1180  -16.7213   28.7365 H   0  0  0  0  0  0  0  0  0  0  0  0
    0.9559  -16.7913   30.1047 H   0  0  0  0  0  0  0  0  0  0  0  0
   -0.1130  -18.5211   30.6531 H   0  0  0  0  0  0  0  0  0  0  0  0
   -1.1776  -18.8002   27.9321 H   0  0  0  0  0  0  0  0  0  0  0  0
   -1.3142  -20.0712   29.1307 H   0  0  0  0  0  0  0  0  0  0  0  0
   -3.1444  -17.1124   27.8965 H   0  0  0  0  0  0  0  0  0  0  0  0
   -5.2055  -16.3900   29.3444 H   0  0  0  0  0  0  0  0  0  0  0  0
   -2.5453  -19.2521   31.6503 H   0  0  0  0  0  0  0  0  0  0  0  0
  1  2  1  0
  2  3  1  0
  3  4  1  0
  4  5  2  0
  5  6  1  0
  6  7  1  0
  7  8  2  0
  7  9  1  0
  9 10  1  0
 10 11  1  0
 11 12  1  0
 11 13  1  0
 13 14  1  0
 14 15  1  0
 15 16  1  0
 16 17  1  0
 17 18  2  0
 18 19  1  0
 19 20  1  0
  6  2  2  0
 20 16  2  0
  1 21  1  0
  1 22  1  0
  1 23  1  0
  3 24  1  0
  4 25  1  0
  9 26  1  0
 10 27  1  0
 10 28  1  0
 11 29  1  0
 12 30  1  0
 12 31  1  0
 12 32  1  0
 13 33  1  0
 13 34  1  0
 14 35  1  0
 15 36  1  0
 15 37  1  0
 17 38  1  0
 18 39  1  0
 20 40  1  0
M  END
>  <Energy>  (1679) 
225.49547715220774

>  <compound_id>  (1679) 
8210

>  <target_id>  (1679) 
1

>  <reference_id>  (1679) 
20

>  <inspiration_ids>  (1679) 
[35, 20]

>  <energy_score>  (1679) 
144.69510700066252

>  <distance_score>  (1679) 
13.845216742125183

>  <path>  (1679) 
/opt/xchem-fragalysis-2/maxwin/BulkDock/SCRATCH/511013/C8210-P20/C8210-P20.minimised.mol

>  <scratch_subdir>  (1679) 
/opt/xchem-fragalysis-2/maxwin/BulkDock/SCRATCH/511013/C8210-P20

>  <fragmenstein_runtime>  (1679) 
21.122448444366455

>  <fragmenstein_outcome>  (1679) 
too moved

>  <fragmenstein_mode>  (1679) 
expansion

>  <fragmenstein_error>  (1679) 


$$$$
C8211-P35
     RDKit          3D

 43 44  0  0  0  0  0  0  0  0999 V2000
    8.3766  -11.1141   21.1384 C   0  0  0  0  0  0  0  0  0  0  0  0
    7.0034  -10.4558   21.1620 C   0  0  0  0  0  0  0  0  0  0  0  0
    6.1721  -10.7466   22.3129 N   0  0  0  0  0  0  0  0  0  0  0  0
    6.5555  -11.0203   23.5762 C   0  0  0  0  0  0  0  0  0  0  0  0
    5.5338  -11.7471   24.0597 N   0  0  0  0  0  0  0  0  0  0  0  0
    3.8506  -12.2196   23.1092 C   0  0  0  0  0  0  0  0  0  0  0  0
    2.2008  -12.6299   23.9703 C   0  0  0  0  0  0  0  0  0  0  0  0
    1.9458  -11.8028   24.7116 O   0  0  0  0  0  0  0  0  0  0  0  0
    0.8486  -13.9501   23.7917 N   0  0  0  0  0  0  0  0  0  0  0  0
   -0.9269  -14.1093   24.5852 C   0  0  0  0  0  0  0  0  0  0  0  0
   -2.5261  -14.8224   25.4833 C   0  0  0  0  0  0  0  0  0  0  0  0
   -3.6153  -13.6678   25.6776 C   0  0  0  0  0  0  0  0  0  0  0  0
   -3.4522  -16.0828   25.1682 C   0  0  0  0  0  0  0  0  0  0  0  0
   -4.7309  -16.1694   25.9259 N   0  0  0  0  0  0  0  0  0  0  0  0
   -4.9210  -17.3350   26.7751 C   0  0  0  0  0  0  0  0  0  0  0  0
   -5.5853  -18.4873   26.0499 C   0  0  0  0  0  0  0  0  0  0  0  0
   -7.0002  -18.5742   25.7692 C   0  0  0  0  0  0  0  0  0  0  0  0
   -7.3895  -19.8290   25.3525 C   0  0  0  0  0  0  0  0  0  0  0  0
   -6.0742  -20.9138   25.2702 S   0  0  0  0  0  0  0  0  0  0  0  0
   -4.9718  -19.6934   25.7493 C   0  0  0  0  0  0  0  0  0  0  0  0
    4.5628  -11.0122   22.4012 C   0  0  0  0  0  0  0  0  0  0  0  0
    8.9550  -10.7336   20.2896 H   0  0  0  0  0  0  0  0  0  0  0  0
    8.2934  -12.1962   21.0142 H   0  0  0  0  0  0  0  0  0  0  0  0
    8.9465  -10.9103   22.0498 H   0  0  0  0  0  0  0  0  0  0  0  0
    7.1499   -9.3707   21.1531 H   0  0  0  0  0  0  0  0  0  0  0  0
    6.4711  -10.7694   20.2629 H   0  0  0  0  0  0  0  0  0  0  0  0
    7.5082  -10.8207   24.0459 H   0  0  0  0  0  0  0  0  0  0  0  0
    1.1233  -14.5795   23.0649 H   0  0  0  0  0  0  0  0  0  0  0  0
   -1.4912  -13.2105   24.8467 H   0  0  0  0  0  0  0  0  0  0  0  0
   -0.7061  -13.4638   25.4508 H   0  0  0  0  0  0  0  0  0  0  0  0
   -2.2620  -14.9415   26.5448 H   0  0  0  0  0  0  0  0  0  0  0  0
   -4.4597  -13.7869   24.9984 H   0  0  0  0  0  0  0  0  0  0  0  0
   -4.0418  -13.7349   26.6878 H   0  0  0  0  0  0  0  0  0  0  0  0
   -3.2436  -12.6499   25.5724 H   0  0  0  0  0  0  0  0  0  0  0  0
   -3.7648  -15.9889   24.1264 H   0  0  0  0  0  0  0  0  0  0  0  0
   -2.9000  -17.0082   25.3292 H   0  0  0  0  0  0  0  0  0  0  0  0
   -5.5245  -16.0858   25.2926 H   0  0  0  0  0  0  0  0  0  0  0  0
   -5.5601  -17.0097   27.6018 H   0  0  0  0  0  0  0  0  0  0  0  0
   -3.9643  -17.6286   27.2128 H   0  0  0  0  0  0  0  0  0  0  0  0
   -7.6973  -17.7669   25.9562 H   0  0  0  0  0  0  0  0  0  0  0  0
   -8.3830  -20.1732   25.1100 H   0  0  0  0  0  0  0  0  0  0  0  0
   -3.9281  -19.9458   25.8708 H   0  0  0  0  0  0  0  0  0  0  0  0
    4.5961  -10.1372   23.0663 H   0  0  0  0  0  0  0  0  0  0  0  0
  1  2  1  0
  2  3  1  0
  3  4  1  0
  4  5  2  0
  5  6  1  0
  6  7  1  0
  7  8  2  0
  7  9  1  0
  9 10  1  0
 10 11  1  0
 11 12  1  0
 11 13  1  0
 13 14  1  0
 14 15  1  0
 15 16  1  0
 16 17  1  0
 17 18  2  0
 18 19  1  0
 19 20  1  0
  6 21  2  0
 21  3  1  0
 20 16  2  0
  1 22  1  0
  1 23  1  0
  1 24  1  0
  2 25  1  0
  2 26  1  0
  4 27  1  0
  9 28  1  0
 10 29  1  0
 10 30  1  0
 11 31  1  0
 12 32  1  0
 12 33  1  0
 12 34  1  0
 13 35  1  0
 13 36  1  0
 14 37  1  0
 15 38  1  0
 15 39  1  0
 17 40  1  0
 18 41  1  0
 20 42  1  0
 21 43  1  0
M  END
>  <Energy>  (1680) 
685.57351054549258

>  <compound_id>  (1680) 
8211

>  <target_id>  (1680) 
1

>  <reference_id>  (1680) 
35

>  <inspiration_ids>  (1680) 
[35, 20]

>  <energy_score>  (1680) 
607.221207195957

>  <distance_score>  (1680) 
13.08186726842355

>  <path>  (1680) 
/opt/xchem-fragalysis-2/maxwin/BulkDock/SCRATCH/511013/C8211-P35/C8211-P35.minimised.mol

>  <scratch_subdir>  (1680) 
/opt/xchem-fragalysis-2/maxwin/BulkDock/SCRATCH/511013/C8211-P35

>  <fragmenstein_runtime>  (1680) 
21.43728470802307

>  <fragmenstein_outcome>  (1680) 
too moved

>  <fragmenstein_mode>  (1680) 
expansion

>  <fragmenstein_error>  (1680) 


$$$$
C8211-P20
     RDKit          3D

 43 44  0  0  0  0  0  0  0  0999 V2000
    2.0647  -21.8105   22.9935 C   0  0  0  0  0  0  0  0  0  0  0  0
    3.1634  -21.0623   23.7340 C   0  0  0  0  0  0  0  0  0  0  0  0
    2.7573  -20.5780   25.0372 N   0  0  0  0  0  0  0  0  0  0  0  0
    2.7597  -19.3004   25.4847 C   0  0  0  0  0  0  0  0  0  0  0  0
    2.3252  -19.2093   26.7213 N   0  0  0  0  0  0  0  0  0  0  0  0
    1.9459  -20.4972   27.0994 C   0  0  0  0  0  0  0  0  0  0  0  0
    1.3098  -20.8029   28.4359 C   0  0  0  0  0  0  0  0  0  0  0  0
    1.4567  -19.9933   29.3039 O   0  0  0  0  0  0  0  0  0  0  0  0
    0.6064  -22.0649   28.4353 N   0  0  0  0  0  0  0  0  0  0  0  0
   -0.0621  -22.7913   29.5160 C   0  0  0  0  0  0  0  0  0  0  0  0
   -1.6068  -22.6987   29.4615 C   0  0  0  0  0  0  0  0  0  0  0  0
   -2.1347  -23.3638   28.1799 C   0  0  0  0  0  0  0  0  0  0  0  0
   -2.2970  -23.3131   30.7270 C   0  0  0  0  0  0  0  0  0  0  0  0
   -3.6934  -22.8501   30.7013 N   0  0  0  0  0  0  0  0  0  0  0  0
   -4.4681  -22.6731   32.1155 C   0  0  0  0  0  0  0  0  0  0  0  0
   -5.6575  -21.0861   32.5545 C   0  0  0  0  0  0  0  0  0  0  0  0
   -7.0341  -20.8015   33.3046 C   0  0  0  0  0  0  0  0  0  0  0  0
   -7.3674  -19.4739   33.7920 C   0  0  0  0  0  0  0  0  0  0  0  0
   -6.6695  -18.1677   32.8042 S   0  0  0  0  0  0  0  0  0  0  0  0
   -5.5973  -19.7786   32.1541 C   0  0  0  0  0  0  0  0  0  0  0  0
    2.2847  -21.3551   26.0627 C   0  0  0  0  0  0  0  0  0  0  0  0
    1.1636  -21.1982   22.8887 H   0  0  0  0  0  0  0  0  0  0  0  0
    2.4080  -22.0906   21.9927 H   0  0  0  0  0  0  0  0  0  0  0  0
    1.7831  -22.7285   23.5195 H   0  0  0  0  0  0  0  0  0  0  0  0
    4.0274  -21.7170   23.8949 H   0  0  0  0  0  0  0  0  0  0  0  0
    3.4989  -20.2169   23.1308 H   0  0  0  0  0  0  0  0  0  0  0  0
    3.0636  -18.4663   24.8804 H   0  0  0  0  0  0  0  0  0  0  0  0
    0.7593  -22.5267   27.5508 H   0  0  0  0  0  0  0  0  0  0  0  0
    0.2987  -22.3665   30.4590 H   0  0  0  0  0  0  0  0  0  0  0  0
    0.2677  -23.8339   29.4597 H   0  0  0  0  0  0  0  0  0  0  0  0
   -1.8426  -21.6272   29.4038 H   0  0  0  0  0  0  0  0  0  0  0  0
   -1.8858  -24.4303   28.1610 H   0  0  0  0  0  0  0  0  0  0  0  0
   -3.2218  -23.2708   28.0950 H   0  0  0  0  0  0  0  0  0  0  0  0
   -1.7027  -22.9003   27.2870 H   0  0  0  0  0  0  0  0  0  0  0  0
   -2.2388  -24.4033   30.6843 H   0  0  0  0  0  0  0  0  0  0  0  0
   -1.7557  -22.9926   31.6236 H   0  0  0  0  0  0  0  0  0  0  0  0
   -3.5440  -21.8504   30.5554 H   0  0  0  0  0  0  0  0  0  0  0  0
   -3.6342  -22.9072   32.8077 H   0  0  0  0  0  0  0  0  0  0  0  0
   -5.1578  -23.5188   31.9252 H   0  0  0  0  0  0  0  0  0  0  0  0
   -7.7912  -21.5611   33.4803 H   0  0  0  0  0  0  0  0  0  0  0  0
   -8.2016  -19.1512   34.3671 H   0  0  0  0  0  0  0  0  0  0  0  0
   -6.0596  -19.6435   31.2439 H   0  0  0  0  0  0  0  0  0  0  0  0
    2.2074  -22.4273   25.9584 H   0  0  0  0  0  0  0  0  0  0  0  0
  1  2  1  0
  2  3  1  0
  3  4  1  0
  4  5  2  0
  5  6  1  0
  6  7  1  0
  7  8  2  0
  7  9  1  0
  9 10  1  0
 10 11  1  0
 11 12  1  0
 11 13  1  0
 13 14  1  0
 14 15  1  0
 15 16  1  0
 16 17  1  0
 17 18  2  0
 18 19  1  0
 19 20  1  0
  6 21  2  0
 21  3  1  0
 20 16  2  0
  1 22  1  0
  1 23  1  0
  1 24  1  0
  2 25  1  0
  2 26  1  0
  4 27  1  0
  9 28  1  0
 10 29  1  0
 10 30  1  0
 11 31  1  0
 12 32  1  0
 12 33  1  0
 12 34  1  0
 13 35  1  0
 13 36  1  0
 14 37  1  0
 15 38  1  0
 15 39  1  0
 17 40  1  0
 18 41  1  0
 20 42  1  0
 21 43  1  0
M  END
>  <Energy>  (1681) 
235.07621100356636

>  <compound_id>  (1681) 
8211

>  <target_id>  (1681) 
1

>  <reference_id>  (1681) 
20

>  <inspiration_ids>  (1681) 
[35, 20]

>  <energy_score>  (1681) 
156.72390765403765

>  <distance_score>  (1681) 
17.179995617349892

>  <path>  (1681) 
/opt/xchem-fragalysis-2/maxwin/BulkDock/SCRATCH/511013/C8211-P20/C8211-P20.minimised.mol

>  <scratch_subdir>  (1681) 
/opt/xchem-fragalysis-2/maxwin/BulkDock/SCRATCH/511013/C8211-P20

>  <fragmenstein_runtime>  (1681) 
37.8137526512146

>  <fragmenstein_outcome>  (1681) 
too moved

>  <fragmenstein_mode>  (1681) 
expansion

>  <fragmenstein_error>  (1681) 


$$$$
C8212-P35
     RDKit          3D

 40 41  0  0  0  0  0  0  0  0999 V2000
    5.9782  -10.2728   20.5834 C   0  0  0  0  0  0  0  0  0  0  0  0
    5.0374  -11.2855   21.0952 C   0  0  0  0  0  0  0  0  0  0  0  0
    4.2001  -11.2098   22.1833 N   0  0  0  0  0  0  0  0  0  0  0  0
    3.2361  -12.5775   22.4315 C   0  0  0  0  0  0  0  0  0  0  0  0
    2.2194  -12.5542   23.9660 C   0  0  0  0  0  0  0  0  0  0  0  0
    2.4618  -11.6487   24.5233 O   0  0  0  0  0  0  0  0  0  0  0  0
    1.0800  -13.6328   24.9731 N   0  0  0  0  0  0  0  0  0  0  0  0
    0.4865  -13.5175   26.6454 C   0  0  0  0  0  0  0  0  0  0  0  0
   -0.9552  -14.8099   27.7649 C   0  0  0  0  0  0  0  0  0  0  0  0
   -0.7501  -16.4371   28.5787 C   0  0  0  0  0  0  0  0  0  0  0  0
   -2.6484  -14.6905   28.4954 C   0  0  0  0  0  0  0  0  0  0  0  0
   -3.1477  -14.1772   29.7727 N   0  0  0  0  0  0  0  0  0  0  0  0
   -2.7289  -14.7720   31.0330 C   0  0  0  0  0  0  0  0  0  0  0  0
   -3.8444  -14.5378   32.0111 C   0  0  0  0  0  0  0  0  0  0  0  0
   -5.2185  -14.8339   31.7477 C   0  0  0  0  0  0  0  0  0  0  0  0
   -6.0597  -14.4426   32.7595 C   0  0  0  0  0  0  0  0  0  0  0  0
   -5.2133  -13.7103   34.0433 S   0  0  0  0  0  0  0  0  0  0  0  0
   -3.7123  -13.9711   33.2637 C   0  0  0  0  0  0  0  0  0  0  0  0
    3.6201  -13.2187   21.1347 C   0  0  0  0  0  0  0  0  0  0  0  0
    4.8477  -12.5913   20.5111 N   0  0  0  0  0  0  0  0  0  0  0  0
    6.4711   -9.7585   21.4137 H   0  0  0  0  0  0  0  0  0  0  0  0
    6.7511  -10.7288   19.9576 H   0  0  0  0  0  0  0  0  0  0  0  0
    5.4413   -9.5287   19.9881 H   0  0  0  0  0  0  0  0  0  0  0  0
    0.7907  -14.4172   24.3857 H   0  0  0  0  0  0  0  0  0  0  0  0
    1.4040  -14.1309   26.7404 H   0  0  0  0  0  0  0  0  0  0  0  0
    0.8100  -12.4946   26.9496 H   0  0  0  0  0  0  0  0  0  0  0  0
   -1.7006  -15.0178   26.9377 H   0  0  0  0  0  0  0  0  0  0  0  0
   -1.1059  -16.3820   29.6058 H   0  0  0  0  0  0  0  0  0  0  0  0
    0.2900  -16.8005   28.6282 H   0  0  0  0  0  0  0  0  0  0  0  0
   -1.3516  -17.1657   28.0223 H   0  0  0  0  0  0  0  0  0  0  0  0
   -3.0302  -15.7208   28.4420 H   0  0  0  0  0  0  0  0  0  0  0  0
   -3.2763  -14.2093   27.7285 H   0  0  0  0  0  0  0  0  0  0  0  0
   -2.9377  -13.1782   29.8275 H   0  0  0  0  0  0  0  0  0  0  0  0
   -1.8144  -14.2884   31.3949 H   0  0  0  0  0  0  0  0  0  0  0  0
   -2.4903  -15.8269   30.9682 H   0  0  0  0  0  0  0  0  0  0  0  0
   -5.5487  -15.2688   30.8150 H   0  0  0  0  0  0  0  0  0  0  0  0
   -7.1345  -14.5220   32.7950 H   0  0  0  0  0  0  0  0  0  0  0  0
   -2.8023  -13.6414   33.7450 H   0  0  0  0  0  0  0  0  0  0  0  0
    3.0985  -13.9536   20.5387 H   0  0  0  0  0  0  0  0  0  0  0  0
    5.2242  -12.8921   19.6234 H   0  0  0  0  0  0  0  0  0  0  0  0
  1  2  1  0
  2  3  2  0
  3  4  1  0
  4  5  1  0
  5  6  2  0
  5  7  1  0
  7  8  1  0
  8  9  1  0
  9 10  1  0
  9 11  1  0
 11 12  1  0
 12 13  1  0
 13 14  1  0
 14 15  1  0
 15 16  2  0
 16 17  1  0
 17 18  1  0
  4 19  2  0
 19 20  1  0
 20  2  1  0
 18 14  2  0
  1 21  1  0
  1 22  1  0
  1 23  1  0
  7 24  1  0
  8 25  1  0
  8 26  1  0
  9 27  1  0
 10 28  1  0
 10 29  1  0
 10 30  1  0
 11 31  1  0
 11 32  1  0
 12 33  1  0
 13 34  1  0
 13 35  1  0
 15 36  1  0
 16 37  1  0
 18 38  1  0
 19 39  1  0
 20 40  1  0
M  END
>  <Energy>  (1682) 
560.82731369082012

>  <compound_id>  (1682) 
8212

>  <target_id>  (1682) 
1

>  <reference_id>  (1682) 
35

>  <inspiration_ids>  (1682) 
[35, 20]

>  <energy_score>  (1682) 
508.70642343863653

>  <distance_score>  (1682) 
13.575423584117738

>  <path>  (1682) 
/opt/xchem-fragalysis-2/maxwin/BulkDock/SCRATCH/511013/C8212-P35/C8212-P35.minimised.mol

>  <scratch_subdir>  (1682) 
/opt/xchem-fragalysis-2/maxwin/BulkDock/SCRATCH/511013/C8212-P35

>  <fragmenstein_runtime>  (1682) 
18.747883081436157

>  <fragmenstein_outcome>  (1682) 
too moved

>  <fragmenstein_mode>  (1682) 
expansion

>  <fragmenstein_error>  (1682) 


$$$$
C8212-P20
     RDKit          3D

 40 41  0  0  0  0  0  0  0  0999 V2000
    5.9105  -12.9323   26.1587 C   0  0  0  0  0  0  0  0  0  0  0  0
    4.6747  -14.0016   25.6514 C   0  0  0  0  0  0  0  0  0  0  0  0
    3.4540  -14.0324   26.0166 N   0  0  0  0  0  0  0  0  0  0  0  0
    2.5813  -13.3345   24.7152 C   0  0  0  0  0  0  0  0  0  0  0  0
    1.0110  -13.5873   25.3413 C   0  0  0  0  0  0  0  0  0  0  0  0
    0.9934  -13.3311   26.5244 O   0  0  0  0  0  0  0  0  0  0  0  0
   -0.3952  -14.2362   24.3114 N   0  0  0  0  0  0  0  0  0  0  0  0
   -2.0331  -14.5101   24.7280 C   0  0  0  0  0  0  0  0  0  0  0  0
   -2.8830  -15.8321   24.3383 C   0  0  0  0  0  0  0  0  0  0  0  0
   -3.4284  -15.6549   22.9179 C   0  0  0  0  0  0  0  0  0  0  0  0
   -4.0527  -16.1833   25.3787 C   0  0  0  0  0  0  0  0  0  0  0  0
   -4.6868  -17.5039   25.1326 N   0  0  0  0  0  0  0  0  0  0  0  0
   -5.7851  -17.8080   26.0601 C   0  0  0  0  0  0  0  0  0  0  0  0
   -6.3029  -19.2189   25.8302 C   0  0  0  0  0  0  0  0  0  0  0  0
   -5.5115  -20.4098   25.6803 C   0  0  0  0  0  0  0  0  0  0  0  0
   -6.2613  -21.5678   25.6608 C   0  0  0  0  0  0  0  0  0  0  0  0
   -7.9304  -21.2486   25.7933 S   0  0  0  0  0  0  0  0  0  0  0  0
   -7.6449  -19.5638   25.8802 C   0  0  0  0  0  0  0  0  0  0  0  0
    3.2940  -14.0246   23.8008 C   0  0  0  0  0  0  0  0  0  0  0  0
    4.3762  -14.7425   24.5407 N   0  0  0  0  0  0  0  0  0  0  0  0
    6.1031  -12.1495   25.4226 H   0  0  0  0  0  0  0  0  0  0  0  0
    6.8976  -13.3747   26.3585 H   0  0  0  0  0  0  0  0  0  0  0  0
    5.6459  -12.4909   27.1264 H   0  0  0  0  0  0  0  0  0  0  0  0
   -0.1214  -14.2730   23.3445 H   0  0  0  0  0  0  0  0  0  0  0  0
   -2.1292  -14.3826   25.8029 H   0  0  0  0  0  0  0  0  0  0  0  0
   -2.6217  -13.6832   24.3597 H   0  0  0  0  0  0  0  0  0  0  0  0
   -2.2443  -16.7089   24.3119 H   0  0  0  0  0  0  0  0  0  0  0  0
   -3.8965  -16.5738   22.5524 H   0  0  0  0  0  0  0  0  0  0  0  0
   -2.6191  -15.4010   22.2248 H   0  0  0  0  0  0  0  0  0  0  0  0
   -4.1748  -14.8547   22.8786 H   0  0  0  0  0  0  0  0  0  0  0  0
   -4.8086  -15.3906   25.3320 H   0  0  0  0  0  0  0  0  0  0  0  0
   -3.6210  -16.1849   26.3861 H   0  0  0  0  0  0  0  0  0  0  0  0
   -5.0525  -17.5490   24.1841 H   0  0  0  0  0  0  0  0  0  0  0  0
   -6.5996  -17.0883   25.9139 H   0  0  0  0  0  0  0  0  0  0  0  0
   -5.4184  -17.6946   27.0778 H   0  0  0  0  0  0  0  0  0  0  0  0
   -4.4291  -20.4052   25.6291 H   0  0  0  0  0  0  0  0  0  0  0  0
   -5.9040  -22.5846   25.5739 H   0  0  0  0  0  0  0  0  0  0  0  0
   -8.4658  -18.8827   26.0324 H   0  0  0  0  0  0  0  0  0  0  0  0
    3.0295  -14.3152   22.8268 H   0  0  0  0  0  0  0  0  0  0  0  0
    5.1290  -15.2952   24.1979 H   0  0  0  0  0  0  0  0  0  0  0  0
  1  2  1  0
  2  3  2  0
  3  4  1  0
  4  5  1  0
  5  6  2  0
  5  7  1  0
  7  8  1  0
  8  9  1  0
  9 10  1  0
  9 11  1  0
 11 12  1  0
 12 13  1  0
 13 14  1  0
 14 15  1  0
 15 16  2  0
 16 17  1  0
 17 18  1  0
  4 19  2  0
 19 20  1  0
 20  2  1  0
 18 14  2  0
  1 21  1  0
  1 22  1  0
  1 23  1  0
  7 24  1  0
  8 25  1  0
  8 26  1  0
  9 27  1  0
 10 28  1  0
 10 29  1  0
 10 30  1  0
 11 31  1  0
 11 32  1  0
 12 33  1  0
 13 34  1  0
 13 35  1  0
 15 36  1  0
 16 37  1  0
 18 38  1  0
 19 39  1  0
 20 40  1  0
M  END
>  <Energy>  (1683) 
273.04820077116347

>  <compound_id>  (1683) 
8212

>  <target_id>  (1683) 
1

>  <reference_id>  (1683) 
20

>  <inspiration_ids>  (1683) 
[35, 20]

>  <energy_score>  (1683) 
220.9273105189842

>  <distance_score>  (1683) 
14.58111068800315

>  <path>  (1683) 
/opt/xchem-fragalysis-2/maxwin/BulkDock/SCRATCH/511013/C8212-P20/C8212-P20.minimised.mol

>  <scratch_subdir>  (1683) 
/opt/xchem-fragalysis-2/maxwin/BulkDock/SCRATCH/511013/C8212-P20

>  <fragmenstein_runtime>  (1683) 
22.138570547103882

>  <fragmenstein_outcome>  (1683) 
too moved

>  <fragmenstein_mode>  (1683) 
expansion

>  <fragmenstein_error>  (1683) 


$$$$
C8215-P35
     RDKit          3D

 40 41  0  0  0  0  0  0  0  0999 V2000
   -4.7317  -14.6462   22.6443 C   0  0  0  0  0  0  0  0  0  0  0  0
   -5.0308  -13.2252   23.1685 C   0  0  0  0  0  0  0  0  0  0  0  0
   -4.1409  -12.3793   24.3727 C   0  0  0  0  0  0  0  0  0  0  0  0
   -2.3871  -13.0766   25.1816 C   0  0  0  0  0  0  0  0  0  0  0  0
   -0.9187  -14.0044   24.1765 N   0  0  0  0  0  0  0  0  0  0  0  0
    0.2056  -13.3909   22.8182 C   0  0  0  0  0  0  0  0  0  0  0  0
    0.1439  -12.2794   22.2541 O   0  0  0  0  0  0  0  0  0  0  0  0
    1.4086  -14.1803   22.2737 C   0  0  0  0  0  0  0  0  0  0  0  0
    2.4545  -13.2644   21.6029 N   0  0  0  0  0  0  0  0  0  0  0  0
    2.3858  -12.6473   20.3710 C   0  0  0  0  0  0  0  0  0  0  0  0
    3.5704  -11.9571   20.2202 C   0  0  0  0  0  0  0  0  0  0  0  0
    4.3978  -12.1803   21.2881 N   0  0  0  0  0  0  0  0  0  0  0  0
    3.7053  -12.9616   22.0952 C   0  0  0  0  0  0  0  0  0  0  0  0
   -5.4784  -11.5125   24.9671 N   0  0  0  0  0  0  0  0  0  0  0  0
   -6.5957  -11.8929   25.9672 C   0  0  0  0  0  0  0  0  0  0  0  0
   -7.5405  -13.0844   25.7162 C   0  0  0  0  0  0  0  0  0  0  0  0
   -8.3545  -13.3186   24.5538 C   0  0  0  0  0  0  0  0  0  0  0  0
   -9.0220  -14.5279   24.5729 C   0  0  0  0  0  0  0  0  0  0  0  0
   -8.7256  -15.3933   26.0036 S   0  0  0  0  0  0  0  0  0  0  0  0
   -7.8233  -14.0838   26.6475 C   0  0  0  0  0  0  0  0  0  0  0  0
   -4.5388  -15.3806   23.4263 H   0  0  0  0  0  0  0  0  0  0  0  0
   -3.9086  -14.6914   21.9278 H   0  0  0  0  0  0  0  0  0  0  0  0
   -5.6120  -15.0027   22.0950 H   0  0  0  0  0  0  0  0  0  0  0  0
   -6.0801  -13.2509   23.4559 H   0  0  0  0  0  0  0  0  0  0  0  0
   -5.0747  -12.5498   22.2979 H   0  0  0  0  0  0  0  0  0  0  0  0
   -3.8868  -11.4650   23.8678 H   0  0  0  0  0  0  0  0  0  0  0  0
   -2.1117  -12.1630   25.6666 H   0  0  0  0  0  0  0  0  0  0  0  0
   -2.5161  -13.8397   25.9516 H   0  0  0  0  0  0  0  0  0  0  0  0
   -0.7093  -14.9259   24.3810 H   0  0  0  0  0  0  0  0  0  0  0  0
    1.0651  -14.7946   21.4354 H   0  0  0  0  0  0  0  0  0  0  0  0
    2.0346  -14.6879   22.9665 H   0  0  0  0  0  0  0  0  0  0  0  0
    1.5009  -12.7101   19.7551 H   0  0  0  0  0  0  0  0  0  0  0  0
    3.8668  -11.3223   19.3966 H   0  0  0  0  0  0  0  0  0  0  0  0
    4.0490  -13.3394   23.0487 H   0  0  0  0  0  0  0  0  0  0  0  0
   -5.9689  -11.1781   24.1348 H   0  0  0  0  0  0  0  0  0  0  0  0
   -7.2444  -11.0061   25.9913 H   0  0  0  0  0  0  0  0  0  0  0  0
   -6.1879  -11.9429   26.9777 H   0  0  0  0  0  0  0  0  0  0  0  0
   -8.4033  -12.6445   23.7069 H   0  0  0  0  0  0  0  0  0  0  0  0
   -9.6521  -14.9438   23.7986 H   0  0  0  0  0  0  0  0  0  0  0  0
   -7.4672  -14.1562   27.6637 H   0  0  0  0  0  0  0  0  0  0  0  0
  1  2  1  0
  2  3  1  0
  3  4  1  0
  4  5  1  0
  5  6  1  0
  6  7  2  0
  6  8  1  0
  8  9  1  0
  9 10  1  0
 10 11  2  0
 11 12  1  0
 12 13  2  0
  3 14  1  0
 14 15  1  0
 15 16  1  0
 16 17  1  0
 17 18  2  0
 18 19  1  0
 19 20  1  0
 13  9  1  0
 20 16  2  0
  1 21  1  0
  1 22  1  0
  1 23  1  0
  2 24  1  0
  2 25  1  0
  3 26  1  0
  4 27  1  0
  4 28  1  0
  5 29  1  0
  8 30  1  0
  8 31  1  0
 10 32  1  0
 11 33  1  0
 13 34  1  0
 14 35  1  0
 15 36  1  0
 15 37  1  0
 17 38  1  0
 18 39  1  0
 20 40  1  0
M  END
>  <Energy>  (1684) 
336.05573688943554

>  <compound_id>  (1684) 
8215

>  <target_id>  (1684) 
1

>  <reference_id>  (1684) 
35

>  <inspiration_ids>  (1684) 
[35, 20]

>  <energy_score>  (1684) 
263.4082468137399

>  <distance_score>  (1684) 
14.73686891777699

>  <path>  (1684) 
/opt/xchem-fragalysis-2/maxwin/BulkDock/SCRATCH/511013/C8215-P35/C8215-P35.minimised.mol

>  <scratch_subdir>  (1684) 
/opt/xchem-fragalysis-2/maxwin/BulkDock/SCRATCH/511013/C8215-P35

>  <fragmenstein_runtime>  (1684) 
20.200063705444336

>  <fragmenstein_outcome>  (1684) 
too moved

>  <fragmenstein_mode>  (1684) 
expansion

>  <fragmenstein_error>  (1684) 


$$$$
C8215-P20
     RDKit          3D

 40 41  0  0  0  0  0  0  0  0999 V2000
   -5.0821  -20.2001   32.0894 C   0  0  0  0  0  0  0  0  0  0  0  0
   -3.7062  -20.6587   31.4955 C   0  0  0  0  0  0  0  0  0  0  0  0
   -2.1907  -20.9155   31.7492 C   0  0  0  0  0  0  0  0  0  0  0  0
   -0.5617  -19.7270   31.3251 C   0  0  0  0  0  0  0  0  0  0  0  0
    0.1578  -18.7641   29.8191 N   0  0  0  0  0  0  0  0  0  0  0  0
    1.1708  -17.1888   29.7004 C   0  0  0  0  0  0  0  0  0  0  0  0
    1.4199  -16.5182   30.6624 O   0  0  0  0  0  0  0  0  0  0  0  0
    2.1809  -16.4243   28.0063 C   0  0  0  0  0  0  0  0  0  0  0  0
    3.6166  -15.1346   27.4052 N   0  0  0  0  0  0  0  0  0  0  0  0
    4.1797  -14.7164   25.8060 C   0  0  0  0  0  0  0  0  0  0  0  0
    5.0855  -13.6793   25.5847 C   0  0  0  0  0  0  0  0  0  0  0  0
    5.3070  -13.1073   26.8172 N   0  0  0  0  0  0  0  0  0  0  0  0
    4.4379  -13.7286   27.7041 C   0  0  0  0  0  0  0  0  0  0  0  0
   -2.7023  -22.6972   31.8890 N   0  0  0  0  0  0  0  0  0  0  0  0
   -4.5001  -23.3451   31.7656 C   0  0  0  0  0  0  0  0  0  0  0  0
   -6.2764  -24.1678   32.3784 C   0  0  0  0  0  0  0  0  0  0  0  0
   -7.9148  -23.1600   32.7905 C   0  0  0  0  0  0  0  0  0  0  0  0
   -9.2267  -23.6566   32.8820 C   0  0  0  0  0  0  0  0  0  0  0  0
   -9.2374  -25.1075   32.0868 S   0  0  0  0  0  0  0  0  0  0  0  0
   -7.4926  -25.2281   32.3406 C   0  0  0  0  0  0  0  0  0  0  0  0
   -5.6883  -20.8993   32.6637 H   0  0  0  0  0  0  0  0  0  0  0  0
   -5.0981  -19.2696   32.5955 H   0  0  0  0  0  0  0  0  0  0  0  0
   -5.7978  -20.0224   31.3379 H   0  0  0  0  0  0  0  0  0  0  0  0
   -3.9387  -21.3590   32.2561 H   0  0  0  0  0  0  0  0  0  0  0  0
   -3.8579  -21.1402   30.5319 H   0  0  0  0  0  0  0  0  0  0  0  0
   -2.0331  -20.8082   32.8312 H   0  0  0  0  0  0  0  0  0  0  0  0
   -0.2820  -20.5962   30.7291 H   0  0  0  0  0  0  0  0  0  0  0  0
   -1.2210  -18.8939   31.4862 H   0  0  0  0  0  0  0  0  0  0  0  0
    0.0052  -19.0974   28.9587 H   0  0  0  0  0  0  0  0  0  0  0  0
    1.5166  -15.6063   27.8340 H   0  0  0  0  0  0  0  0  0  0  0  0
    2.4416  -17.1716   27.2586 H   0  0  0  0  0  0  0  0  0  0  0  0
    4.1996  -15.4020   25.0019 H   0  0  0  0  0  0  0  0  0  0  0  0
    5.6245  -13.4011   24.6893 H   0  0  0  0  0  0  0  0  0  0  0  0
    4.6544  -13.4446   28.7151 H   0  0  0  0  0  0  0  0  0  0  0  0
   -2.4237  -22.9302   32.8497 H   0  0  0  0  0  0  0  0  0  0  0  0
   -4.3053  -23.5266   30.7183 H   0  0  0  0  0  0  0  0  0  0  0  0
   -3.9037  -23.9179   32.4537 H   0  0  0  0  0  0  0  0  0  0  0  0
   -7.8555  -22.0672   32.9817 H   0  0  0  0  0  0  0  0  0  0  0  0
  -10.1339  -23.1214   33.1247 H   0  0  0  0  0  0  0  0  0  0  0  0
   -7.5614  -26.0557   33.0501 H   0  0  0  0  0  0  0  0  0  0  0  0
  1  2  1  0
  2  3  1  0
  3  4  1  0
  4  5  1  0
  5  6  1  0
  6  7  2  0
  6  8  1  0
  8  9  1  0
  9 10  1  0
 10 11  2  0
 11 12  1  0
 12 13  2  0
  3 14  1  0
 14 15  1  0
 15 16  1  0
 16 17  1  0
 17 18  2  0
 18 19  1  0
 19 20  1  0
 13  9  1  0
 20 16  2  0
  1 21  1  0
  1 22  1  0
  1 23  1  0
  2 24  1  0
  2 25  1  0
  3 26  1  0
  4 27  1  0
  4 28  1  0
  5 29  1  0
  8 30  1  0
  8 31  1  0
 10 32  1  0
 11 33  1  0
 13 34  1  0
 14 35  1  0
 15 36  1  0
 15 37  1  0
 17 38  1  0
 18 39  1  0
 20 40  1  0
M  END
>  <Energy>  (1685) 
1195.7371849702549

>  <compound_id>  (1685) 
8215

>  <target_id>  (1685) 
1

>  <reference_id>  (1685) 
20

>  <inspiration_ids>  (1685) 
[35, 20]

>  <energy_score>  (1685) 
1123.0896948945556

>  <distance_score>  (1685) 
14.031005748688935

>  <path>  (1685) 
/opt/xchem-fragalysis-2/maxwin/BulkDock/SCRATCH/511013/C8215-P20/C8215-P20.minimised.mol

>  <scratch_subdir>  (1685) 
/opt/xchem-fragalysis-2/maxwin/BulkDock/SCRATCH/511013/C8215-P20

>  <fragmenstein_runtime>  (1685) 
21.287041187286377

>  <fragmenstein_outcome>  (1685) 
too moved

>  <fragmenstein_mode>  (1685) 
expansion

>  <fragmenstein_error>  (1685) 


$$$$
C8216-P35
     RDKit          3D

 49 50  0  0  0  0  0  0  0  0999 V2000
   -2.5994  -19.6829   26.7045 C   0  0  0  0  0  0  0  0  0  0  0  0
   -1.9060  -18.0810   26.7011 C   0  0  0  0  0  0  0  0  0  0  0  0
   -2.5354  -16.4981   27.1218 C   0  0  0  0  0  0  0  0  0  0  0  0
   -2.2838  -15.2915   25.3610 C   0  0  0  0  0  0  0  0  0  0  0  0
   -0.9703  -13.9115   24.9153 N   0  0  0  0  0  0  0  0  0  0  0  0
    0.7080  -13.9682   23.9732 C   0  0  0  0  0  0  0  0  0  0  0  0
    1.2460  -14.8603   23.3754 O   0  0  0  0  0  0  0  0  0  0  0  0
    1.9577  -12.4227   24.0394 C   0  0  0  0  0  0  0  0  0  0  0  0
    3.3020  -12.3041   22.7311 N   0  0  0  0  0  0  0  0  0  0  0  0
    3.3394  -11.2768   21.7499 C   0  0  0  0  0  0  0  0  0  0  0  0
    4.6079  -11.1906   21.2474 C   0  0  0  0  0  0  0  0  0  0  0  0
    5.4057  -12.0974   21.8575 N   0  0  0  0  0  0  0  0  0  0  0  0
    4.6398  -12.7957   22.6959 C   0  0  0  0  0  0  0  0  0  0  0  0
    5.2258  -13.9077   23.5000 C   0  0  0  0  0  0  0  0  0  0  0  0
    5.6305  -15.0636   22.5794 C   0  0  0  0  0  0  0  0  0  0  0  0
    6.4490  -13.4501   24.2985 C   0  0  0  0  0  0  0  0  0  0  0  0
   -3.5664  -16.2383   28.8559 N   0  0  0  0  0  0  0  0  0  0  0  0
   -5.2720  -16.4429   29.9023 C   0  0  0  0  0  0  0  0  0  0  0  0
   -5.9107  -16.8701   31.7917 C   0  0  0  0  0  0  0  0  0  0  0  0
   -6.9308  -16.2204   33.0040 C   0  0  0  0  0  0  0  0  0  0  0  0
   -7.5134  -16.7975   34.1025 C   0  0  0  0  0  0  0  0  0  0  0  0
   -7.5133  -18.4107   33.8622 S   0  0  0  0  0  0  0  0  0  0  0  0
   -6.1612  -18.1169   32.4385 C   0  0  0  0  0  0  0  0  0  0  0  0
   -1.9236  -20.4597   27.0988 H   0  0  0  0  0  0  0  0  0  0  0  0
   -2.8505  -20.0334   25.6975 H   0  0  0  0  0  0  0  0  0  0  0  0
   -3.4942  -19.8043   27.3123 H   0  0  0  0  0  0  0  0  0  0  0  0
   -1.9443  -17.9230   25.6467 H   0  0  0  0  0  0  0  0  0  0  0  0
   -0.8407  -18.1368   26.9434 H   0  0  0  0  0  0  0  0  0  0  0  0
   -3.4099  -16.9901   26.8101 H   0  0  0  0  0  0  0  0  0  0  0  0
   -2.8923  -15.5513   24.5126 H   0  0  0  0  0  0  0  0  0  0  0  0
   -2.5708  -14.4515   25.9952 H   0  0  0  0  0  0  0  0  0  0  0  0
   -1.1015  -13.0477   25.3753 H   0  0  0  0  0  0  0  0  0  0  0  0
    1.5635  -11.7102   23.3591 H   0  0  0  0  0  0  0  0  0  0  0  0
    2.7877  -12.9905   24.4037 H   0  0  0  0  0  0  0  0  0  0  0  0
    2.4553  -10.7237   21.4854 H   0  0  0  0  0  0  0  0  0  0  0  0
    4.9787  -10.5221   20.4837 H   0  0  0  0  0  0  0  0  0  0  0  0
    4.4857  -14.2892   24.2057 H   0  0  0  0  0  0  0  0  0  0  0  0
    5.9547  -15.9299   23.1659 H   0  0  0  0  0  0  0  0  0  0  0  0
    4.7998  -15.3776   21.9416 H   0  0  0  0  0  0  0  0  0  0  0  0
    6.4563  -14.7792   21.9166 H   0  0  0  0  0  0  0  0  0  0  0  0
    6.8351  -14.2699   24.9141 H   0  0  0  0  0  0  0  0  0  0  0  0
    7.2600  -13.1168   23.6406 H   0  0  0  0  0  0  0  0  0  0  0  0
    6.2097  -12.6186   24.9659 H   0  0  0  0  0  0  0  0  0  0  0  0
   -4.1904  -16.5911   28.1981 H   0  0  0  0  0  0  0  0  0  0  0  0
   -5.8677  -15.5496   29.7204 H   0  0  0  0  0  0  0  0  0  0  0  0
   -5.7333  -17.2501   29.3668 H   0  0  0  0  0  0  0  0  0  0  0  0
   -7.5862  -15.3626   32.8063 H   0  0  0  0  0  0  0  0  0  0  0  0
   -8.1579  -16.3583   34.8465 H   0  0  0  0  0  0  0  0  0  0  0  0
   -5.7793  -19.1165   32.2400 H   0  0  0  0  0  0  0  0  0  0  0  0
  1  2  1  0
  2  3  1  0
  3  4  1  0
  4  5  1  0
  5  6  1  0
  6  7  2  0
  6  8  1  0
  8  9  1  0
  9 10  1  0
 10 11  2  0
 11 12  1  0
 12 13  2  0
 13 14  1  0
 14 15  1  0
 14 16  1  0
  3 17  1  0
 17 18  1  0
 18 19  1  0
 19 20  1  0
 20 21  2  0
 21 22  1  0
 22 23  1  0
 13  9  1  0
 23 19  2  0
  1 24  1  0
  1 25  1  0
  1 26  1  0
  2 27  1  0
  2 28  1  0
  3 29  1  0
  4 30  1  0
  4 31  1  0
  5 32  1  0
  8 33  1  0
  8 34  1  0
 10 35  1  0
 11 36  1  0
 14 37  1  0
 15 38  1  0
 15 39  1  0
 15 40  1  0
 16 41  1  0
 16 42  1  0
 16 43  1  0
 17 44  1  0
 18 45  1  0
 18 46  1  0
 20 47  1  0
 21 48  1  0
 23 49  1  0
M  END
>  <Energy>  (1686) 
939.71627014680848

>  <compound_id>  (1686) 
8216

>  <target_id>  (1686) 
1

>  <reference_id>  (1686) 
35

>  <inspiration_ids>  (1686) 
[35, 20]

>  <energy_score>  (1686) 
858.2362032775549

>  <distance_score>  (1686) 
12.474382633378271

>  <path>  (1686) 
/opt/xchem-fragalysis-2/maxwin/BulkDock/SCRATCH/511013/C8216-P35/C8216-P35.minimised.mol

>  <scratch_subdir>  (1686) 
/opt/xchem-fragalysis-2/maxwin/BulkDock/SCRATCH/511013/C8216-P35

>  <fragmenstein_runtime>  (1686) 
27.00137448310852

>  <fragmenstein_outcome>  (1686) 
too moved

>  <fragmenstein_mode>  (1686) 
expansion

>  <fragmenstein_error>  (1686) 


$$$$
C8216-P20
     RDKit          3D

 49 50  0  0  0  0  0  0  0  0999 V2000
   -5.5187  -16.5806   31.9894 C   0  0  0  0  0  0  0  0  0  0  0  0
   -5.4247  -15.8669   30.0760 C   0  0  0  0  0  0  0  0  0  0  0  0
   -3.8626  -16.3051   28.9676 C   0  0  0  0  0  0  0  0  0  0  0  0
   -2.4826  -15.0641   27.7692 C   0  0  0  0  0  0  0  0  0  0  0  0
   -1.4715  -14.4218   26.1169 N   0  0  0  0  0  0  0  0  0  0  0  0
    0.3960  -13.4485   25.9490 C   0  0  0  0  0  0  0  0  0  0  0  0
    0.9459  -13.0846   26.9466 O   0  0  0  0  0  0  0  0  0  0  0  0
    1.6547  -13.1675   24.4013 C   0  0  0  0  0  0  0  0  0  0  0  0
    3.3201  -13.3793   23.8149 N   0  0  0  0  0  0  0  0  0  0  0  0
    3.6919  -12.6484   22.6232 C   0  0  0  0  0  0  0  0  0  0  0  0
    4.6613  -13.3706   21.9939 C   0  0  0  0  0  0  0  0  0  0  0  0
    5.0621  -14.3676   22.8165 N   0  0  0  0  0  0  0  0  0  0  0  0
    4.5271  -14.1024   24.0132 C   0  0  0  0  0  0  0  0  0  0  0  0
    5.5215  -14.0819   25.1871 C   0  0  0  0  0  0  0  0  0  0  0  0
    6.9419  -14.4797   24.7263 C   0  0  0  0  0  0  0  0  0  0  0  0
    5.1475  -15.0044   26.3398 C   0  0  0  0  0  0  0  0  0  0  0  0
   -5.6349  -17.1302   29.4926 N   0  0  0  0  0  0  0  0  0  0  0  0
   -6.8013  -17.9393   30.9023 C   0  0  0  0  0  0  0  0  0  0  0  0
   -7.3807  -17.6743   32.7066 C   0  0  0  0  0  0  0  0  0  0  0  0
   -7.3555  -18.6982   33.7541 C   0  0  0  0  0  0  0  0  0  0  0  0
   -7.5616  -18.2377   35.0278 C   0  0  0  0  0  0  0  0  0  0  0  0
   -8.2706  -16.7363   35.0326 S   0  0  0  0  0  0  0  0  0  0  0  0
   -8.0609  -16.6149   33.3491 C   0  0  0  0  0  0  0  0  0  0  0  0
   -6.1483  -15.9764   32.5921 H   0  0  0  0  0  0  0  0  0  0  0  0
   -4.5130  -16.4647   32.4915 H   0  0  0  0  0  0  0  0  0  0  0  0
   -5.4503  -17.5924   32.3667 H   0  0  0  0  0  0  0  0  0  0  0  0
   -6.2416  -15.4802   29.3743 H   0  0  0  0  0  0  0  0  0  0  0  0
   -5.5011  -14.7307   30.1874 H   0  0  0  0  0  0  0  0  0  0  0  0
   -3.9603  -16.7162   27.9521 H   0  0  0  0  0  0  0  0  0  0  0  0
   -2.8901  -14.3936   27.0302 H   0  0  0  0  0  0  0  0  0  0  0  0
   -1.8121  -14.7388   28.5360 H   0  0  0  0  0  0  0  0  0  0  0  0
   -1.8469  -14.5935   25.1927 H   0  0  0  0  0  0  0  0  0  0  0  0
    1.2077  -14.0413   23.8530 H   0  0  0  0  0  0  0  0  0  0  0  0
    1.7644  -12.1192   24.1001 H   0  0  0  0  0  0  0  0  0  0  0  0
    3.0947  -11.8132   22.2843 H   0  0  0  0  0  0  0  0  0  0  0  0
    5.0626  -13.2403   20.9993 H   0  0  0  0  0  0  0  0  0  0  0  0
    5.6432  -13.0610   25.5498 H   0  0  0  0  0  0  0  0  0  0  0  0
    7.3120  -13.8002   23.9501 H   0  0  0  0  0  0  0  0  0  0  0  0
    7.6497  -14.4304   25.5615 H   0  0  0  0  0  0  0  0  0  0  0  0
    6.9649  -15.4997   24.3259 H   0  0  0  0  0  0  0  0  0  0  0  0
    4.2413  -14.6723   26.8437 H   0  0  0  0  0  0  0  0  0  0  0  0
    5.0039  -16.0358   26.0019 H   0  0  0  0  0  0  0  0  0  0  0  0
    5.9347  -15.0150   27.1026 H   0  0  0  0  0  0  0  0  0  0  0  0
   -5.8579  -17.8110   28.7498 H   0  0  0  0  0  0  0  0  0  0  0  0
   -6.5540  -19.0151   31.0440 H   0  0  0  0  0  0  0  0  0  0  0  0
   -7.5148  -18.2880   30.2219 H   0  0  0  0  0  0  0  0  0  0  0  0
   -6.9840  -19.6993   33.5794 H   0  0  0  0  0  0  0  0  0  0  0  0
   -7.3842  -18.7348   35.9678 H   0  0  0  0  0  0  0  0  0  0  0  0
   -8.4457  -15.7148   32.9034 H   0  0  0  0  0  0  0  0  0  0  0  0
  1  2  1  0
  2  3  1  0
  3  4  1  0
  4  5  1  0
  5  6  1  0
  6  7  2  0
  6  8  1  0
  8  9  1  0
  9 10  1  0
 10 11  2  0
 11 12  1  0
 12 13  2  0
 13 14  1  0
 14 15  1  0
 14 16  1  0
  3 17  1  0
 17 18  1  0
 18 19  1  0
 19 20  1  0
 20 21  2  0
 21 22  1  0
 22 23  1  0
 13  9  1  0
 23 19  2  0
  1 24  1  0
  1 25  1  0
  1 26  1  0
  2 27  1  0
  2 28  1  0
  3 29  1  0
  4 30  1  0
  4 31  1  0
  5 32  1  0
  8 33  1  0
  8 34  1  0
 10 35  1  0
 11 36  1  0
 14 37  1  0
 15 38  1  0
 15 39  1  0
 15 40  1  0
 16 41  1  0
 16 42  1  0
 16 43  1  0
 17 44  1  0
 18 45  1  0
 18 46  1  0
 20 47  1  0
 21 48  1  0
 23 49  1  0
M  END
>  <Energy>  (1687) 
1431.0956543917957

>  <compound_id>  (1687) 
8216

>  <target_id>  (1687) 
1

>  <reference_id>  (1687) 
20

>  <inspiration_ids>  (1687) 
[35, 20]

>  <energy_score>  (1687) 
1349.6155875225215

>  <distance_score>  (1687) 
12.701925063445803

>  <path>  (1687) 
/opt/xchem-fragalysis-2/maxwin/BulkDock/SCRATCH/511013/C8216-P20/C8216-P20.minimised.mol

>  <scratch_subdir>  (1687) 
/opt/xchem-fragalysis-2/maxwin/BulkDock/SCRATCH/511013/C8216-P20

>  <fragmenstein_runtime>  (1687) 
30.56342577934265

>  <fragmenstein_outcome>  (1687) 
too moved

>  <fragmenstein_mode>  (1687) 
expansion

>  <fragmenstein_error>  (1687) 


$$$$
C8217-P35
     RDKit          3D

 43 44  0  0  0  0  0  0  0  0999 V2000
    3.2385  -17.1728   30.5301 C   0  0  0  0  0  0  0  0  0  0  0  0
    1.7627  -16.8983   30.2969 C   0  0  0  0  0  0  0  0  0  0  0  0
    1.3441  -16.6061   28.8303 C   0  0  0  0  0  0  0  0  0  0  0  0
    1.9913  -15.1946   27.7396 C   0  0  0  0  0  0  0  0  0  0  0  0
    2.9304  -13.6345   27.8467 N   0  0  0  0  0  0  0  0  0  0  0  0
    2.4104  -11.9541   28.4075 C   0  0  0  0  0  0  0  0  0  0  0  0
    1.3154  -11.5316   28.7088 O   0  0  0  0  0  0  0  0  0  0  0  0
    3.7427  -10.6339   28.7827 C   0  0  0  0  0  0  0  0  0  0  0  0
    5.0326   -9.9750   28.2161 N   0  0  0  0  0  0  0  0  0  0  0  0
    5.2167   -8.6091   28.5278 C   0  0  0  0  0  0  0  0  0  0  0  0
    6.1664   -8.0287   27.8395 N   0  0  0  0  0  0  0  0  0  0  0  0
    6.7950   -9.0479   27.2159 C   0  0  0  0  0  0  0  0  0  0  0  0
    6.1933  -10.2707   27.5035 C   0  0  0  0  0  0  0  0  0  0  0  0
    6.7430  -11.5548   27.0211 C   0  0  0  0  0  0  0  0  0  0  0  0
    0.0012  -17.3509   28.6003 N   0  0  0  0  0  0  0  0  0  0  0  0
   -1.2777  -17.0158   29.2690 C   0  0  0  0  0  0  0  0  0  0  0  0
   -1.3497  -17.4972   30.6864 C   0  0  0  0  0  0  0  0  0  0  0  0
   -1.6137  -16.6397   31.8052 C   0  0  0  0  0  0  0  0  0  0  0  0
   -1.4478  -17.2787   33.0114 C   0  0  0  0  0  0  0  0  0  0  0  0
   -1.0293  -18.9156   32.8174 S   0  0  0  0  0  0  0  0  0  0  0  0
   -1.1969  -18.8051   31.1157 C   0  0  0  0  0  0  0  0  0  0  0  0
    3.3944  -17.5049   31.5625 H   0  0  0  0  0  0  0  0  0  0  0  0
    3.5879  -17.9752   29.8736 H   0  0  0  0  0  0  0  0  0  0  0  0
    3.8655  -16.3005   30.3810 H   0  0  0  0  0  0  0  0  0  0  0  0
    1.3796  -16.1666   31.0018 H   0  0  0  0  0  0  0  0  0  0  0  0
    1.3025  -17.8425   30.6079 H   0  0  0  0  0  0  0  0  0  0  0  0
    1.9480  -17.3584   28.2916 H   0  0  0  0  0  0  0  0  0  0  0  0
    1.3110  -14.8116   27.0278 H   0  0  0  0  0  0  0  0  0  0  0  0
    2.9306  -15.7921   27.6013 H   0  0  0  0  0  0  0  0  0  0  0  0
    3.9184  -13.6435   27.5903 H   0  0  0  0  0  0  0  0  0  0  0  0
    4.1274  -11.0005   29.7479 H   0  0  0  0  0  0  0  0  0  0  0  0
    3.1132   -9.7839   29.0153 H   0  0  0  0  0  0  0  0  0  0  0  0
    4.5612   -8.1000   29.2240 H   0  0  0  0  0  0  0  0  0  0  0  0
    7.6764   -8.8770   26.6087 H   0  0  0  0  0  0  0  0  0  0  0  0
    6.0276  -12.3613   27.1468 H   0  0  0  0  0  0  0  0  0  0  0  0
    7.0125  -11.5051   25.9609 H   0  0  0  0  0  0  0  0  0  0  0  0
    7.6500  -11.8066   27.5798 H   0  0  0  0  0  0  0  0  0  0  0  0
    0.1607  -18.3488   28.7454 H   0  0  0  0  0  0  0  0  0  0  0  0
   -2.0760  -17.5151   28.7051 H   0  0  0  0  0  0  0  0  0  0  0  0
   -1.4958  -15.9477   29.1945 H   0  0  0  0  0  0  0  0  0  0  0  0
   -1.8290  -15.5802   31.7240 H   0  0  0  0  0  0  0  0  0  0  0  0
   -1.5097  -16.8492   34.0002 H   0  0  0  0  0  0  0  0  0  0  0  0
   -1.0677  -19.6911   30.5098 H   0  0  0  0  0  0  0  0  0  0  0  0
  1  2  1  0
  2  3  1  0
  3  4  1  0
  4  5  1  0
  5  6  1  0
  6  7  2  0
  6  8  1  0
  8  9  1  0
  9 10  1  0
 10 11  2  0
 11 12  1  0
 12 13  2  0
 13 14  1  0
  3 15  1  0
 15 16  1  0
 16 17  1  0
 17 18  1  0
 18 19  2  0
 19 20  1  0
 20 21  1  0
 13  9  1  0
 21 17  2  0
  1 22  1  0
  1 23  1  0
  1 24  1  0
  2 25  1  0
  2 26  1  0
  3 27  1  0
  4 28  1  0
  4 29  1  0
  5 30  1  0
  8 31  1  0
  8 32  1  0
 10 33  1  0
 12 34  1  0
 14 35  1  0
 14 36  1  0
 14 37  1  0
 15 38  1  0
 16 39  1  0
 16 40  1  0
 18 41  1  0
 19 42  1  0
 21 43  1  0
M  END
>  <Energy>  (1688) 
303.81650797937112

>  <compound_id>  (1688) 
8217

>  <target_id>  (1688) 
1

>  <reference_id>  (1688) 
35

>  <inspiration_ids>  (1688) 
[35, 20]

>  <energy_score>  (1688) 
247.39106566631597

>  <distance_score>  (1688) 
13.753166196029198

>  <path>  (1688) 
/opt/xchem-fragalysis-2/maxwin/BulkDock/SCRATCH/511013/C8217-P35/C8217-P35.minimised.mol

>  <scratch_subdir>  (1688) 
/opt/xchem-fragalysis-2/maxwin/BulkDock/SCRATCH/511013/C8217-P35

>  <fragmenstein_runtime>  (1688) 
23.98402428627014

>  <fragmenstein_outcome>  (1688) 
too moved

>  <fragmenstein_mode>  (1688) 
expansion

>  <fragmenstein_error>  (1688) 


$$$$
C8217-P20
     RDKit          3D

 43 44  0  0  0  0  0  0  0  0999 V2000
   -2.5029  -14.2840   30.5217 C   0  0  0  0  0  0  0  0  0  0  0  0
   -1.9095  -15.1519   29.3779 C   0  0  0  0  0  0  0  0  0  0  0  0
   -0.9275  -14.9029   27.7473 C   0  0  0  0  0  0  0  0  0  0  0  0
    0.8626  -14.0395   26.7106 C   0  0  0  0  0  0  0  0  0  0  0  0
    1.6558  -13.0471   25.2611 N   0  0  0  0  0  0  0  0  0  0  0  0
    3.0954  -13.3686   24.2576 C   0  0  0  0  0  0  0  0  0  0  0  0
    3.7778  -14.3902   24.3051 O   0  0  0  0  0  0  0  0  0  0  0  0
    3.9366  -12.0372   23.0068 C   0  0  0  0  0  0  0  0  0  0  0  0
    5.7259  -11.2619   23.6811 N   0  0  0  0  0  0  0  0  0  0  0  0
    6.4363  -10.1256   24.5813 C   0  0  0  0  0  0  0  0  0  0  0  0
    7.0665  -10.5041   25.6875 N   0  0  0  0  0  0  0  0  0  0  0  0
    6.9197  -11.8226   25.6779 C   0  0  0  0  0  0  0  0  0  0  0  0
    7.0204  -12.0607   24.3278 C   0  0  0  0  0  0  0  0  0  0  0  0
    8.5309  -12.2424   23.9275 C   0  0  0  0  0  0  0  0  0  0  0  0
   -1.4386  -16.6673   27.9469 N   0  0  0  0  0  0  0  0  0  0  0  0
   -0.6012  -17.7391   28.5040 C   0  0  0  0  0  0  0  0  0  0  0  0
   -1.3254  -19.0868   28.4792 C   0  0  0  0  0  0  0  0  0  0  0  0
   -1.9471  -19.6754   27.3256 C   0  0  0  0  0  0  0  0  0  0  0  0
   -2.4994  -20.9177   27.5486 C   0  0  0  0  0  0  0  0  0  0  0  0
   -2.1667  -21.4699   29.1189 S   0  0  0  0  0  0  0  0  0  0  0  0
   -1.3927  -19.9908   29.5303 C   0  0  0  0  0  0  0  0  0  0  0  0
   -3.1780  -14.9179   31.1136 H   0  0  0  0  0  0  0  0  0  0  0  0
   -3.1160  -13.4400   30.1972 H   0  0  0  0  0  0  0  0  0  0  0  0
   -1.7414  -13.9599   31.2400 H   0  0  0  0  0  0  0  0  0  0  0  0
   -1.3639  -15.8870   29.9977 H   0  0  0  0  0  0  0  0  0  0  0  0
   -2.8108  -15.6968   29.0767 H   0  0  0  0  0  0  0  0  0  0  0  0
   -1.8145  -14.7590   27.0670 H   0  0  0  0  0  0  0  0  0  0  0  0
    1.8428  -14.3431   27.1336 H   0  0  0  0  0  0  0  0  0  0  0  0
    0.7899  -12.9454   27.0070 H   0  0  0  0  0  0  0  0  0  0  0  0
    1.3344  -12.1125   25.0859 H   0  0  0  0  0  0  0  0  0  0  0  0
    4.0864  -12.2649   21.9259 H   0  0  0  0  0  0  0  0  0  0  0  0
    3.4054  -11.1025   22.8147 H   0  0  0  0  0  0  0  0  0  0  0  0
    6.0262   -9.1172   24.7102 H   0  0  0  0  0  0  0  0  0  0  0  0
    7.3355  -12.4027   26.4941 H   0  0  0  0  0  0  0  0  0  0  0  0
    9.1473  -11.4362   24.3472 H   0  0  0  0  0  0  0  0  0  0  0  0
    8.8944  -13.1513   24.4293 H   0  0  0  0  0  0  0  0  0  0  0  0
    8.7815  -12.3768   22.8807 H   0  0  0  0  0  0  0  0  0  0  0  0
   -2.1108  -16.9510   27.2378 H   0  0  0  0  0  0  0  0  0  0  0  0
   -0.2848  -17.5206   29.5281 H   0  0  0  0  0  0  0  0  0  0  0  0
    0.3129  -17.8699   27.9146 H   0  0  0  0  0  0  0  0  0  0  0  0
   -1.9959  -19.1905   26.3627 H   0  0  0  0  0  0  0  0  0  0  0  0
   -3.0471  -21.5315   26.8475 H   0  0  0  0  0  0  0  0  0  0  0  0
   -1.0121  -19.8637   30.5339 H   0  0  0  0  0  0  0  0  0  0  0  0
  1  2  1  0
  2  3  1  0
  3  4  1  0
  4  5  1  0
  5  6  1  0
  6  7  2  0
  6  8  1  0
  8  9  1  0
  9 10  1  0
 10 11  2  0
 11 12  1  0
 12 13  2  0
 13 14  1  0
  3 15  1  0
 15 16  1  0
 16 17  1  0
 17 18  1  0
 18 19  2  0
 19 20  1  0
 20 21  1  0
 13  9  1  0
 21 17  2  0
  1 22  1  0
  1 23  1  0
  1 24  1  0
  2 25  1  0
  2 26  1  0
  3 27  1  0
  4 28  1  0
  4 29  1  0
  5 30  1  0
  8 31  1  0
  8 32  1  0
 10 33  1  0
 12 34  1  0
 14 35  1  0
 14 36  1  0
 14 37  1  0
 15 38  1  0
 16 39  1  0
 16 40  1  0
 18 41  1  0
 19 42  1  0
 21 43  1  0
M  END
>  <Energy>  (1689) 
839.96819237739476

>  <compound_id>  (1689) 
8217

>  <target_id>  (1689) 
1

>  <reference_id>  (1689) 
20

>  <inspiration_ids>  (1689) 
[35, 20]

>  <energy_score>  (1689) 
783.5427500643192

>  <distance_score>  (1689) 
12.468724998595967

>  <path>  (1689) 
/opt/xchem-fragalysis-2/maxwin/BulkDock/SCRATCH/511013/C8217-P20/C8217-P20.minimised.mol

>  <scratch_subdir>  (1689) 
/opt/xchem-fragalysis-2/maxwin/BulkDock/SCRATCH/511013/C8217-P20

>  <fragmenstein_runtime>  (1689) 
28.225615739822388

>  <fragmenstein_outcome>  (1689) 
too moved

>  <fragmenstein_mode>  (1689) 
expansion

>  <fragmenstein_error>  (1689) 


$$$$
C8218-P35
     RDKit          3D

 43 44  0  0  0  0  0  0  0  0999 V2000
   -9.1674  -15.4911   26.2273 C   0  0  0  0  0  0  0  0  0  0  0  0
  -10.2996  -16.5108   26.2068 C   0  0  0  0  0  0  0  0  0  0  0  0
  -11.6219  -15.9912   26.8375 C   0  0  0  0  0  0  0  0  0  0  0  0
  -12.0974  -14.8347   25.6470 C   0  0  0  0  0  0  0  0  0  0  0  0
  -10.9923  -14.1601   24.6886 N   0  0  0  0  0  0  0  0  0  0  0  0
  -10.2453  -12.8380   24.8065 C   0  0  0  0  0  0  0  0  0  0  0  0
  -10.3625  -11.9453   25.6053 O   0  0  0  0  0  0  0  0  0  0  0  0
   -9.0769  -12.6703   23.6147 C   0  0  0  0  0  0  0  0  0  0  0  0
   -8.0827  -11.4869   23.5406 N   0  0  0  0  0  0  0  0  0  0  0  0
   -7.8927  -10.4983   24.4796 C   0  0  0  0  0  0  0  0  0  0  0  0
   -7.0036   -9.5879   23.9523 C   0  0  0  0  0  0  0  0  0  0  0  0
   -6.5460  -10.0044   22.7495 N   0  0  0  0  0  0  0  0  0  0  0  0
   -7.1751  -11.1447   22.5034 C   0  0  0  0  0  0  0  0  0  0  0  0
   -6.9248  -11.8915   21.2426 C   0  0  0  0  0  0  0  0  0  0  0  0
  -12.6592  -17.1196   27.5753 N   0  0  0  0  0  0  0  0  0  0  0  0
  -12.1527  -18.4587   28.6866 C   0  0  0  0  0  0  0  0  0  0  0  0
  -12.1509  -20.4617   28.9142 C   0  0  0  0  0  0  0  0  0  0  0  0
  -12.0369  -21.3050   30.2130 C   0  0  0  0  0  0  0  0  0  0  0  0
  -12.0275  -22.6803   30.1151 C   0  0  0  0  0  0  0  0  0  0  0  0
  -11.8013  -23.1569   28.5251 S   0  0  0  0  0  0  0  0  0  0  0  0
  -11.7654  -21.5216   28.0146 C   0  0  0  0  0  0  0  0  0  0  0  0
   -8.4566  -15.8363   26.9670 H   0  0  0  0  0  0  0  0  0  0  0  0
   -9.4548  -14.4959   26.5683 H   0  0  0  0  0  0  0  0  0  0  0  0
   -8.6537  -15.4332   25.2647 H   0  0  0  0  0  0  0  0  0  0  0  0
  -10.4929  -16.8250   25.1727 H   0  0  0  0  0  0  0  0  0  0  0  0
   -9.8594  -17.3695   26.6890 H   0  0  0  0  0  0  0  0  0  0  0  0
  -11.4595  -15.2720   27.6364 H   0  0  0  0  0  0  0  0  0  0  0  0
  -12.7809  -15.3452   24.9613 H   0  0  0  0  0  0  0  0  0  0  0  0
  -12.6156  -14.0139   26.1523 H   0  0  0  0  0  0  0  0  0  0  0  0
  -10.5807  -14.7116   23.9449 H   0  0  0  0  0  0  0  0  0  0  0  0
   -9.5986  -12.6314   22.6525 H   0  0  0  0  0  0  0  0  0  0  0  0
   -8.4220  -13.5466   23.6625 H   0  0  0  0  0  0  0  0  0  0  0  0
   -8.4291  -10.4886   25.4183 H   0  0  0  0  0  0  0  0  0  0  0  0
   -6.6767   -8.6585   24.3983 H   0  0  0  0  0  0  0  0  0  0  0  0
   -6.8545  -12.9626   21.4375 H   0  0  0  0  0  0  0  0  0  0  0  0
   -6.0172  -11.5513   20.7375 H   0  0  0  0  0  0  0  0  0  0  0  0
   -7.7623  -11.7335   20.5551 H   0  0  0  0  0  0  0  0  0  0  0  0
  -13.2450  -16.5612   28.2209 H   0  0  0  0  0  0  0  0  0  0  0  0
  -11.3305  -18.0102   29.1507 H   0  0  0  0  0  0  0  0  0  0  0  0
  -12.9806  -18.4920   29.2674 H   0  0  0  0  0  0  0  0  0  0  0  0
  -11.9920  -20.9440   31.2322 H   0  0  0  0  0  0  0  0  0  0  0  0
  -12.0508  -23.4005   30.9234 H   0  0  0  0  0  0  0  0  0  0  0  0
  -11.4924  -21.4584   26.9728 H   0  0  0  0  0  0  0  0  0  0  0  0
  1  2  1  0
  2  3  1  0
  3  4  1  0
  4  5  1  0
  5  6  1  0
  6  7  2  0
  6  8  1  0
  8  9  1  0
  9 10  1  0
 10 11  2  0
 11 12  1  0
 12 13  2  0
 13 14  1  0
  3 15  1  0
 15 16  1  0
 16 17  1  0
 17 18  1  0
 18 19  2  0
 19 20  1  0
 20 21  1  0
 13  9  1  0
 21 17  2  0
  1 22  1  0
  1 23  1  0
  1 24  1  0
  2 25  1  0
  2 26  1  0
  3 27  1  0
  4 28  1  0
  4 29  1  0
  5 30  1  0
  8 31  1  0
  8 32  1  0
 10 33  1  0
 11 34  1  0
 14 35  1  0
 14 36  1  0
 14 37  1  0
 15 38  1  0
 16 39  1  0
 16 40  1  0
 18 41  1  0
 19 42  1  0
 21 43  1  0
M  END
>  <Energy>  (1690) 
277.45531515747928

>  <compound_id>  (1690) 
8218

>  <target_id>  (1690) 
1

>  <reference_id>  (1690) 
35

>  <inspiration_ids>  (1690) 
[35, 20]

>  <energy_score>  (1690) 
197.1943879836615

>  <distance_score>  (1690) 
17.183156179822795

>  <path>  (1690) 
/opt/xchem-fragalysis-2/maxwin/BulkDock/SCRATCH/511013/C8218-P35/C8218-P35.minimised.mol

>  <scratch_subdir>  (1690) 
/opt/xchem-fragalysis-2/maxwin/BulkDock/SCRATCH/511013/C8218-P35

>  <fragmenstein_runtime>  (1690) 
22.92403817176819

>  <fragmenstein_outcome>  (1690) 
too moved

>  <fragmenstein_mode>  (1690) 
expansion

>  <fragmenstein_error>  (1690) 


$$$$
C8218-P20
     RDKit          3D

 43 44  0  0  0  0  0  0  0  0999 V2000
   -2.0347  -15.0881   35.0317 C   0  0  0  0  0  0  0  0  0  0  0  0
   -2.6446  -14.9718   33.5474 C   0  0  0  0  0  0  0  0  0  0  0  0
   -3.2675  -16.1702   32.1861 C   0  0  0  0  0  0  0  0  0  0  0  0
   -3.1085  -15.6407   30.2903 C   0  0  0  0  0  0  0  0  0  0  0  0
   -1.6926  -14.9459   29.5918 N   0  0  0  0  0  0  0  0  0  0  0  0
   -1.1068  -14.7982   27.8214 C   0  0  0  0  0  0  0  0  0  0  0  0
   -1.8785  -15.1761   27.0167 O   0  0  0  0  0  0  0  0  0  0  0  0
    0.6865  -13.9601   26.8080 C   0  0  0  0  0  0  0  0  0  0  0  0
    2.3803  -13.7559   26.0492 N   0  0  0  0  0  0  0  0  0  0  0  0
    2.6208  -13.2046   24.4053 C   0  0  0  0  0  0  0  0  0  0  0  0
    3.8243  -13.6777   23.9159 C   0  0  0  0  0  0  0  0  0  0  0  0
    4.5633  -14.3021   24.8935 N   0  0  0  0  0  0  0  0  0  0  0  0
    3.9508  -14.3576   26.0946 C   0  0  0  0  0  0  0  0  0  0  0  0
    4.7506  -14.8319   27.2431 C   0  0  0  0  0  0  0  0  0  0  0  0
   -4.7938  -16.6063   32.7970 N   0  0  0  0  0  0  0  0  0  0  0  0
   -6.0922  -17.3063   32.5702 C   0  0  0  0  0  0  0  0  0  0  0  0
   -7.2224  -17.0598   33.6558 C   0  0  0  0  0  0  0  0  0  0  0  0
   -7.3607  -16.0781   34.7255 C   0  0  0  0  0  0  0  0  0  0  0  0
   -8.3254  -16.4077   35.6624 C   0  0  0  0  0  0  0  0  0  0  0  0
   -9.5441  -16.9769   34.6145 S   0  0  0  0  0  0  0  0  0  0  0  0
   -8.2641  -17.9297   33.9263 C   0  0  0  0  0  0  0  0  0  0  0  0
   -2.7617  -14.7173   35.7691 H   0  0  0  0  0  0  0  0  0  0  0  0
   -1.1840  -14.4042   35.1380 H   0  0  0  0  0  0  0  0  0  0  0  0
   -1.7224  -16.0836   35.3588 H   0  0  0  0  0  0  0  0  0  0  0  0
   -3.5161  -14.4128   33.8751 H   0  0  0  0  0  0  0  0  0  0  0  0
   -1.9213  -14.3197   33.0709 H   0  0  0  0  0  0  0  0  0  0  0  0
   -2.7759  -17.1353   32.1190 H   0  0  0  0  0  0  0  0  0  0  0  0
   -3.7155  -14.7995   30.0617 H   0  0  0  0  0  0  0  0  0  0  0  0
   -3.6672  -16.2781   29.6145 H   0  0  0  0  0  0  0  0  0  0  0  0
   -1.0074  -14.5182   30.1872 H   0  0  0  0  0  0  0  0  0  0  0  0
    1.3113  -14.8143   27.1923 H   0  0  0  0  0  0  0  0  0  0  0  0
    0.8319  -12.8517   26.9686 H   0  0  0  0  0  0  0  0  0  0  0  0
    1.9434  -12.4341   24.1361 H   0  0  0  0  0  0  0  0  0  0  0  0
    4.2434  -13.4939   22.9361 H   0  0  0  0  0  0  0  0  0  0  0  0
    4.2829  -15.7017   27.7008 H   0  0  0  0  0  0  0  0  0  0  0  0
    4.9533  -14.0416   27.9654 H   0  0  0  0  0  0  0  0  0  0  0  0
    5.7328  -15.1742   26.8941 H   0  0  0  0  0  0  0  0  0  0  0  0
   -5.0774  -15.7539   33.2450 H   0  0  0  0  0  0  0  0  0  0  0  0
   -6.3834  -17.0836   31.5798 H   0  0  0  0  0  0  0  0  0  0  0  0
   -6.0065  -18.3945   32.5620 H   0  0  0  0  0  0  0  0  0  0  0  0
   -6.7393  -15.2114   34.9159 H   0  0  0  0  0  0  0  0  0  0  0  0
   -8.5280  -15.9625   36.6241 H   0  0  0  0  0  0  0  0  0  0  0  0
   -8.4962  -18.9113   33.5681 H   0  0  0  0  0  0  0  0  0  0  0  0
  1  2  1  0
  2  3  1  0
  3  4  1  0
  4  5  1  0
  5  6  1  0
  6  7  2  0
  6  8  1  0
  8  9  1  0
  9 10  1  0
 10 11  2  0
 11 12  1  0
 12 13  2  0
 13 14  1  0
  3 15  1  0
 15 16  1  0
 16 17  1  0
 17 18  1  0
 18 19  2  0
 19 20  1  0
 20 21  1  0
 13  9  1  0
 21 17  2  0
  1 22  1  0
  1 23  1  0
  1 24  1  0
  2 25  1  0
  2 26  1  0
  3 27  1  0
  4 28  1  0
  4 29  1  0
  5 30  1  0
  8 31  1  0
  8 32  1  0
 10 33  1  0
 11 34  1  0
 14 35  1  0
 14 36  1  0
 14 37  1  0
 15 38  1  0
 16 39  1  0
 16 40  1  0
 18 41  1  0
 19 42  1  0
 21 43  1  0
M  END
>  <Energy>  (1691) 
700.7967339908148

>  <compound_id>  (1691) 
8218

>  <target_id>  (1691) 
1

>  <reference_id>  (1691) 
20

>  <inspiration_ids>  (1691) 
[35, 20]

>  <energy_score>  (1691) 
620.535806816991

>  <distance_score>  (1691) 
13.961175964013963

>  <path>  (1691) 
/opt/xchem-fragalysis-2/maxwin/BulkDock/SCRATCH/511013/C8218-P20/C8218-P20.minimised.mol

>  <scratch_subdir>  (1691) 
/opt/xchem-fragalysis-2/maxwin/BulkDock/SCRATCH/511013/C8218-P20

>  <fragmenstein_runtime>  (1691) 
28.874516248703003

>  <fragmenstein_outcome>  (1691) 
too moved

>  <fragmenstein_mode>  (1691) 
expansion

>  <fragmenstein_error>  (1691) 


$$$$
C8220-P35
     RDKit          3D

 43 44  0  0  0  0  0  0  0  0999 V2000
    1.1133  -14.0679   23.7182 C   0  0  0  0  0  0  0  0  0  0  0  0
    2.7364  -12.6879   23.7835 C   0  0  0  0  0  0  0  0  0  0  0  0
    1.6096  -12.9643   25.5080 C   0  0  0  0  0  0  0  0  0  0  0  0
    0.5895  -13.8229   26.7868 N   0  0  0  0  0  0  0  0  0  0  0  0
   -1.0016  -14.8746   27.6847 C   0  0  0  0  0  0  0  0  0  0  0  0
   -1.2683  -16.5691   28.1733 C   0  0  0  0  0  0  0  0  0  0  0  0
   -2.4399  -17.3045   27.7180 C   0  0  0  0  0  0  0  0  0  0  0  0
   -2.3434  -18.6572   27.9573 C   0  0  0  0  0  0  0  0  0  0  0  0
   -0.9557  -19.0429   28.8787 S   0  0  0  0  0  0  0  0  0  0  0  0
   -0.4642  -17.3946   28.9440 C   0  0  0  0  0  0  0  0  0  0  0  0
    4.0672  -11.8875   22.3070 N   0  0  0  0  0  0  0  0  0  0  0  0
    5.9578  -11.0402   22.3925 C   0  0  0  0  0  0  0  0  0  0  0  0
    6.3771  -10.8654   23.5443 O   0  0  0  0  0  0  0  0  0  0  0  0
    7.5674  -10.5555   20.9313 C   0  0  0  0  0  0  0  0  0  0  0  0
    9.6616  -10.3130   20.1740 C   0  0  0  0  0  0  0  0  0  0  0  0
   10.4268   -9.8040   21.4112 C   0  0  0  0  0  0  0  0  0  0  0  0
   11.3593  -10.0850   18.9815 N   0  0  0  0  0  0  0  0  0  0  0  0
   13.2842  -10.0357   19.3507 C   0  0  0  0  0  0  0  0  0  0  0  0
   14.2726   -8.4726   18.7470 C   0  0  0  0  0  0  0  0  0  0  0  0
   12.6802   -7.5727   17.3734 N   0  0  0  0  0  0  0  0  0  0  0  0
   11.6365   -9.2306   17.2618 C   0  0  0  0  0  0  0  0  0  0  0  0
    1.6628  -14.8498   23.2906 H   0  0  0  0  0  0  0  0  0  0  0  0
    0.0964  -13.9731   23.1152 H   0  0  0  0  0  0  0  0  0  0  0  0
    0.4709  -14.2419   24.5274 H   0  0  0  0  0  0  0  0  0  0  0  0
    3.4356  -13.4781   24.0312 H   0  0  0  0  0  0  0  0  0  0  0  0
    2.3239  -13.5825   26.0498 H   0  0  0  0  0  0  0  0  0  0  0  0
    1.3361  -11.9727   25.8785 H   0  0  0  0  0  0  0  0  0  0  0  0
    0.4885  -12.8534   27.1464 H   0  0  0  0  0  0  0  0  0  0  0  0
   -1.9104  -14.8176   26.9770 H   0  0  0  0  0  0  0  0  0  0  0  0
   -1.4949  -14.5416   28.6048 H   0  0  0  0  0  0  0  0  0  0  0  0
   -3.2480  -16.8675   27.1429 H   0  0  0  0  0  0  0  0  0  0  0  0
   -3.0243  -19.4347   27.6436 H   0  0  0  0  0  0  0  0  0  0  0  0
    0.4537  -17.1468   29.4555 H   0  0  0  0  0  0  0  0  0  0  0  0
    3.8565  -12.0715   21.3783 H   0  0  0  0  0  0  0  0  0  0  0  0
    7.2538   -9.5301   20.6820 H   0  0  0  0  0  0  0  0  0  0  0  0
    7.2233  -11.2079   20.1123 H   0  0  0  0  0  0  0  0  0  0  0  0
    9.8620  -11.3920   20.0390 H   0  0  0  0  0  0  0  0  0  0  0  0
    9.7968   -9.8715   22.3027 H   0  0  0  0  0  0  0  0  0  0  0  0
   11.3137  -10.4153   21.6053 H   0  0  0  0  0  0  0  0  0  0  0  0
   10.7465   -8.7692   21.2863 H   0  0  0  0  0  0  0  0  0  0  0  0
   13.4089  -10.5337   20.3062 H   0  0  0  0  0  0  0  0  0  0  0  0
   15.1552   -7.8859   19.0410 H   0  0  0  0  0  0  0  0  0  0  0  0
   11.5486   -9.9034   16.3844 H   0  0  0  0  0  0  0  0  0  0  0  0
  1  2  1  0
  2  3  1  0
  3  4  1  0
  4  5  1  0
  5  6  1  0
  6  7  1  0
  7  8  2  0
  8  9  1  0
  9 10  1  0
  2 11  1  0
 11 12  1  0
 12 13  2  0
 12 14  1  0
 14 15  1  0
 15 16  1  0
 15 17  1  0
 17 18  1  0
 18 19  2  0
 19 20  1  0
 20 21  2  0
 10  6  2  0
 21 17  1  0
  1 22  1  0
  1 23  1  0
  1 24  1  0
  2 25  1  0
  3 26  1  0
  3 27  1  0
  4 28  1  0
  5 29  1  0
  5 30  1  0
  7 31  1  0
  8 32  1  0
 10 33  1  0
 11 34  1  0
 14 35  1  0
 14 36  1  0
 15 37  1  0
 16 38  1  0
 16 39  1  0
 16 40  1  0
 18 41  1  0
 19 42  1  0
 21 43  1  0
M  END
>  <Energy>  (1692) 
2352.6164551488077

>  <compound_id>  (1692) 
8220

>  <target_id>  (1692) 
1

>  <reference_id>  (1692) 
35

>  <inspiration_ids>  (1692) 
[35, 20]

>  <energy_score>  (1692) 
2316.866523193225

>  <distance_score>  (1692) 
11.702357407746172

>  <path>  (1692) 
/opt/xchem-fragalysis-2/maxwin/BulkDock/SCRATCH/511013/C8220-P35/C8220-P35.minimised.mol

>  <scratch_subdir>  (1692) 
/opt/xchem-fragalysis-2/maxwin/BulkDock/SCRATCH/511013/C8220-P35

>  <fragmenstein_runtime>  (1692) 
19.519798755645752

>  <fragmenstein_outcome>  (1692) 
too moved

>  <fragmenstein_mode>  (1692) 
expansion

>  <fragmenstein_error>  (1692) 


$$$$
C8220-P20
     RDKit          3D

 43 44  0  0  0  0  0  0  0  0999 V2000
   -4.5705   -7.6334   26.1672 C   0  0  0  0  0  0  0  0  0  0  0  0
   -3.7748   -8.7049   25.4281 C   0  0  0  0  0  0  0  0  0  0  0  0
   -3.7426  -10.1151   26.3563 C   0  0  0  0  0  0  0  0  0  0  0  0
   -4.9072  -10.6675   27.1395 N   0  0  0  0  0  0  0  0  0  0  0  0
   -5.5995  -11.8689   26.6070 C   0  0  0  0  0  0  0  0  0  0  0  0
   -5.3821  -13.1567   27.3919 C   0  0  0  0  0  0  0  0  0  0  0  0
   -5.4191  -13.3191   28.8212 C   0  0  0  0  0  0  0  0  0  0  0  0
   -5.1984  -14.6192   29.2261 C   0  0  0  0  0  0  0  0  0  0  0  0
   -5.0441  -15.6880   27.9047 S   0  0  0  0  0  0  0  0  0  0  0  0
   -5.2161  -14.4008   26.7944 C   0  0  0  0  0  0  0  0  0  0  0  0
   -2.4079   -8.0516   24.9878 N   0  0  0  0  0  0  0  0  0  0  0  0
   -2.0077   -7.3716   23.6980 C   0  0  0  0  0  0  0  0  0  0  0  0
   -2.6135   -7.2357   22.6663 O   0  0  0  0  0  0  0  0  0  0  0  0
   -0.4424   -6.8356   23.7076 C   0  0  0  0  0  0  0  0  0  0  0  0
    0.2131   -6.1217   22.3844 C   0  0  0  0  0  0  0  0  0  0  0  0
   -0.2087   -4.6494   22.2974 C   0  0  0  0  0  0  0  0  0  0  0  0
    1.6800   -6.1035   22.1160 N   0  0  0  0  0  0  0  0  0  0  0  0
    2.2302   -6.1424   20.8427 C   0  0  0  0  0  0  0  0  0  0  0  0
    3.5389   -5.7319   20.9676 C   0  0  0  0  0  0  0  0  0  0  0  0
    3.8210   -5.4296   22.2704 N   0  0  0  0  0  0  0  0  0  0  0  0
    2.6827   -5.6066   22.9150 C   0  0  0  0  0  0  0  0  0  0  0  0
   -4.0760   -7.3597   27.1053 H   0  0  0  0  0  0  0  0  0  0  0  0
   -5.5821   -7.9808   26.3982 H   0  0  0  0  0  0  0  0  0  0  0  0
   -4.6576   -6.7254   25.5609 H   0  0  0  0  0  0  0  0  0  0  0  0
   -4.2927   -8.9492   24.4934 H   0  0  0  0  0  0  0  0  0  0  0  0
   -2.9765   -9.9059   27.1139 H   0  0  0  0  0  0  0  0  0  0  0  0
   -3.3387  -10.9082   25.7214 H   0  0  0  0  0  0  0  0  0  0  0  0
   -4.5812  -10.8880   28.0812 H   0  0  0  0  0  0  0  0  0  0  0  0
   -6.6753  -11.6566   26.6340 H   0  0  0  0  0  0  0  0  0  0  0  0
   -5.3410  -12.0199   25.5522 H   0  0  0  0  0  0  0  0  0  0  0  0
   -5.5797  -12.5106   29.5243 H   0  0  0  0  0  0  0  0  0  0  0  0
   -5.1520  -14.9903   30.2402 H   0  0  0  0  0  0  0  0  0  0  0  0
   -5.1856  -14.6189   25.7352 H   0  0  0  0  0  0  0  0  0  0  0  0
   -1.6814   -7.9043   25.6832 H   0  0  0  0  0  0  0  0  0  0  0  0
    0.1579   -7.7230   23.8874 H   0  0  0  0  0  0  0  0  0  0  0  0
   -0.3548   -6.1524   24.5589 H   0  0  0  0  0  0  0  0  0  0  0  0
   -0.2149   -6.6536   21.5241 H   0  0  0  0  0  0  0  0  0  0  0  0
    0.2064   -4.0631   23.1248 H   0  0  0  0  0  0  0  0  0  0  0  0
    0.1108   -4.1833   21.3584 H   0  0  0  0  0  0  0  0  0  0  0  0
   -1.2996   -4.5650   22.3486 H   0  0  0  0  0  0  0  0  0  0  0  0
    1.6463   -6.4446   19.9844 H   0  0  0  0  0  0  0  0  0  0  0  0
    4.2841   -5.6441   20.1883 H   0  0  0  0  0  0  0  0  0  0  0  0
    2.5135   -5.3521   23.9502 H   0  0  0  0  0  0  0  0  0  0  0  0
  1  2  1  0
  2  3  1  0
  3  4  1  0
  4  5  1  0
  5  6  1  0
  6  7  1  0
  7  8  2  0
  8  9  1  0
  9 10  1  0
  2 11  1  0
 11 12  1  0
 12 13  2  0
 12 14  1  0
 14 15  1  0
 15 16  1  0
 15 17  1  0
 17 18  1  0
 18 19  2  0
 19 20  1  0
 20 21  2  0
 10  6  2  0
 21 17  1  0
  1 22  1  0
  1 23  1  0
  1 24  1  0
  2 25  1  0
  3 26  1  0
  3 27  1  0
  4 28  1  0
  5 29  1  0
  5 30  1  0
  7 31  1  0
  8 32  1  0
 10 33  1  0
 11 34  1  0
 14 35  1  0
 14 36  1  0
 15 37  1  0
 16 38  1  0
 16 39  1  0
 16 40  1  0
 18 41  1  0
 19 42  1  0
 21 43  1  0
M  END
>  <Energy>  (1693) 
49.345626758038733

>  <compound_id>  (1693) 
8220

>  <target_id>  (1693) 
1

>  <reference_id>  (1693) 
20

>  <inspiration_ids>  (1693) 
[35, 20]

>  <energy_score>  (1693) 
13.595694802419246

>  <distance_score>  (1693) 
13.608962056330519

>  <path>  (1693) 
/opt/xchem-fragalysis-2/maxwin/BulkDock/SCRATCH/511013/C8220-P20/C8220-P20.minimised.mol

>  <scratch_subdir>  (1693) 
/opt/xchem-fragalysis-2/maxwin/BulkDock/SCRATCH/511013/C8220-P20

>  <fragmenstein_runtime>  (1693) 
26.861687183380127

>  <fragmenstein_outcome>  (1693) 
too moved

>  <fragmenstein_mode>  (1693) 
expansion

>  <fragmenstein_error>  (1693) 


$$$$
C8221-P35
     RDKit          3D

 49 50  0  0  0  0  0  0  0  0999 V2000
   11.4091   -6.8411   26.5164 C   0  0  0  0  0  0  0  0  0  0  0  0
    9.9914   -6.7245   27.0590 C   0  0  0  0  0  0  0  0  0  0  0  0
    9.1014   -7.8113   26.5377 C   0  0  0  0  0  0  0  0  0  0  0  0
    9.1413   -8.2799   25.2983 N   0  0  0  0  0  0  0  0  0  0  0  0
    8.3252   -9.3697   25.2977 C   0  0  0  0  0  0  0  0  0  0  0  0
    7.6698   -9.4903   26.4985 C   0  0  0  0  0  0  0  0  0  0  0  0
    8.1285   -8.4745   27.2946 N   0  0  0  0  0  0  0  0  0  0  0  0
    7.6180   -8.1149   28.6542 C   0  0  0  0  0  0  0  0  0  0  0  0
    7.0732   -6.6816   28.5432 C   0  0  0  0  0  0  0  0  0  0  0  0
    6.5379   -9.1456   29.3582 C   0  0  0  0  0  0  0  0  0  0  0  0
    5.9616   -8.8995   30.8787 C   0  0  0  0  0  0  0  0  0  0  0  0
    6.4269   -7.9990   31.5245 O   0  0  0  0  0  0  0  0  0  0  0  0
    4.8384   -9.8373   31.1870 N   0  0  0  0  0  0  0  0  0  0  0  0
    3.9699  -10.0208   32.4932 C   0  0  0  0  0  0  0  0  0  0  0  0
    4.0394   -8.8054   33.4074 C   0  0  0  0  0  0  0  0  0  0  0  0
    2.3060  -10.4823   32.2722 C   0  0  0  0  0  0  0  0  0  0  0  0
    1.6041  -11.6157   33.0516 N   0  0  0  0  0  0  0  0  0  0  0  0
    0.1376  -11.6545   32.7322 C   0  0  0  0  0  0  0  0  0  0  0  0
   -0.6558  -12.8290   33.2953 C   0  0  0  0  0  0  0  0  0  0  0  0
   -1.0932  -14.0041   32.5733 C   0  0  0  0  0  0  0  0  0  0  0  0
   -1.9940  -14.7850   33.2640 C   0  0  0  0  0  0  0  0  0  0  0  0
   -2.3529  -14.0994   34.7806 S   0  0  0  0  0  0  0  0  0  0  0  0
   -1.2404  -12.8324   34.5504 C   0  0  0  0  0  0  0  0  0  0  0  0
   12.0394   -6.0482   26.9315 H   0  0  0  0  0  0  0  0  0  0  0  0
   11.4287   -6.7497   25.4252 H   0  0  0  0  0  0  0  0  0  0  0  0
   11.8552   -7.8057   26.7817 H   0  0  0  0  0  0  0  0  0  0  0  0
    9.5747   -5.7534   26.7696 H   0  0  0  0  0  0  0  0  0  0  0  0
   10.0445   -6.7555   28.1519 H   0  0  0  0  0  0  0  0  0  0  0  0
    8.2397  -10.0211   24.4366 H   0  0  0  0  0  0  0  0  0  0  0  0
    6.9602  -10.2264   26.8441 H   0  0  0  0  0  0  0  0  0  0  0  0
    8.5031   -8.1171   29.3024 H   0  0  0  0  0  0  0  0  0  0  0  0
    7.8671   -5.9443   28.4033 H   0  0  0  0  0  0  0  0  0  0  0  0
    6.5484   -6.3902   29.4575 H   0  0  0  0  0  0  0  0  0  0  0  0
    6.3810   -6.5797   27.7005 H   0  0  0  0  0  0  0  0  0  0  0  0
    5.6693   -9.2299   28.6960 H   0  0  0  0  0  0  0  0  0  0  0  0
    7.0159  -10.1335   29.3906 H   0  0  0  0  0  0  0  0  0  0  0  0
    4.7688  -10.5332   30.4457 H   0  0  0  0  0  0  0  0  0  0  0  0
    4.4399  -10.8732   32.9971 H   0  0  0  0  0  0  0  0  0  0  0  0
    3.4494   -8.9695   34.3148 H   0  0  0  0  0  0  0  0  0  0  0  0
    3.6554   -7.9119   32.9055 H   0  0  0  0  0  0  0  0  0  0  0  0
    5.0702   -8.6037   33.7143 H   0  0  0  0  0  0  0  0  0  0  0  0
    1.7396   -9.5672   32.4898 H   0  0  0  0  0  0  0  0  0  0  0  0
    2.1751  -10.6643   31.2027 H   0  0  0  0  0  0  0  0  0  0  0  0
    2.0159  -12.4968   32.7534 H   0  0  0  0  0  0  0  0  0  0  0  0
   -0.3090  -10.7323   33.1269 H   0  0  0  0  0  0  0  0  0  0  0  0
   -0.0014  -11.6171   31.6533 H   0  0  0  0  0  0  0  0  0  0  0  0
   -0.8092  -14.2476   31.5628 H   0  0  0  0  0  0  0  0  0  0  0  0
   -2.4753  -15.6918   32.9253 H   0  0  0  0  0  0  0  0  0  0  0  0
   -1.1231  -12.0833   35.3220 H   0  0  0  0  0  0  0  0  0  0  0  0
  1  2  1  0
  2  3  1  0
  3  4  2  0
  4  5  1  0
  5  6  2  0
  6  7  1  0
  7  8  1  0
  8  9  1  0
  8 10  1  0
 10 11  1  0
 11 12  2  0
 11 13  1  0
 13 14  1  0
 14 15  1  0
 14 16  1  0
 16 17  1  0
 17 18  1  0
 18 19  1  0
 19 20  1  0
 20 21  2  0
 21 22  1  0
 22 23  1  0
  7  3  1  0
 23 19  2  0
  1 24  1  0
  1 25  1  0
  1 26  1  0
  2 27  1  0
  2 28  1  0
  5 29  1  0
  6 30  1  0
  8 31  1  0
  9 32  1  0
  9 33  1  0
  9 34  1  0
 10 35  1  0
 10 36  1  0
 13 37  1  0
 14 38  1  0
 15 39  1  0
 15 40  1  0
 15 41  1  0
 16 42  1  0
 16 43  1  0
 17 44  1  0
 18 45  1  0
 18 46  1  0
 20 47  1  0
 21 48  1  0
 23 49  1  0
M  END
>  <Energy>  (1694) 
50.239031135380607

>  <compound_id>  (1694) 
8221

>  <target_id>  (1694) 
1

>  <reference_id>  (1694) 
35

>  <inspiration_ids>  (1694) 
[35, 20]

>  <energy_score>  (1694) 
-4.7241236952401096

>  <distance_score>  (1694) 
14.447950401070509

>  <path>  (1694) 
/opt/xchem-fragalysis-2/maxwin/BulkDock/SCRATCH/511013/C8221-P35/C8221-P35.minimised.mol

>  <scratch_subdir>  (1694) 
/opt/xchem-fragalysis-2/maxwin/BulkDock/SCRATCH/511013/C8221-P35

>  <fragmenstein_runtime>  (1694) 
26.23045539855957

>  <fragmenstein_outcome>  (1694) 
too moved

>  <fragmenstein_mode>  (1694) 
expansion

>  <fragmenstein_error>  (1694) 


$$$$
C8221-P20
     RDKit          3D

 49 50  0  0  0  0  0  0  0  0999 V2000
   11.0693   -8.5024   25.8488 C   0  0  0  0  0  0  0  0  0  0  0  0
    9.8899   -8.8739   26.7354 C   0  0  0  0  0  0  0  0  0  0  0  0
    8.9918   -7.7078   27.0233 C   0  0  0  0  0  0  0  0  0  0  0  0
    9.0046   -6.5582   26.3721 N   0  0  0  0  0  0  0  0  0  0  0  0
    8.0819   -5.7694   26.9948 C   0  0  0  0  0  0  0  0  0  0  0  0
    7.4479   -6.4610   28.0049 C   0  0  0  0  0  0  0  0  0  0  0  0
    7.9798   -7.7274   28.0006 N   0  0  0  0  0  0  0  0  0  0  0  0
    7.3133   -8.9565   28.4710 C   0  0  0  0  0  0  0  0  0  0  0  0
    6.3028   -9.3286   27.3965 C   0  0  0  0  0  0  0  0  0  0  0  0
    6.8202   -9.3610   29.9816 C   0  0  0  0  0  0  0  0  0  0  0  0
    5.5943   -8.8420   30.9140 C   0  0  0  0  0  0  0  0  0  0  0  0
    5.5340   -7.6509   31.0954 O   0  0  0  0  0  0  0  0  0  0  0  0
    4.7693   -9.9652   31.4949 N   0  0  0  0  0  0  0  0  0  0  0  0
    3.6349   -9.9572   32.6019 C   0  0  0  0  0  0  0  0  0  0  0  0
    3.5189   -8.5969   33.2851 C   0  0  0  0  0  0  0  0  0  0  0  0
    2.0412  -10.6249   32.3437 C   0  0  0  0  0  0  0  0  0  0  0  0
    1.5297  -11.9044   33.0593 N   0  0  0  0  0  0  0  0  0  0  0  0
    0.0321  -12.0892   32.9646 C   0  0  0  0  0  0  0  0  0  0  0  0
   -0.4786  -13.5419   33.0416 C   0  0  0  0  0  0  0  0  0  0  0  0
    0.0406  -14.6258   33.8341 C   0  0  0  0  0  0  0  0  0  0  0  0
   -0.6268  -15.8226   33.6461 C   0  0  0  0  0  0  0  0  0  0  0  0
   -1.8984  -15.6734   32.5239 S   0  0  0  0  0  0  0  0  0  0  0  0
   -1.6063  -13.9958   32.3599 C   0  0  0  0  0  0  0  0  0  0  0  0
   10.7339   -8.1408   24.8712 H   0  0  0  0  0  0  0  0  0  0  0  0
   11.6791   -7.7173   26.3087 H   0  0  0  0  0  0  0  0  0  0  0  0
   11.7081   -9.3758   25.6835 H   0  0  0  0  0  0  0  0  0  0  0  0
    9.3123   -9.6649   26.2442 H   0  0  0  0  0  0  0  0  0  0  0  0
   10.2774   -9.2769   27.6782 H   0  0  0  0  0  0  0  0  0  0  0  0
    7.9124   -4.7455   26.6864 H   0  0  0  0  0  0  0  0  0  0  0  0
    6.6635   -6.1686   28.6884 H   0  0  0  0  0  0  0  0  0  0  0  0
    8.1136   -9.7027   28.3589 H   0  0  0  0  0  0  0  0  0  0  0  0
    5.5554   -8.5454   27.2717 H   0  0  0  0  0  0  0  0  0  0  0  0
    5.7914  -10.2587   27.6604 H   0  0  0  0  0  0  0  0  0  0  0  0
    6.7880   -9.4770   26.4256 H   0  0  0  0  0  0  0  0  0  0  0  0
    7.6987   -9.1799   30.6191 H   0  0  0  0  0  0  0  0  0  0  0  0
    6.7127  -10.4545   29.9505 H   0  0  0  0  0  0  0  0  0  0  0  0
    5.0399  -10.8419   31.0563 H   0  0  0  0  0  0  0  0  0  0  0  0
    4.0606  -10.6477   33.3425 H   0  0  0  0  0  0  0  0  0  0  0  0
    2.8782   -8.6641   34.1706 H   0  0  0  0  0  0  0  0  0  0  0  0
    4.4994   -8.2364   33.6124 H   0  0  0  0  0  0  0  0  0  0  0  0
    3.0869   -7.8484   32.6158 H   0  0  0  0  0  0  0  0  0  0  0  0
    1.3587   -9.8277   32.6650 H   0  0  0  0  0  0  0  0  0  0  0  0
    1.9104  -10.7277   31.2636 H   0  0  0  0  0  0  0  0  0  0  0  0
    1.9801  -12.6964   32.6108 H   0  0  0  0  0  0  0  0  0  0  0  0
   -0.3193  -11.6533   32.0236 H   0  0  0  0  0  0  0  0  0  0  0  0
   -0.4270  -11.5222   33.7824 H   0  0  0  0  0  0  0  0  0  0  0  0
    0.8859  -14.5249   34.5047 H   0  0  0  0  0  0  0  0  0  0  0  0
   -0.4175  -16.7765   34.1104 H   0  0  0  0  0  0  0  0  0  0  0  0
   -2.2586  -13.4176   31.7187 H   0  0  0  0  0  0  0  0  0  0  0  0
  1  2  1  0
  2  3  1  0
  3  4  2  0
  4  5  1  0
  5  6  2  0
  6  7  1  0
  7  8  1  0
  8  9  1  0
  8 10  1  0
 10 11  1  0
 11 12  2  0
 11 13  1  0
 13 14  1  0
 14 15  1  0
 14 16  1  0
 16 17  1  0
 17 18  1  0
 18 19  1  0
 19 20  1  0
 20 21  2  0
 21 22  1  0
 22 23  1  0
  7  3  1  0
 23 19  2  0
  1 24  1  0
  1 25  1  0
  1 26  1  0
  2 27  1  0
  2 28  1  0
  5 29  1  0
  6 30  1  0
  8 31  1  0
  9 32  1  0
  9 33  1  0
  9 34  1  0
 10 35  1  0
 10 36  1  0
 13 37  1  0
 14 38  1  0
 15 39  1  0
 15 40  1  0
 15 41  1  0
 16 42  1  0
 16 43  1  0
 17 44  1  0
 18 45  1  0
 18 46  1  0
 20 47  1  0
 21 48  1  0
 23 49  1  0
M  END
>  <Energy>  (1695) 
78.687472310243379

>  <compound_id>  (1695) 
8221

>  <target_id>  (1695) 
1

>  <reference_id>  (1695) 
20

>  <inspiration_ids>  (1695) 
[35, 20]

>  <energy_score>  (1695) 
23.724317479625824

>  <distance_score>  (1695) 
14.40740963393434

>  <path>  (1695) 
/opt/xchem-fragalysis-2/maxwin/BulkDock/SCRATCH/511013/C8221-P20/C8221-P20.minimised.mol

>  <scratch_subdir>  (1695) 
/opt/xchem-fragalysis-2/maxwin/BulkDock/SCRATCH/511013/C8221-P20

>  <fragmenstein_runtime>  (1695) 
31.31617045402527

>  <fragmenstein_outcome>  (1695) 
too moved

>  <fragmenstein_mode>  (1695) 
expansion

>  <fragmenstein_error>  (1695) 


$$$$
C8222-P35
     RDKit          3D

 46 47  0  0  0  0  0  0  0  0999 V2000
   -1.2826  -15.2711   30.4637 C   0  0  0  0  0  0  0  0  0  0  0  0
   -2.3655  -14.9070   29.0548 C   0  0  0  0  0  0  0  0  0  0  0  0
   -0.9762  -14.8203   27.6058 C   0  0  0  0  0  0  0  0  0  0  0  0
    0.4888  -13.4393   26.5674 C   0  0  0  0  0  0  0  0  0  0  0  0
    1.8866  -13.1143   25.3140 N   0  0  0  0  0  0  0  0  0  0  0  0
    1.9236  -12.2241   23.7837 C   0  0  0  0  0  0  0  0  0  0  0  0
    1.0087  -11.6851   23.1556 O   0  0  0  0  0  0  0  0  0  0  0  0
    3.2413  -12.1431   22.9507 C   0  0  0  0  0  0  0  0  0  0  0  0
    3.6239  -10.8183   21.9988 C   0  0  0  0  0  0  0  0  0  0  0  0
    4.8260  -10.6557   21.0444 C   0  0  0  0  0  0  0  0  0  0  0  0
    4.9045  -10.8236   19.6678 C   0  0  0  0  0  0  0  0  0  0  0  0
    6.0559  -10.2820   19.1403 N   0  0  0  0  0  0  0  0  0  0  0  0
    6.7008   -9.7921   20.1693 C   0  0  0  0  0  0  0  0  0  0  0  0
    6.0153  -10.0057   21.3356 N   0  0  0  0  0  0  0  0  0  0  0  0
    6.4883   -9.6125   22.6356 C   0  0  0  0  0  0  0  0  0  0  0  0
   -3.6527  -16.0673   29.5997 N   0  0  0  0  0  0  0  0  0  0  0  0
   -5.4557  -16.2590   30.2241 C   0  0  0  0  0  0  0  0  0  0  0  0
   -6.0464  -16.7705   32.0489 C   0  0  0  0  0  0  0  0  0  0  0  0
   -7.2404  -16.0931   33.1199 C   0  0  0  0  0  0  0  0  0  0  0  0
   -7.8602  -16.7400   34.1507 C   0  0  0  0  0  0  0  0  0  0  0  0
   -7.5750  -18.3532   33.9794 S   0  0  0  0  0  0  0  0  0  0  0  0
   -6.2903  -18.0299   32.5747 C   0  0  0  0  0  0  0  0  0  0  0  0
   -0.3093  -15.7476   30.3320 H   0  0  0  0  0  0  0  0  0  0  0  0
   -1.8648  -15.8029   31.2344 H   0  0  0  0  0  0  0  0  0  0  0  0
   -0.9011  -14.3783   30.9879 H   0  0  0  0  0  0  0  0  0  0  0  0
   -2.6916  -15.4746   28.2054 H   0  0  0  0  0  0  0  0  0  0  0  0
   -1.8623  -14.8005   26.8784 H   0  0  0  0  0  0  0  0  0  0  0  0
   -0.9560  -14.4673   28.5253 H   0  0  0  0  0  0  0  0  0  0  0  0
    1.2568  -14.2134   26.7220 H   0  0  0  0  0  0  0  0  0  0  0  0
    0.7714  -12.4916   27.0829 H   0  0  0  0  0  0  0  0  0  0  0  0
    2.8287  -13.3570   25.5965 H   0  0  0  0  0  0  0  0  0  0  0  0
    3.7505  -12.6186   23.7229 H   0  0  0  0  0  0  0  0  0  0  0  0
    3.2970  -12.8556   22.1436 H   0  0  0  0  0  0  0  0  0  0  0  0
    3.6761   -9.9061   22.5828 H   0  0  0  0  0  0  0  0  0  0  0  0
    2.7506  -10.6898   21.3428 H   0  0  0  0  0  0  0  0  0  0  0  0
    4.1505  -11.2567   19.0217 H   0  0  0  0  0  0  0  0  0  0  0  0
    7.6558   -9.2869   20.1254 H   0  0  0  0  0  0  0  0  0  0  0  0
    6.1728  -10.3470   23.3741 H   0  0  0  0  0  0  0  0  0  0  0  0
    7.5798   -9.5965   22.6302 H   0  0  0  0  0  0  0  0  0  0  0  0
    6.0855   -8.6249   22.8699 H   0  0  0  0  0  0  0  0  0  0  0  0
   -3.8908  -16.4353   28.6776 H   0  0  0  0  0  0  0  0  0  0  0  0
   -5.9303  -15.2955   30.0181 H   0  0  0  0  0  0  0  0  0  0  0  0
   -5.7722  -17.0452   29.5574 H   0  0  0  0  0  0  0  0  0  0  0  0
   -7.7980  -15.1826   32.8635 H   0  0  0  0  0  0  0  0  0  0  0  0
   -8.6099  -16.3550   34.8277 H   0  0  0  0  0  0  0  0  0  0  0  0
   -5.8575  -18.9881   32.3177 H   0  0  0  0  0  0  0  0  0  0  0  0
  1  2  1  0
  2  3  1  0
  3  4  1  0
  4  5  1  0
  5  6  1  0
  6  7  2  0
  6  8  1  0
  8  9  1  0
  9 10  1  0
 10 11  2  0
 11 12  1  0
 12 13  2  0
 13 14  1  0
 14 15  1  0
  2 16  1  0
 16 17  1  0
 17 18  1  0
 18 19  1  0
 19 20  2  0
 20 21  1  0
 21 22  1  0
 14 10  1  0
 22 18  2  0
  1 23  1  0
  1 24  1  0
  1 25  1  0
  2 26  1  0
  3 27  1  0
  3 28  1  0
  4 29  1  0
  4 30  1  0
  5 31  1  0
  8 32  1  0
  8 33  1  0
  9 34  1  0
  9 35  1  0
 11 36  1  0
 13 37  1  0
 15 38  1  0
 15 39  1  0
 15 40  1  0
 16 41  1  0
 17 42  1  0
 17 43  1  0
 19 44  1  0
 20 45  1  0
 22 46  1  0
M  END
>  <Energy>  (1696) 
850.2013559493696

>  <compound_id>  (1696) 
8222

>  <target_id>  (1696) 
1

>  <reference_id>  (1696) 
35

>  <inspiration_ids>  (1696) 
[35, 20]

>  <energy_score>  (1696) 
813.9007394854732

>  <distance_score>  (1696) 
11.048666980807463

>  <path>  (1696) 
/opt/xchem-fragalysis-2/maxwin/BulkDock/SCRATCH/511013/C8222-P35/C8222-P35.minimised.mol

>  <scratch_subdir>  (1696) 
/opt/xchem-fragalysis-2/maxwin/BulkDock/SCRATCH/511013/C8222-P35

>  <fragmenstein_runtime>  (1696) 
24.652262926101685

>  <fragmenstein_outcome>  (1696) 
too moved

>  <fragmenstein_mode>  (1696) 
expansion

>  <fragmenstein_error>  (1696) 


$$$$
C8222-P20
     RDKit          3D

 46 47  0  0  0  0  0  0  0  0999 V2000
   -0.9118  -15.0093   31.0686 C   0  0  0  0  0  0  0  0  0  0  0  0
   -1.7953  -15.1162   29.8792 C   0  0  0  0  0  0  0  0  0  0  0  0
   -0.8795  -15.3884   28.1948 C   0  0  0  0  0  0  0  0  0  0  0  0
    1.2508  -15.3361   27.7515 C   0  0  0  0  0  0  0  0  0  0  0  0
    2.6408  -14.0459   27.3014 N   0  0  0  0  0  0  0  0  0  0  0  0
    4.0650  -14.2072   26.3545 C   0  0  0  0  0  0  0  0  0  0  0  0
    4.4054  -15.1501   25.7079 O   0  0  0  0  0  0  0  0  0  0  0  0
    5.5014  -12.8543   26.3606 C   0  0  0  0  0  0  0  0  0  0  0  0
    7.1589  -12.6986   26.3048 C   0  0  0  0  0  0  0  0  0  0  0  0
    7.8287  -11.7475   25.2365 C   0  0  0  0  0  0  0  0  0  0  0  0
    7.3886  -10.8811   24.2390 C   0  0  0  0  0  0  0  0  0  0  0  0
    8.4121  -10.2188   23.6014 N   0  0  0  0  0  0  0  0  0  0  0  0
    9.5015  -10.6927   24.1485 C   0  0  0  0  0  0  0  0  0  0  0  0
    9.2103  -11.6124   25.1221 N   0  0  0  0  0  0  0  0  0  0  0  0
   10.1967  -12.3376   25.8884 C   0  0  0  0  0  0  0  0  0  0  0  0
   -3.0890  -15.9339   30.6624 N   0  0  0  0  0  0  0  0  0  0  0  0
   -3.7543  -16.3842   32.3903 C   0  0  0  0  0  0  0  0  0  0  0  0
   -5.6615  -16.7686   32.6772 C   0  0  0  0  0  0  0  0  0  0  0  0
   -6.8594  -16.0646   33.5667 C   0  0  0  0  0  0  0  0  0  0  0  0
   -8.0631  -16.6455   33.8687 C   0  0  0  0  0  0  0  0  0  0  0  0
   -7.6953  -18.2589   33.8783 S   0  0  0  0  0  0  0  0  0  0  0  0
   -6.3756  -17.9891   32.6354 C   0  0  0  0  0  0  0  0  0  0  0  0
   -0.1013  -15.7315   30.9522 H   0  0  0  0  0  0  0  0  0  0  0  0
   -1.5067  -15.2565   31.9236 H   0  0  0  0  0  0  0  0  0  0  0  0
   -0.6137  -13.9931   31.3387 H   0  0  0  0  0  0  0  0  0  0  0  0
   -2.3789  -14.2837   29.5063 H   0  0  0  0  0  0  0  0  0  0  0  0
   -1.3313  -16.3118   27.7369 H   0  0  0  0  0  0  0  0  0  0  0  0
   -1.5343  -14.8061   27.5550 H   0  0  0  0  0  0  0  0  0  0  0  0
    1.6796  -16.3544   27.7672 H   0  0  0  0  0  0  0  0  0  0  0  0
    1.0466  -14.7140   26.8673 H   0  0  0  0  0  0  0  0  0  0  0  0
    2.5773  -13.0941   27.6604 H   0  0  0  0  0  0  0  0  0  0  0  0
    5.4244  -12.2749   25.4735 H   0  0  0  0  0  0  0  0  0  0  0  0
    5.3729  -12.3858   27.3520 H   0  0  0  0  0  0  0  0  0  0  0  0
    7.6724  -13.6643   26.3159 H   0  0  0  0  0  0  0  0  0  0  0  0
    7.4347  -12.2262   27.2605 H   0  0  0  0  0  0  0  0  0  0  0  0
    6.3814  -10.6841   23.9153 H   0  0  0  0  0  0  0  0  0  0  0  0
   10.5142  -10.4187   23.8824 H   0  0  0  0  0  0  0  0  0  0  0  0
   10.0975  -13.4014   25.6589 H   0  0  0  0  0  0  0  0  0  0  0  0
   10.0180  -12.1513   26.9502 H   0  0  0  0  0  0  0  0  0  0  0  0
   11.1977  -11.9922   25.6178 H   0  0  0  0  0  0  0  0  0  0  0  0
   -3.8593  -15.8678   30.0097 H   0  0  0  0  0  0  0  0  0  0  0  0
   -3.2028  -17.2881   32.5013 H   0  0  0  0  0  0  0  0  0  0  0  0
   -3.4011  -15.6152   33.0753 H   0  0  0  0  0  0  0  0  0  0  0  0
   -6.7019  -15.2198   34.2467 H   0  0  0  0  0  0  0  0  0  0  0  0
   -8.8983  -16.2355   34.4195 H   0  0  0  0  0  0  0  0  0  0  0  0
   -6.0256  -18.9810   32.3862 H   0  0  0  0  0  0  0  0  0  0  0  0
  1  2  1  0
  2  3  1  0
  3  4  1  0
  4  5  1  0
  5  6  1  0
  6  7  2  0
  6  8  1  0
  8  9  1  0
  9 10  1  0
 10 11  2  0
 11 12  1  0
 12 13  2  0
 13 14  1  0
 14 15  1  0
  2 16  1  0
 16 17  1  0
 17 18  1  0
 18 19  1  0
 19 20  2  0
 20 21  1  0
 21 22  1  0
 14 10  1  0
 22 18  2  0
  1 23  1  0
  1 24  1  0
  1 25  1  0
  2 26  1  0
  3 27  1  0
  3 28  1  0
  4 29  1  0
  4 30  1  0
  5 31  1  0
  8 32  1  0
  8 33  1  0
  9 34  1  0
  9 35  1  0
 11 36  1  0
 13 37  1  0
 15 38  1  0
 15 39  1  0
 15 40  1  0
 16 41  1  0
 17 42  1  0
 17 43  1  0
 19 44  1  0
 20 45  1  0
 22 46  1  0
M  END
>  <Energy>  (1697) 
631.00260439808767

>  <compound_id>  (1697) 
8222

>  <target_id>  (1697) 
1

>  <reference_id>  (1697) 
20

>  <inspiration_ids>  (1697) 
[35, 20]

>  <energy_score>  (1697) 
594.7019879341917

>  <distance_score>  (1697) 
11.732233216797624

>  <path>  (1697) 
/opt/xchem-fragalysis-2/maxwin/BulkDock/SCRATCH/511013/C8222-P20/C8222-P20.minimised.mol

>  <scratch_subdir>  (1697) 
/opt/xchem-fragalysis-2/maxwin/BulkDock/SCRATCH/511013/C8222-P20

>  <fragmenstein_runtime>  (1697) 
28.884471654891968

>  <fragmenstein_outcome>  (1697) 
too moved

>  <fragmenstein_mode>  (1697) 
expansion

>  <fragmenstein_error>  (1697) 


$$$$
C8225-P35
     RDKit          3D

 45 46  0  0  0  0  0  0  0  0999 V2000
    8.9496   -7.8794   20.0477 C   0  0  0  0  0  0  0  0  0  0  0  0
    7.1475   -7.2630   21.1764 C   0  0  0  0  0  0  0  0  0  0  0  0
    6.3187   -7.0526   22.8965 C   0  0  0  0  0  0  0  0  0  0  0  0
    4.6102   -8.0093   23.2691 N   0  0  0  0  0  0  0  0  0  0  0  0
    3.4075   -9.7442   23.1238 C   0  0  0  0  0  0  0  0  0  0  0  0
    4.8385  -10.7481   22.5411 C   0  0  0  0  0  0  0  0  0  0  0  0
    1.9789   -8.9265   21.8929 C   0  0  0  0  0  0  0  0  0  0  0  0
    2.6156  -11.6899   23.3035 C   0  0  0  0  0  0  0  0  0  0  0  0
    3.3897  -12.5079   23.6372 O   0  0  0  0  0  0  0  0  0  0  0  0
    0.9482  -12.0829   23.1064 N   0  0  0  0  0  0  0  0  0  0  0  0
   -0.1157  -13.8555   23.5008 C   0  0  0  0  0  0  0  0  0  0  0  0
   -1.4394  -13.9323   24.9680 C   0  0  0  0  0  0  0  0  0  0  0  0
   -0.3889  -15.4641   22.8437 C   0  0  0  0  0  0  0  0  0  0  0  0
   -1.5955  -16.2800   23.1865 N   0  0  0  0  0  0  0  0  0  0  0  0
   -1.7128  -17.6338   23.6914 C   0  0  0  0  0  0  0  0  0  0  0  0
   -0.8775  -18.4674   23.8854 O   0  0  0  0  0  0  0  0  0  0  0  0
   -3.1014  -18.0249   24.1426 C   0  0  0  0  0  0  0  0  0  0  0  0
   -4.2359  -17.2086   24.5101 C   0  0  0  0  0  0  0  0  0  0  0  0
   -5.2850  -17.9280   25.0573 C   0  0  0  0  0  0  0  0  0  0  0  0
   -4.9547  -19.5997   25.1261 S   0  0  0  0  0  0  0  0  0  0  0  0
   -3.4026  -19.3539   24.4501 C   0  0  0  0  0  0  0  0  0  0  0  0
    5.6884   -7.3583   22.0755 C   0  0  0  0  0  0  0  0  0  0  0  0
    6.2141   -7.6488   20.5937 N   0  0  0  0  0  0  0  0  0  0  0  0
    8.8877   -8.7350   19.2622 H   0  0  0  0  0  0  0  0  0  0  0  0
    9.4793   -7.0205   19.5915 H   0  0  0  0  0  0  0  0  0  0  0  0
    9.8631   -8.2100   20.6422 H   0  0  0  0  0  0  0  0  0  0  0  0
    6.8321   -7.1103   23.8510 H   0  0  0  0  0  0  0  0  0  0  0  0
    5.6169  -10.8665   23.3208 H   0  0  0  0  0  0  0  0  0  0  0  0
    5.4135  -10.8860   21.6297 H   0  0  0  0  0  0  0  0  0  0  0  0
    4.2417  -11.5523   22.1356 H   0  0  0  0  0  0  0  0  0  0  0  0
    0.9118   -9.3884   21.8274 H   0  0  0  0  0  0  0  0  0  0  0  0
    1.8368   -9.3630   20.9035 H   0  0  0  0  0  0  0  0  0  0  0  0
    1.4213   -8.0926   22.3168 H   0  0  0  0  0  0  0  0  0  0  0  0
    0.4671  -11.2641   22.7347 H   0  0  0  0  0  0  0  0  0  0  0  0
    0.7249  -14.2282   24.0580 H   0  0  0  0  0  0  0  0  0  0  0  0
   -2.0345  -13.0446   25.2333 H   0  0  0  0  0  0  0  0  0  0  0  0
   -1.7294  -14.4596   25.8910 H   0  0  0  0  0  0  0  0  0  0  0  0
   -1.9958  -14.8398   24.6528 H   0  0  0  0  0  0  0  0  0  0  0  0
    0.2820  -16.0484   23.4383 H   0  0  0  0  0  0  0  0  0  0  0  0
   -0.0311  -15.8315   21.9023 H   0  0  0  0  0  0  0  0  0  0  0  0
   -2.5192  -15.8898   23.0734 H   0  0  0  0  0  0  0  0  0  0  0  0
   -4.2681  -16.1298   24.4372 H   0  0  0  0  0  0  0  0  0  0  0  0
   -6.2235  -17.5493   25.4395 H   0  0  0  0  0  0  0  0  0  0  0  0
   -2.7462  -20.2062   24.3276 H   0  0  0  0  0  0  0  0  0  0  0  0
    4.8498   -8.0016   21.9509 H   0  0  0  0  0  0  0  0  0  0  0  0
  1  2  1  0
  2  3  2  0
  3  4  1  0
  4  5  1  0
  5  6  1  0
  5  7  1  0
  5  8  1  0
  8  9  2  0
  8 10  1  0
 10 11  1  0
 11 12  1  0
 11 13  1  0
 13 14  1  0
 14 15  1  0
 15 16  2  0
 15 17  1  0
 17 18  1  0
 18 19  2  0
 19 20  1  0
 20 21  1  0
  4 22  1  0
 22 23  2  0
 23  2  1  0
 21 17  2  0
  1 24  1  0
  1 25  1  0
  1 26  1  0
  3 27  1  0
  6 28  1  0
  6 29  1  0
  6 30  1  0
  7 31  1  0
  7 32  1  0
  7 33  1  0
 10 34  1  0
 11 35  1  0
 12 36  1  0
 12 37  1  0
 12 38  1  0
 13 39  1  0
 13 40  1  0
 14 41  1  0
 18 42  1  0
 19 43  1  0
 21 44  1  0
 22 45  1  0
M  END
>  <Energy>  (1698) 
1641.6287950613764

>  <compound_id>  (1698) 
8225

>  <target_id>  (1698) 
1

>  <reference_id>  (1698) 
35

>  <inspiration_ids>  (1698) 
[35, 20]

>  <energy_score>  (1698) 
1576.820249867856

>  <distance_score>  (1698) 
11.947773142109082

>  <path>  (1698) 
/opt/xchem-fragalysis-2/maxwin/BulkDock/SCRATCH/511013/C8225-P35/C8225-P35.minimised.mol

>  <scratch_subdir>  (1698) 
/opt/xchem-fragalysis-2/maxwin/BulkDock/SCRATCH/511013/C8225-P35

>  <fragmenstein_runtime>  (1698) 
36.29234504699707

>  <fragmenstein_outcome>  (1698) 
too moved

>  <fragmenstein_mode>  (1698) 
expansion

>  <fragmenstein_error>  (1698) 


$$$$
C8225-P20
     RDKit          3D

 45 46  0  0  0  0  0  0  0  0999 V2000
    4.6873   -7.8101   15.9736 C   0  0  0  0  0  0  0  0  0  0  0  0
    3.2558   -7.6807   15.5965 C   0  0  0  0  0  0  0  0  0  0  0  0
    2.1740   -8.5011   15.8886 C   0  0  0  0  0  0  0  0  0  0  0  0
    1.0678   -7.9358   15.2915 N   0  0  0  0  0  0  0  0  0  0  0  0
   -0.3826   -8.4018   15.2411 C   0  0  0  0  0  0  0  0  0  0  0  0
   -0.7758   -8.4968   13.7391 C   0  0  0  0  0  0  0  0  0  0  0  0
   -1.3002   -7.3390   15.8717 C   0  0  0  0  0  0  0  0  0  0  0  0
   -0.6534   -9.9032   15.7857 C   0  0  0  0  0  0  0  0  0  0  0  0
    0.0896  -10.7290   15.3212 O   0  0  0  0  0  0  0  0  0  0  0  0
   -1.7985  -10.0529   16.6901 N   0  0  0  0  0  0  0  0  0  0  0  0
   -2.4668  -11.2863   17.2426 C   0  0  0  0  0  0  0  0  0  0  0  0
   -3.5692  -11.7008   16.2702 C   0  0  0  0  0  0  0  0  0  0  0  0
   -3.0389  -11.0947   18.6920 C   0  0  0  0  0  0  0  0  0  0  0  0
   -3.8047  -12.1563   19.3921 N   0  0  0  0  0  0  0  0  0  0  0  0
   -3.6774  -13.5934   19.3608 C   0  0  0  0  0  0  0  0  0  0  0  0
   -2.9736  -14.2981   18.7007 O   0  0  0  0  0  0  0  0  0  0  0  0
   -4.5169  -14.3063   20.4233 C   0  0  0  0  0  0  0  0  0  0  0  0
   -4.2481  -15.6664   20.8882 C   0  0  0  0  0  0  0  0  0  0  0  0
   -5.0972  -16.1224   21.8772 C   0  0  0  0  0  0  0  0  0  0  0  0
   -6.2613  -14.9485   22.2823 S   0  0  0  0  0  0  0  0  0  0  0  0
   -5.6277  -13.8403   21.1184 C   0  0  0  0  0  0  0  0  0  0  0  0
    1.5501   -6.7859   14.6803 C   0  0  0  0  0  0  0  0  0  0  0  0
    2.8409   -6.6049   14.8572 N   0  0  0  0  0  0  0  0  0  0  0  0
    4.9699   -7.0119   16.6661 H   0  0  0  0  0  0  0  0  0  0  0  0
    4.8674   -8.7763   16.4525 H   0  0  0  0  0  0  0  0  0  0  0  0
    5.3173   -7.7472   15.0823 H   0  0  0  0  0  0  0  0  0  0  0  0
    2.1235   -9.4209   16.4524 H   0  0  0  0  0  0  0  0  0  0  0  0
   -0.0741   -9.1297   13.1824 H   0  0  0  0  0  0  0  0  0  0  0  0
   -0.7904   -7.5151   13.2527 H   0  0  0  0  0  0  0  0  0  0  0  0
   -1.7744   -8.9348   13.6210 H   0  0  0  0  0  0  0  0  0  0  0  0
   -1.0531   -6.3233   15.5452 H   0  0  0  0  0  0  0  0  0  0  0  0
   -2.3493   -7.5088   15.5992 H   0  0  0  0  0  0  0  0  0  0  0  0
   -1.2516   -7.3619   16.9627 H   0  0  0  0  0  0  0  0  0  0  0  0
   -2.1422   -9.1393   16.9411 H   0  0  0  0  0  0  0  0  0  0  0  0
   -1.7082  -12.0759   17.2553 H   0  0  0  0  0  0  0  0  0  0  0  0
   -3.1633  -11.8458   15.2629 H   0  0  0  0  0  0  0  0  0  0  0  0
   -4.0437  -12.6376   16.5761 H   0  0  0  0  0  0  0  0  0  0  0  0
   -4.3444  -10.9295   16.2039 H   0  0  0  0  0  0  0  0  0  0  0  0
   -3.6996  -10.2190   18.6918 H   0  0  0  0  0  0  0  0  0  0  0  0
   -2.2136  -10.8485   19.3662 H   0  0  0  0  0  0  0  0  0  0  0  0
   -4.4396  -11.8982   20.1327 H   0  0  0  0  0  0  0  0  0  0  0  0
   -3.4351  -16.2675   20.4929 H   0  0  0  0  0  0  0  0  0  0  0  0
   -5.0823  -17.0851   22.3709 H   0  0  0  0  0  0  0  0  0  0  0  0
   -6.1326  -12.8909   21.0135 H   0  0  0  0  0  0  0  0  0  0  0  0
    0.9082   -6.1173   14.1225 H   0  0  0  0  0  0  0  0  0  0  0  0
  1  2  1  0
  2  3  2  0
  3  4  1  0
  4  5  1  0
  5  6  1  0
  5  7  1  0
  5  8  1  0
  8  9  2  0
  8 10  1  0
 10 11  1  0
 11 12  1  0
 11 13  1  0
 13 14  1  0
 14 15  1  0
 15 16  2  0
 15 17  1  0
 17 18  1  0
 18 19  2  0
 19 20  1  0
 20 21  1  0
  4 22  1  0
 22 23  2  0
 23  2  1  0
 21 17  2  0
  1 24  1  0
  1 25  1  0
  1 26  1  0
  3 27  1  0
  6 28  1  0
  6 29  1  0
  6 30  1  0
  7 31  1  0
  7 32  1  0
  7 33  1  0
 10 34  1  0
 11 35  1  0
 12 36  1  0
 12 37  1  0
 12 38  1  0
 13 39  1  0
 13 40  1  0
 14 41  1  0
 18 42  1  0
 19 43  1  0
 21 44  1  0
 22 45  1  0
M  END
>  <Energy>  (1699) 
51.27093399757603

>  <compound_id>  (1699) 
8225

>  <target_id>  (1699) 
1

>  <reference_id>  (1699) 
20

>  <inspiration_ids>  (1699) 
[35, 20]

>  <energy_score>  (1699) 
-13.537611195960324

>  <distance_score>  (1699) 
14.892414461387535

>  <path>  (1699) 
/opt/xchem-fragalysis-2/maxwin/BulkDock/SCRATCH/511013/C8225-P20/C8225-P20.minimised.mol

>  <scratch_subdir>  (1699) 
/opt/xchem-fragalysis-2/maxwin/BulkDock/SCRATCH/511013/C8225-P20

>  <fragmenstein_runtime>  (1699) 
30.48375153541565

>  <fragmenstein_outcome>  (1699) 
too moved

>  <fragmenstein_mode>  (1699) 
expansion

>  <fragmenstein_error>  (1699) 


$$$$
C8226-P35
     RDKit          3D

 45 46  0  0  0  0  0  0  0  0999 V2000
    2.7317   -7.1296   17.8135 C   0  0  0  0  0  0  0  0  0  0  0  0
    2.8293   -8.3604   18.7031 C   0  0  0  0  0  0  0  0  0  0  0  0
    3.1787   -8.0120   20.1151 C   0  0  0  0  0  0  0  0  0  0  0  0
    4.4081   -7.4324   20.3785 N   0  0  0  0  0  0  0  0  0  0  0  0
    4.3174   -7.0131   21.6155 C   0  0  0  0  0  0  0  0  0  0  0  0
    3.1141   -7.3458   22.1711 N   0  0  0  0  0  0  0  0  0  0  0  0
    2.3909   -8.1116   21.2750 C   0  0  0  0  0  0  0  0  0  0  0  0
    0.9491   -8.4496   21.4514 C   0  0  0  0  0  0  0  0  0  0  0  0
    0.3280   -7.5228   21.9073 O   0  0  0  0  0  0  0  0  0  0  0  0
    0.4861   -9.7601   20.9683 N   0  0  0  0  0  0  0  0  0  0  0  0
   -0.8940  -10.2913   20.7909 C   0  0  0  0  0  0  0  0  0  0  0  0
   -1.5562   -9.3863   19.7237 C   0  0  0  0  0  0  0  0  0  0  0  0
    0.4934  -10.9986   22.3405 C   0  0  0  0  0  0  0  0  0  0  0  0
    1.9643  -11.8601   23.4769 C   0  0  0  0  0  0  0  0  0  0  0  0
    2.3462  -13.1079   24.5934 N   0  0  0  0  0  0  0  0  0  0  0  0
    1.5911  -13.5913   26.2532 C   0  0  0  0  0  0  0  0  0  0  0  0
    0.7558  -12.8757   26.6516 O   0  0  0  0  0  0  0  0  0  0  0  0
    1.8248  -15.2391   27.5875 C   0  0  0  0  0  0  0  0  0  0  0  0
    0.7671  -16.5337   28.6342 C   0  0  0  0  0  0  0  0  0  0  0  0
    0.6178  -16.7090   30.1281 C   0  0  0  0  0  0  0  0  0  0  0  0
   -0.3905  -17.5571   30.5558 C   0  0  0  0  0  0  0  0  0  0  0  0
   -1.1629  -18.3287   29.2673 S   0  0  0  0  0  0  0  0  0  0  0  0
   -0.1060  -17.5676   28.1452 C   0  0  0  0  0  0  0  0  0  0  0  0
    2.4658   -7.4194   16.7921 H   0  0  0  0  0  0  0  0  0  0  0  0
    1.9672   -6.4373   18.1823 H   0  0  0  0  0  0  0  0  0  0  0  0
    3.6837   -6.5891   17.7747 H   0  0  0  0  0  0  0  0  0  0  0  0
    3.5946   -9.0369   18.3051 H   0  0  0  0  0  0  0  0  0  0  0  0
    1.8751   -8.8959   18.6614 H   0  0  0  0  0  0  0  0  0  0  0  0
    5.0636   -6.4421   22.1494 H   0  0  0  0  0  0  0  0  0  0  0  0
    2.7429   -7.0331   23.0603 H   0  0  0  0  0  0  0  0  0  0  0  0
   -0.9721  -11.2573   20.2996 H   0  0  0  0  0  0  0  0  0  0  0  0
   -1.5544  -10.1278   21.6462 H   0  0  0  0  0  0  0  0  0  0  0  0
   -2.5733   -9.7327   19.5128 H   0  0  0  0  0  0  0  0  0  0  0  0
   -0.9850   -9.4028   18.7889 H   0  0  0  0  0  0  0  0  0  0  0  0
   -1.6164   -8.3471   20.0637 H   0  0  0  0  0  0  0  0  0  0  0  0
   -0.3629  -11.6166   22.3907 H   0  0  0  0  0  0  0  0  0  0  0  0
   -0.0474  -10.2442   22.9188 H   0  0  0  0  0  0  0  0  0  0  0  0
    1.7120  -11.5461   24.4327 H   0  0  0  0  0  0  0  0  0  0  0  0
    2.9546  -11.7447   23.0737 H   0  0  0  0  0  0  0  0  0  0  0  0
    3.1207  -13.7485   24.3923 H   0  0  0  0  0  0  0  0  0  0  0  0
    2.0347  -16.2965   27.2003 H   0  0  0  0  0  0  0  0  0  0  0  0
    2.8701  -15.1455   27.8713 H   0  0  0  0  0  0  0  0  0  0  0  0
    1.1834  -16.1847   30.8789 H   0  0  0  0  0  0  0  0  0  0  0  0
   -0.6913  -17.7567   31.5753 H   0  0  0  0  0  0  0  0  0  0  0  0
   -0.2399  -17.9101   27.1307 H   0  0  0  0  0  0  0  0  0  0  0  0
  1  2  1  0
  2  3  1  0
  3  4  1  0
  4  5  2  0
  5  6  1  0
  6  7  1  0
  7  8  1  0
  8  9  2  0
  8 10  1  0
 10 11  1  0
 11 12  1  0
 10 13  1  0
 13 14  1  0
 14 15  1  0
 15 16  1  0
 16 17  2  0
 16 18  1  0
 18 19  1  0
 19 20  1  0
 20 21  2  0
 21 22  1  0
 22 23  1  0
  7  3  2  0
 23 19  2  0
  1 24  1  0
  1 25  1  0
  1 26  1  0
  2 27  1  0
  2 28  1  0
  5 29  1  0
  6 30  1  0
 11 31  1  0
 11 32  1  0
 12 33  1  0
 12 34  1  0
 12 35  1  0
 13 36  1  0
 13 37  1  0
 14 38  1  0
 14 39  1  0
 15 40  1  0
 18 41  1  0
 18 42  1  0
 20 43  1  0
 21 44  1  0
 23 45  1  0
M  END
>  <Energy>  (1700) 
580.85804547814416

>  <compound_id>  (1700) 
8226

>  <target_id>  (1700) 
1

>  <reference_id>  (1700) 
35

>  <inspiration_ids>  (1700) 
[35, 20]

>  <energy_score>  (1700) 
544.0462732553226

>  <distance_score>  (1700) 
14.371762225278673

>  <path>  (1700) 
/opt/xchem-fragalysis-2/maxwin/BulkDock/SCRATCH/511013/C8226-P35/C8226-P35.minimised.mol

>  <scratch_subdir>  (1700) 
/opt/xchem-fragalysis-2/maxwin/BulkDock/SCRATCH/511013/C8226-P35

>  <fragmenstein_runtime>  (1700) 
17.33070993423462

>  <fragmenstein_outcome>  (1700) 
too moved

>  <fragmenstein_mode>  (1700) 
expansion

>  <fragmenstein_error>  (1700) 


$$$$
C8226-P20
     RDKit          3D

 45 46  0  0  0  0  0  0  0  0999 V2000
    1.7293  -15.4419   18.5226 C   0  0  0  0  0  0  0  0  0  0  0  0
    2.2383  -14.0307   18.3555 C   0  0  0  0  0  0  0  0  0  0  0  0
    3.5083  -13.6904   19.0805 C   0  0  0  0  0  0  0  0  0  0  0  0
    4.5634  -13.5726   18.1498 N   0  0  0  0  0  0  0  0  0  0  0  0
    5.5660  -13.0296   18.7622 C   0  0  0  0  0  0  0  0  0  0  0  0
    5.2447  -12.8264   20.0525 N   0  0  0  0  0  0  0  0  0  0  0  0
    3.9342  -13.3120   20.3887 C   0  0  0  0  0  0  0  0  0  0  0  0
    3.5092  -12.7680   22.0028 C   0  0  0  0  0  0  0  0  0  0  0  0
    3.7462  -11.6066   22.1107 O   0  0  0  0  0  0  0  0  0  0  0  0
    3.0141  -13.7998   23.1470 N   0  0  0  0  0  0  0  0  0  0  0  0
    2.8830  -13.5726   24.4517 C   0  0  0  0  0  0  0  0  0  0  0  0
    4.0886  -14.2849   25.3131 C   0  0  0  0  0  0  0  0  0  0  0  0
    1.1693  -14.2616   23.6424 C   0  0  0  0  0  0  0  0  0  0  0  0
   -0.4907  -14.2712   22.6614 C   0  0  0  0  0  0  0  0  0  0  0  0
   -1.7000  -14.6353   23.5041 N   0  0  0  0  0  0  0  0  0  0  0  0
   -2.6913  -15.7020   23.3494 C   0  0  0  0  0  0  0  0  0  0  0  0
   -2.8414  -16.5064   22.4737 O   0  0  0  0  0  0  0  0  0  0  0  0
   -3.6889  -15.6884   24.5577 C   0  0  0  0  0  0  0  0  0  0  0  0
   -4.2903  -17.0331   24.9913 C   0  0  0  0  0  0  0  0  0  0  0  0
   -5.6994  -17.2590   25.2241 C   0  0  0  0  0  0  0  0  0  0  0  0
   -5.9911  -18.5485   25.6165 C   0  0  0  0  0  0  0  0  0  0  0  0
   -4.5838  -19.5049   25.7553 S   0  0  0  0  0  0  0  0  0  0  0  0
   -3.5868  -18.1918   25.2826 C   0  0  0  0  0  0  0  0  0  0  0  0
    1.3665  -15.6183   19.5327 H   0  0  0  0  0  0  0  0  0  0  0  0
    0.8905  -15.6223   17.8418 H   0  0  0  0  0  0  0  0  0  0  0  0
    2.5090  -16.1725   18.2868 H   0  0  0  0  0  0  0  0  0  0  0  0
    1.4541  -13.2900   18.4940 H   0  0  0  0  0  0  0  0  0  0  0  0
    2.4475  -13.9272   17.2789 H   0  0  0  0  0  0  0  0  0  0  0  0
    6.5176  -12.7590   18.3265 H   0  0  0  0  0  0  0  0  0  0  0  0
    5.8162  -12.3008   20.6889 H   0  0  0  0  0  0  0  0  0  0  0  0
    3.2984  -12.6365   24.1991 H   0  0  0  0  0  0  0  0  0  0  0  0
    2.0527  -13.0418   24.9515 H   0  0  0  0  0  0  0  0  0  0  0  0
    4.9209  -13.6444   25.6079 H   0  0  0  0  0  0  0  0  0  0  0  0
    4.5098  -15.1047   24.7397 H   0  0  0  0  0  0  0  0  0  0  0  0
    3.8032  -14.5753   26.3214 H   0  0  0  0  0  0  0  0  0  0  0  0
    0.7133  -14.1525   24.6128 H   0  0  0  0  0  0  0  0  0  0  0  0
    1.5881  -15.1633   23.3278 H   0  0  0  0  0  0  0  0  0  0  0  0
   -0.4433  -14.9770   21.8154 H   0  0  0  0  0  0  0  0  0  0  0  0
   -0.7486  -13.3261   22.2705 H   0  0  0  0  0  0  0  0  0  0  0  0
   -1.8201  -14.1996   24.4112 H   0  0  0  0  0  0  0  0  0  0  0  0
   -3.2097  -15.2516   25.4409 H   0  0  0  0  0  0  0  0  0  0  0  0
   -4.5032  -15.0114   24.2696 H   0  0  0  0  0  0  0  0  0  0  0  0
   -6.4663  -16.5054   25.0933 H   0  0  0  0  0  0  0  0  0  0  0  0
   -6.9600  -18.9700   25.8466 H   0  0  0  0  0  0  0  0  0  0  0  0
   -2.5188  -18.3475   25.2162 H   0  0  0  0  0  0  0  0  0  0  0  0
  1  2  1  0
  2  3  1  0
  3  4  1  0
  4  5  2  0
  5  6  1  0
  6  7  1  0
  7  8  1  0
  8  9  2  0
  8 10  1  0
 10 11  1  0
 11 12  1  0
 10 13  1  0
 13 14  1  0
 14 15  1  0
 15 16  1  0
 16 17  2  0
 16 18  1  0
 18 19  1  0
 19 20  1  0
 20 21  2  0
 21 22  1  0
 22 23  1  0
  7  3  2  0
 23 19  2  0
  1 24  1  0
  1 25  1  0
  1 26  1  0
  2 27  1  0
  2 28  1  0
  5 29  1  0
  6 30  1  0
 11 31  1  0
 11 32  1  0
 12 33  1  0
 12 34  1  0
 12 35  1  0
 13 36  1  0
 13 37  1  0
 14 38  1  0
 14 39  1  0
 15 40  1  0
 18 41  1  0
 18 42  1  0
 20 43  1  0
 21 44  1  0
 23 45  1  0
M  END
>  <Energy>  (1701) 
354.34686655022387

>  <compound_id>  (1701) 
8226

>  <target_id>  (1701) 
1

>  <reference_id>  (1701) 
20

>  <inspiration_ids>  (1701) 
[35, 20]

>  <energy_score>  (1701) 
317.53509432741595

>  <distance_score>  (1701) 
13.803351755886139

>  <path>  (1701) 
/opt/xchem-fragalysis-2/maxwin/BulkDock/SCRATCH/511013/C8226-P20/C8226-P20.minimised.mol

>  <scratch_subdir>  (1701) 
/opt/xchem-fragalysis-2/maxwin/BulkDock/SCRATCH/511013/C8226-P20

>  <fragmenstein_runtime>  (1701) 
27.29971671104431

>  <fragmenstein_outcome>  (1701) 
too moved

>  <fragmenstein_mode>  (1701) 
expansion

>  <fragmenstein_error>  (1701) 


$$$$
C8230-P35
     RDKit          3D

 48 49  0  0  0  0  0  0  0  0999 V2000
    5.7724   -4.6514   20.7440 C   0  0  0  0  0  0  0  0  0  0  0  0
    6.5070   -4.8572   22.0612 C   0  0  0  0  0  0  0  0  0  0  0  0
    6.2632   -3.8346   23.1568 C   0  0  0  0  0  0  0  0  0  0  0  0
    7.5358   -5.9085   22.0250 N   0  0  0  0  0  0  0  0  0  0  0  0
    6.5467   -7.7072   23.3749 C   0  0  0  0  0  0  0  0  0  0  0  0
    4.9135   -9.1241   24.7659 C   0  0  0  0  0  0  0  0  0  0  0  0
    2.9927  -10.0472   26.2059 N   0  0  0  0  0  0  0  0  0  0  0  0
    2.3851   -8.2511   24.8074 C   0  0  0  0  0  0  0  0  0  0  0  0
    1.7579  -11.7526   26.2614 C   0  0  0  0  0  0  0  0  0  0  0  0
    0.8028  -11.9360   25.7955 O   0  0  0  0  0  0  0  0  0  0  0  0
    2.4008  -13.5497   27.1728 C   0  0  0  0  0  0  0  0  0  0  0  0
    1.9465  -15.4455   27.8250 C   0  0  0  0  0  0  0  0  0  0  0  0
    0.8625  -16.5759   28.6370 C   0  0  0  0  0  0  0  0  0  0  0  0
    1.1517  -17.9156   28.7116 C   0  0  0  0  0  0  0  0  0  0  0  0
    2.6322  -18.1738   28.0205 S   0  0  0  0  0  0  0  0  0  0  0  0
    2.8768  -16.5271   27.6300 C   0  0  0  0  0  0  0  0  0  0  0  0
    9.5329   -5.5051   20.8111 C   0  0  0  0  0  0  0  0  0  0  0  0
   10.9451   -4.8114   21.4458 O   0  0  0  0  0  0  0  0  0  0  0  0
    9.9615   -5.7774   19.1478 C   0  0  0  0  0  0  0  0  0  0  0  0
   11.6719   -5.6523   19.7877 C   0  0  0  0  0  0  0  0  0  0  0  0
   12.8585   -5.0871   19.3776 N   0  0  0  0  0  0  0  0  0  0  0  0
   12.4323   -4.3739   18.4284 C   0  0  0  0  0  0  0  0  0  0  0  0
   11.1545   -4.9144   17.9420 N   0  0  0  0  0  0  0  0  0  0  0  0
   11.4095   -4.8833   16.4755 C   0  0  0  0  0  0  0  0  0  0  0  0
    4.8948   -5.3089   20.6737 H   0  0  0  0  0  0  0  0  0  0  0  0
    5.3923   -3.6315   20.6452 H   0  0  0  0  0  0  0  0  0  0  0  0
    6.3995   -4.9274   19.8978 H   0  0  0  0  0  0  0  0  0  0  0  0
    5.7585   -5.5460   22.4752 H   0  0  0  0  0  0  0  0  0  0  0  0
    6.2736   -2.8210   22.7603 H   0  0  0  0  0  0  0  0  0  0  0  0
    6.9113   -3.9508   24.0214 H   0  0  0  0  0  0  0  0  0  0  0  0
    5.2412   -3.9405   23.5515 H   0  0  0  0  0  0  0  0  0  0  0  0
    5.6847   -7.5908   22.6999 H   0  0  0  0  0  0  0  0  0  0  0  0
    6.5334   -6.9746   24.1973 H   0  0  0  0  0  0  0  0  0  0  0  0
    5.8468   -9.1750   25.4906 H   0  0  0  0  0  0  0  0  0  0  0  0
    4.8408   -8.0880   25.2775 H   0  0  0  0  0  0  0  0  0  0  0  0
    2.4644   -8.2302   23.5540 H   0  0  0  0  0  0  0  0  0  0  0  0
    3.2796   -7.3194   24.5669 H   0  0  0  0  0  0  0  0  0  0  0  0
    1.1286   -8.1141   24.5011 H   0  0  0  0  0  0  0  0  0  0  0  0
    3.3981  -13.9476   26.8279 H   0  0  0  0  0  0  0  0  0  0  0  0
    1.6538  -13.8546   26.4099 H   0  0  0  0  0  0  0  0  0  0  0  0
   -0.1661  -16.3944   28.9684 H   0  0  0  0  0  0  0  0  0  0  0  0
    0.5423  -18.7093   29.1231 H   0  0  0  0  0  0  0  0  0  0  0  0
    3.8199  -16.2390   27.2832 H   0  0  0  0  0  0  0  0  0  0  0  0
   11.9210   -6.3202   20.6185 H   0  0  0  0  0  0  0  0  0  0  0  0
   12.9590   -3.5866   17.9025 H   0  0  0  0  0  0  0  0  0  0  0  0
   11.4167   -5.9066   16.1082 H   0  0  0  0  0  0  0  0  0  0  0  0
   12.4396   -4.5675   16.2546 H   0  0  0  0  0  0  0  0  0  0  0  0
   10.8156   -4.1054   15.9947 H   0  0  0  0  0  0  0  0  0  0  0  0
  1  2  1  0
  2  3  1  0
  2  4  1  0
  4  5  1  0
  5  6  1  0
  6  7  1  0
  7  8  1  0
  7  9  1  0
  9 10  2  0
  9 11  1  0
 11 12  1  0
 12 13  1  0
 13 14  2  0
 14 15  1  0
 15 16  1  0
  4 17  1  0
 17 18  2  0
 17 19  1  0
 19 20  2  0
 20 21  1  0
 21 22  2  0
 22 23  1  0
 23 24  1  0
 16 12  2  0
 23 19  1  0
  1 25  1  0
  1 26  1  0
  1 27  1  0
  2 28  1  0
  3 29  1  0
  3 30  1  0
  3 31  1  0
  5 32  1  0
  5 33  1  0
  6 34  1  0
  6 35  1  0
  8 36  1  0
  8 37  1  0
  8 38  1  0
 11 39  1  0
 11 40  1  0
 13 41  1  0
 14 42  1  0
 16 43  1  0
 20 44  1  0
 22 45  1  0
 24 46  1  0
 24 47  1  0
 24 48  1  0
M  END
>  <Energy>  (1702) 
4108.6398769700927

>  <compound_id>  (1702) 
8230

>  <target_id>  (1702) 
1

>  <reference_id>  (1702) 
35

>  <inspiration_ids>  (1702) 
[35, 20]

>  <energy_score>  (1702) 
4041.0916166980696

>  <distance_score>  (1702) 
12.946801326248021

>  <path>  (1702) 
/opt/xchem-fragalysis-2/maxwin/BulkDock/SCRATCH/511013/C8230-P35/C8230-P35.minimised.mol

>  <scratch_subdir>  (1702) 
/opt/xchem-fragalysis-2/maxwin/BulkDock/SCRATCH/511013/C8230-P35

>  <fragmenstein_runtime>  (1702) 
22.587498426437378

>  <fragmenstein_outcome>  (1702) 
too moved

>  <fragmenstein_mode>  (1702) 
expansion

>  <fragmenstein_error>  (1702) 


$$$$
C8230-P20
     RDKit          3D

 48 49  0  0  0  0  0  0  0  0999 V2000
    6.7878   -9.6033   28.8625 C   0  0  0  0  0  0  0  0  0  0  0  0
    7.0778  -10.8910   28.0845 C   0  0  0  0  0  0  0  0  0  0  0  0
    8.5038  -11.3720   28.3427 C   0  0  0  0  0  0  0  0  0  0  0  0
    6.7883  -10.8018   26.6412 N   0  0  0  0  0  0  0  0  0  0  0  0
    6.1594  -12.0262   26.0041 C   0  0  0  0  0  0  0  0  0  0  0  0
    5.1785  -11.9135   24.4956 C   0  0  0  0  0  0  0  0  0  0  0  0
    3.0196  -12.0598   24.1333 N   0  0  0  0  0  0  0  0  0  0  0  0
    3.7640  -11.7990   22.8336 C   0  0  0  0  0  0  0  0  0  0  0  0
    1.8649  -13.2774   24.5372 C   0  0  0  0  0  0  0  0  0  0  0  0
    1.6318  -14.1608   23.7204 O   0  0  0  0  0  0  0  0  0  0  0  0
    0.8342  -13.6574   26.4077 C   0  0  0  0  0  0  0  0  0  0  0  0
   -0.6989  -14.7565   27.5989 C   0  0  0  0  0  0  0  0  0  0  0  0
   -0.9016  -16.2601   28.6153 C   0  0  0  0  0  0  0  0  0  0  0  0
   -2.1608  -16.6370   29.0058 C   0  0  0  0  0  0  0  0  0  0  0  0
   -3.3408  -15.7604   28.1962 S   0  0  0  0  0  0  0  0  0  0  0  0
   -2.2196  -14.9190   27.2064 C   0  0  0  0  0  0  0  0  0  0  0  0
    7.1237   -9.5943   26.0038 C   0  0  0  0  0  0  0  0  0  0  0  0
    6.2928   -8.6884   25.9492 O   0  0  0  0  0  0  0  0  0  0  0  0
    8.4696   -9.3803   25.5136 C   0  0  0  0  0  0  0  0  0  0  0  0
    9.3418  -10.2013   24.8252 C   0  0  0  0  0  0  0  0  0  0  0  0
   10.4749   -9.5239   24.4339 N   0  0  0  0  0  0  0  0  0  0  0  0
   10.3808   -8.3369   24.9841 C   0  0  0  0  0  0  0  0  0  0  0  0
    9.1581   -8.1720   25.5743 N   0  0  0  0  0  0  0  0  0  0  0  0
    8.6893   -6.9371   26.1637 C   0  0  0  0  0  0  0  0  0  0  0  0
    6.8823   -9.7781   29.9399 H   0  0  0  0  0  0  0  0  0  0  0  0
    5.7690   -9.2511   28.6682 H   0  0  0  0  0  0  0  0  0  0  0  0
    7.4826   -8.8010   28.5987 H   0  0  0  0  0  0  0  0  0  0  0  0
    6.3807  -11.6254   28.4952 H   0  0  0  0  0  0  0  0  0  0  0  0
    8.7077  -12.3020   27.8015 H   0  0  0  0  0  0  0  0  0  0  0  0
    9.2443  -10.6317   28.0242 H   0  0  0  0  0  0  0  0  0  0  0  0
    8.6599  -11.5618   29.4099 H   0  0  0  0  0  0  0  0  0  0  0  0
    5.6901  -12.6512   26.7595 H   0  0  0  0  0  0  0  0  0  0  0  0
    7.0585  -12.5762   25.7074 H   0  0  0  0  0  0  0  0  0  0  0  0
    6.1914  -11.9553   23.9277 H   0  0  0  0  0  0  0  0  0  0  0  0
    5.5765  -10.8631   23.9916 H   0  0  0  0  0  0  0  0  0  0  0  0
    3.0980  -10.9503   22.7315 H   0  0  0  0  0  0  0  0  0  0  0  0
    3.4883  -12.7091   22.3142 H   0  0  0  0  0  0  0  0  0  0  0  0
    4.5753  -11.1417   22.4552 H   0  0  0  0  0  0  0  0  0  0  0  0
    0.8045  -12.6144   26.7819 H   0  0  0  0  0  0  0  0  0  0  0  0
    1.7580  -14.0318   26.8675 H   0  0  0  0  0  0  0  0  0  0  0  0
    0.0036  -16.7803   28.9379 H   0  0  0  0  0  0  0  0  0  0  0  0
   -2.4317  -17.4266   29.6928 H   0  0  0  0  0  0  0  0  0  0  0  0
   -2.6545  -14.4748   26.3148 H   0  0  0  0  0  0  0  0  0  0  0  0
    9.1966  -11.2376   24.5481 H   0  0  0  0  0  0  0  0  0  0  0  0
   11.1352   -7.5590   24.9526 H   0  0  0  0  0  0  0  0  0  0  0  0
    8.3173   -7.1428   27.1689 H   0  0  0  0  0  0  0  0  0  0  0  0
    7.8993   -6.5315   25.5270 H   0  0  0  0  0  0  0  0  0  0  0  0
    9.5184   -6.2271   26.2231 H   0  0  0  0  0  0  0  0  0  0  0  0
  1  2  1  0
  2  3  1  0
  2  4  1  0
  4  5  1  0
  5  6  1  0
  6  7  1  0
  7  8  1  0
  7  9  1  0
  9 10  2  0
  9 11  1  0
 11 12  1  0
 12 13  1  0
 13 14  2  0
 14 15  1  0
 15 16  1  0
  4 17  1  0
 17 18  2  0
 17 19  1  0
 19 20  2  0
 20 21  1  0
 21 22  2  0
 22 23  1  0
 23 24  1  0
 16 12  2  0
 23 19  1  0
  1 25  1  0
  1 26  1  0
  1 27  1  0
  2 28  1  0
  3 29  1  0
  3 30  1  0
  3 31  1  0
  5 32  1  0
  5 33  1  0
  6 34  1  0
  6 35  1  0
  8 36  1  0
  8 37  1  0
  8 38  1  0
 11 39  1  0
 11 40  1  0
 13 41  1  0
 14 42  1  0
 16 43  1  0
 20 44  1  0
 22 45  1  0
 24 46  1  0
 24 47  1  0
 24 48  1  0
M  END
>  <Energy>  (1703) 
875.11250851558077

>  <compound_id>  (1703) 
8230

>  <target_id>  (1703) 
1

>  <reference_id>  (1703) 
20

>  <inspiration_ids>  (1703) 
[35, 20]

>  <energy_score>  (1703) 
807.5642482435796

>  <distance_score>  (1703) 
14.370112183777467

>  <path>  (1703) 
/opt/xchem-fragalysis-2/maxwin/BulkDock/SCRATCH/511013/C8230-P20/C8230-P20.minimised.mol

>  <scratch_subdir>  (1703) 
/opt/xchem-fragalysis-2/maxwin/BulkDock/SCRATCH/511013/C8230-P20

>  <fragmenstein_runtime>  (1703) 
25.096498012542725

>  <fragmenstein_outcome>  (1703) 
too moved

>  <fragmenstein_mode>  (1703) 
expansion

>  <fragmenstein_error>  (1703) 


$$$$
C25048-P122
     RDKit          3D

 39 40  0  0  0  0  0  0  0  0999 V2000
   11.2938  -17.3311    2.8079 C   0  0  0  0  0  0  0  0  0  0  0  0
   11.1487  -15.8739    2.5272 N   0  0  0  0  0  0  0  0  0  0  0  0
   12.5216  -16.0732    1.9398 C   0  0  0  0  0  0  0  0  0  0  0  0
   10.3104  -15.1809    1.5983 C   0  0  0  0  0  0  0  0  0  0  0  0
    9.5732  -15.6025    0.7435 O   0  0  0  0  0  0  0  0  0  0  0  0
   10.4049  -13.6804    1.8454 C   0  0  0  0  0  0  0  0  0  0  0  0
    9.2810  -13.1813    2.6168 N   0  0  0  0  0  0  0  0  0  0  0  0
    7.9559  -13.3148    2.3239 C   0  0  0  0  0  0  0  0  0  0  0  0
    7.2074  -12.5807    3.2882 C   0  0  0  0  0  0  0  0  0  0  0  0
    5.4616  -12.7371    3.6880 N   0  0  0  0  0  0  0  0  0  0  0  0
    4.6984  -13.5290    4.9220 C   0  0  0  0  0  0  0  0  0  0  0  0
    5.2696  -14.2055    5.6991 O   0  0  0  0  0  0  0  0  0  0  0  0
    2.7695  -13.6598    5.2514 C   0  0  0  0  0  0  0  0  0  0  0  0
    2.6609  -14.9572    6.0069 C   0  0  0  0  0  0  0  0  0  0  0  0
    3.1922  -16.2836    6.5498 C   0  0  0  0  0  0  0  0  0  0  0  0
    1.9090  -16.9757    6.4952 N   0  0  0  0  0  0  0  0  0  0  0  0
    0.9963  -16.1696    5.5793 C   0  0  0  0  0  0  0  0  0  0  0  0
    1.2149  -14.2977    5.3745 C   0  0  0  0  0  0  0  0  0  0  0  0
    8.2917  -12.2999    4.2396 C   0  0  0  0  0  0  0  0  0  0  0  0
    9.5151  -12.5082    3.7499 N   0  0  0  0  0  0  0  0  0  0  0  0
   12.0409  -17.5823    3.5743 H   0  0  0  0  0  0  0  0  0  0  0  0
   11.3061  -17.9787    1.9181 H   0  0  0  0  0  0  0  0  0  0  0  0
   10.3352  -17.5913    3.2804 H   0  0  0  0  0  0  0  0  0  0  0  0
   12.8427  -15.0781    1.5974 H   0  0  0  0  0  0  0  0  0  0  0  0
   13.2995  -16.3525    2.6664 H   0  0  0  0  0  0  0  0  0  0  0  0
   12.5356  -16.6701    1.0141 H   0  0  0  0  0  0  0  0  0  0  0  0
   10.4046  -13.1551    0.8843 H   0  0  0  0  0  0  0  0  0  0  0  0
   11.3291  -13.4179    2.3712 H   0  0  0  0  0  0  0  0  0  0  0  0
    7.6343  -13.9729    1.5285 H   0  0  0  0  0  0  0  0  0  0  0  0
    4.7624  -12.2987    3.1092 H   0  0  0  0  0  0  0  0  0  0  0  0
    1.9024  -14.9018    6.9188 H   0  0  0  0  0  0  0  0  0  0  0  0
    3.9685  -16.8192    6.0268 H   0  0  0  0  0  0  0  0  0  0  0  0
    3.5013  -16.2759    7.6008 H   0  0  0  0  0  0  0  0  0  0  0  0
    2.0048  -17.9151    6.1128 H   0  0  0  0  0  0  0  0  0  0  0  0
    0.0527  -16.3557    6.0513 H   0  0  0  0  0  0  0  0  0  0  0  0
    1.1898  -16.6122    4.6005 H   0  0  0  0  0  0  0  0  0  0  0  0
    0.7161  -13.8065    6.2383 H   0  0  0  0  0  0  0  0  0  0  0  0
    0.5703  -13.8390    4.6579 H   0  0  0  0  0  0  0  0  0  0  0  0
    8.2006  -11.9432    5.2586 H   0  0  0  0  0  0  0  0  0  0  0  0
  1  2  1  0
  2  3  1  0
  2  4  1  0
  4  5  2  0
  4  6  1  0
  6  7  1  0
  7  8  1  0
  8  9  2  0
  9 10  1  0
 10 11  1  0
 11 12  2  0
 11 13  1  0
 13 14  2  0
 14 15  1  0
 15 16  1  0
 16 17  1  0
 17 18  1  0
  9 19  1  0
 19 20  2  0
 20  7  1  0
 18 13  1  0
  1 21  1  0
  1 22  1  0
  1 23  1  0
  3 24  1  0
  3 25  1  0
  3 26  1  0
  6 27  1  0
  6 28  1  0
  8 29  1  0
 10 30  1  0
 14 31  1  0
 15 32  1  0
 15 33  1  0
 16 34  1  0
 17 35  1  0
 17 36  1  0
 18 37  1  0
 18 38  1  0
 19 39  1  0
M  END
>  <Energy>  (1704) 
504.74978767383516

>  <compound_id>  (1704) 
25048

>  <target_id>  (1704) 
1

>  <reference_id>  (1704) 
122

>  <inspiration_ids>  (1704) 
[122, 85]

>  <energy_score>  (1704) 
469.57748737618704

>  <distance_score>  (1704) 
11.782521744611385

>  <path>  (1704) 
/opt/xchem-fragalysis-2/maxwin/BulkDock/SCRATCH/511013/C25048-P122/C25048-P122.minimised.mol

>  <scratch_subdir>  (1704) 
/opt/xchem-fragalysis-2/maxwin/BulkDock/SCRATCH/511013/C25048-P122

>  <fragmenstein_runtime>  (1704) 
14.632051229476929

>  <fragmenstein_outcome>  (1704) 
too moved

>  <fragmenstein_mode>  (1704) 
expansion

>  <fragmenstein_error>  (1704) 


$$$$
C25048-P85
     RDKit          3D

 39 40  0  0  0  0  0  0  0  0999 V2000
   11.9222   -6.0741   11.2134 C   0  0  0  0  0  0  0  0  0  0  0  0
   10.9145   -7.4990   10.4072 N   0  0  0  0  0  0  0  0  0  0  0  0
   12.2410   -8.4242   11.4883 C   0  0  0  0  0  0  0  0  0  0  0  0
    9.1196   -8.0023   10.5814 C   0  0  0  0  0  0  0  0  0  0  0  0
    8.4467   -7.4207   11.4112 O   0  0  0  0  0  0  0  0  0  0  0  0
    7.8935   -9.3124    9.3834 C   0  0  0  0  0  0  0  0  0  0  0  0
    6.3864  -10.2141    8.6048 N   0  0  0  0  0  0  0  0  0  0  0  0
    5.9382  -11.6152    8.4388 C   0  0  0  0  0  0  0  0  0  0  0  0
    4.6274  -11.8348    8.1304 C   0  0  0  0  0  0  0  0  0  0  0  0
    4.0236  -13.0746    8.0573 N   0  0  0  0  0  0  0  0  0  0  0  0
    4.5660  -14.4098    8.2447 C   0  0  0  0  0  0  0  0  0  0  0  0
    5.6959  -14.7799    8.4331 O   0  0  0  0  0  0  0  0  0  0  0  0
    3.5146  -15.4959    8.2502 C   0  0  0  0  0  0  0  0  0  0  0  0
    3.7058  -16.5291    9.0994 C   0  0  0  0  0  0  0  0  0  0  0  0
    2.7136  -17.6330    9.3060 C   0  0  0  0  0  0  0  0  0  0  0  0
    1.4006  -17.2862    8.7701 N   0  0  0  0  0  0  0  0  0  0  0  0
    1.5405  -16.8344    7.3855 C   0  0  0  0  0  0  0  0  0  0  0  0
    2.3442  -15.5205    7.3165 C   0  0  0  0  0  0  0  0  0  0  0  0
    4.3260  -10.5466    7.7549 C   0  0  0  0  0  0  0  0  0  0  0  0
    5.2955   -9.5650    8.0640 N   0  0  0  0  0  0  0  0  0  0  0  0
   12.9969   -6.0137   11.1085 H   0  0  0  0  0  0  0  0  0  0  0  0
   11.5458   -5.2918   11.8812 H   0  0  0  0  0  0  0  0  0  0  0  0
   11.9111   -5.2778   10.4477 H   0  0  0  0  0  0  0  0  0  0  0  0
   12.4101   -7.6111   12.0178 H   0  0  0  0  0  0  0  0  0  0  0  0
   11.9480   -9.3494   12.0767 H   0  0  0  0  0  0  0  0  0  0  0  0
   13.3515   -8.4116   11.3025 H   0  0  0  0  0  0  0  0  0  0  0  0
    7.2490   -8.5354    9.0438 H   0  0  0  0  0  0  0  0  0  0  0  0
    8.4005  -10.0969    8.7386 H   0  0  0  0  0  0  0  0  0  0  0  0
    6.4972  -12.4859    8.6299 H   0  0  0  0  0  0  0  0  0  0  0  0
    3.0381  -13.1454    7.8408 H   0  0  0  0  0  0  0  0  0  0  0  0
    4.5931  -16.5783    9.7221 H   0  0  0  0  0  0  0  0  0  0  0  0
    3.0911  -18.5571    8.8532 H   0  0  0  0  0  0  0  0  0  0  0  0
    2.6063  -17.8154   10.3807 H   0  0  0  0  0  0  0  0  0  0  0  0
    0.7864  -18.1022    8.8194 H   0  0  0  0  0  0  0  0  0  0  0  0
    0.5532  -16.6741    6.9451 H   0  0  0  0  0  0  0  0  0  0  0  0
    2.0154  -17.6212    6.7926 H   0  0  0  0  0  0  0  0  0  0  0  0
    1.6893  -14.6763    7.5085 H   0  0  0  0  0  0  0  0  0  0  0  0
    2.6945  -15.3830    6.3016 H   0  0  0  0  0  0  0  0  0  0  0  0
    3.4483  -10.2462    7.1938 H   0  0  0  0  0  0  0  0  0  0  0  0
  1  2  1  0
  2  3  1  0
  2  4  1  0
  4  5  2  0
  4  6  1  0
  6  7  1  0
  7  8  1  0
  8  9  2  0
  9 10  1  0
 10 11  1  0
 11 12  2  0
 11 13  1  0
 13 14  2  0
 14 15  1  0
 15 16  1  0
 16 17  1  0
 17 18  1  0
  9 19  1  0
 19 20  2  0
 20  7  1  0
 18 13  1  0
  1 21  1  0
  1 22  1  0
  1 23  1  0
  3 24  1  0
  3 25  1  0
  3 26  1  0
  6 27  1  0
  6 28  1  0
  8 29  1  0
 10 30  1  0
 14 31  1  0
 15 32  1  0
 15 33  1  0
 16 34  1  0
 17 35  1  0
 17 36  1  0
 18 37  1  0
 18 38  1  0
 19 39  1  0
M  END
>  <Energy>  (1705) 
613.74303212609425

>  <compound_id>  (1705) 
25048

>  <target_id>  (1705) 
1

>  <reference_id>  (1705) 
85

>  <inspiration_ids>  (1705) 
[122, 85]

>  <energy_score>  (1705) 
578.5707318284412

>  <distance_score>  (1705) 
4.616407609944518

>  <path>  (1705) 
/opt/xchem-fragalysis-2/maxwin/BulkDock/SCRATCH/511013/C25048-P85/C25048-P85.minimised.mol

>  <scratch_subdir>  (1705) 
/opt/xchem-fragalysis-2/maxwin/BulkDock/SCRATCH/511013/C25048-P85

>  <fragmenstein_runtime>  (1705) 
9.183000564575195

>  <fragmenstein_outcome>  (1705) 
too moved

>  <fragmenstein_mode>  (1705) 
expansion

>  <fragmenstein_error>  (1705) 


$$$$
C25062-P122
     RDKit          3D

 45 47  0  0  0  0  0  0  0  0999 V2000
   10.6795   -6.6088    8.1610 O   0  0  0  0  0  0  0  0  0  0  0  0
   10.4990   -7.1315    9.2507 C   0  0  0  0  0  0  0  0  0  0  0  0
    9.0126   -8.1041    9.9131 N   0  0  0  0  0  0  0  0  0  0  0  0
    7.3950   -8.6742    9.0220 C   0  0  0  0  0  0  0  0  0  0  0  0
    6.7770  -10.1724    8.2086 C   0  0  0  0  0  0  0  0  0  0  0  0
    5.1790  -10.3575    8.5099 C   0  0  0  0  0  0  0  0  0  0  0  0
    3.5330  -11.3946    8.6888 C   0  0  0  0  0  0  0  0  0  0  0  0
    3.3374  -13.0473    9.4896 C   0  0  0  0  0  0  0  0  0  0  0  0
    2.6859  -14.7338    9.0179 C   0  0  0  0  0  0  0  0  0  0  0  0
    1.6836  -15.0848    7.5583 C   0  0  0  0  0  0  0  0  0  0  0  0
    1.2396  -13.9013    6.4471 C   0  0  0  0  0  0  0  0  0  0  0  0
    1.3383  -12.2021    6.4164 C   0  0  0  0  0  0  0  0  0  0  0  0
    2.0495  -11.0674    7.5776 C   0  0  0  0  0  0  0  0  0  0  0  0
    5.2902   -8.7941    8.2830 N   0  0  0  0  0  0  0  0  0  0  0  0
    6.1878   -7.9386    9.1854 N   0  0  0  0  0  0  0  0  0  0  0  0
   11.9016   -7.0091   10.1586 C   0  0  0  0  0  0  0  0  0  0  0  0
   12.3793   -5.8415   10.6238 C   0  0  0  0  0  0  0  0  0  0  0  0
   13.7149   -5.3126   10.1444 C   0  0  0  0  0  0  0  0  0  0  0  0
   13.7363   -5.2988    8.6883 N   0  0  0  0  0  0  0  0  0  0  0  0
   13.7173   -6.6961    8.2514 C   0  0  0  0  0  0  0  0  0  0  0  0
   13.0330   -7.6720    9.2390 C   0  0  0  0  0  0  0  0  0  0  0  0
    9.1315   -8.3341   10.8717 H   0  0  0  0  0  0  0  0  0  0  0  0
    7.5057  -10.9501    7.9917 H   0  0  0  0  0  0  0  0  0  0  0  0
    3.2352  -10.8271    9.5893 H   0  0  0  0  0  0  0  0  0  0  0  0
    2.7334  -12.7467   10.3446 H   0  0  0  0  0  0  0  0  0  0  0  0
    4.2997  -13.3372    9.9033 H   0  0  0  0  0  0  0  0  0  0  0  0
    3.5965  -15.3611    8.9403 H   0  0  0  0  0  0  0  0  0  0  0  0
    2.1983  -15.3409    9.7868 H   0  0  0  0  0  0  0  0  0  0  0  0
    2.2904  -15.8023    6.9605 H   0  0  0  0  0  0  0  0  0  0  0  0
    0.9225  -15.8209    7.8111 H   0  0  0  0  0  0  0  0  0  0  0  0
    1.8031  -14.2001    5.5555 H   0  0  0  0  0  0  0  0  0  0  0  0
    0.2359  -14.1408    6.1246 H   0  0  0  0  0  0  0  0  0  0  0  0
    1.8985  -11.9949    5.4916 H   0  0  0  0  0  0  0  0  0  0  0  0
    0.3665  -11.8253    6.1019 H   0  0  0  0  0  0  0  0  0  0  0  0
    2.2083  -10.1566    6.9461 H   0  0  0  0  0  0  0  0  0  0  0  0
    1.3401  -10.5137    8.1044 H   0  0  0  0  0  0  0  0  0  0  0  0
    4.5214   -8.2557    8.0937 H   0  0  0  0  0  0  0  0  0  0  0  0
   11.7360   -5.1596   11.1407 H   0  0  0  0  0  0  0  0  0  0  0  0
   13.9528   -4.3329   10.5576 H   0  0  0  0  0  0  0  0  0  0  0  0
   14.5541   -5.9400   10.4187 H   0  0  0  0  0  0  0  0  0  0  0  0
   12.8628   -4.8785    8.3606 H   0  0  0  0  0  0  0  0  0  0  0  0
   13.2234   -6.7468    7.2734 H   0  0  0  0  0  0  0  0  0  0  0  0
   14.7472   -7.0336    8.0828 H   0  0  0  0  0  0  0  0  0  0  0  0
   12.6708   -8.4833    8.5999 H   0  0  0  0  0  0  0  0  0  0  0  0
   13.7785   -8.1369    9.8929 H   0  0  0  0  0  0  0  0  0  0  0  0
  1  2  2  0
  2  3  1  0
  3  4  1  0
  4  5  1  0
  5  6  2  0
  6  7  1  0
  7  8  1  0
  8  9  1  0
  9 10  1  0
 10 11  1  0
 11 12  1  0
 12 13  1  0
  6 14  1  0
 14 15  1  0
  2 16  1  0
 16 17  2  0
 17 18  1  0
 18 19  1  0
 19 20  1  0
 20 21  1  0
 15  4  2  0
 21 16  1  0
 13  7  1  0
  3 22  1  0
  5 23  1  0
  7 24  1  0
  8 25  1  0
  8 26  1  0
  9 27  1  0
  9 28  1  0
 10 29  1  0
 10 30  1  0
 11 31  1  0
 11 32  1  0
 12 33  1  0
 12 34  1  0
 13 35  1  0
 13 36  1  0
 14 37  1  0
 17 38  1  0
 18 39  1  0
 18 40  1  0
 19 41  1  0
 20 42  1  0
 20 43  1  0
 21 44  1  0
 21 45  1  0
M  END
>  <Energy>  (1706) 
617.13320890680541

>  <compound_id>  (1706) 
25062

>  <target_id>  (1706) 
1

>  <reference_id>  (1706) 
122

>  <inspiration_ids>  (1706) 
[122, 85]

>  <energy_score>  (1706) 
594.2141879783723

>  <distance_score>  (1706) 
7.442251855260848

>  <path>  (1706) 
/opt/xchem-fragalysis-2/maxwin/BulkDock/SCRATCH/511013/C25062-P122/C25062-P122.minimised.mol

>  <scratch_subdir>  (1706) 
/opt/xchem-fragalysis-2/maxwin/BulkDock/SCRATCH/511013/C25062-P122

>  <fragmenstein_runtime>  (1706) 
11.64090633392334

>  <fragmenstein_outcome>  (1706) 
too moved

>  <fragmenstein_mode>  (1706) 
expansion

>  <fragmenstein_error>  (1706) 


$$$$
C25062-P85
     RDKit          3D

 45 47  0  0  0  0  0  0  0  0999 V2000
   10.3343   -5.1869   14.2401 O   0  0  0  0  0  0  0  0  0  0  0  0
    8.9503   -5.2704   14.2305 C   0  0  0  0  0  0  0  0  0  0  0  0
    7.9996   -6.5157   12.7407 N   0  0  0  0  0  0  0  0  0  0  0  0
    8.5912   -7.4759   11.2207 C   0  0  0  0  0  0  0  0  0  0  0  0
    7.0361   -7.5618    9.8795 C   0  0  0  0  0  0  0  0  0  0  0  0
    6.6594   -8.9676    8.7112 C   0  0  0  0  0  0  0  0  0  0  0  0
    5.5531  -10.5977    8.3966 C   0  0  0  0  0  0  0  0  0  0  0  0
    4.0646  -11.1702    8.7926 C   0  0  0  0  0  0  0  0  0  0  0  0
    3.1222  -11.1559    7.5219 C   0  0  0  0  0  0  0  0  0  0  0  0
    2.7184  -12.4740    6.8872 C   0  0  0  0  0  0  0  0  0  0  0  0
    3.8323  -13.4077    6.5432 C   0  0  0  0  0  0  0  0  0  0  0  0
    4.7791  -13.5940    7.6942 C   0  0  0  0  0  0  0  0  0  0  0  0
    5.7741  -12.4021    7.9101 C   0  0  0  0  0  0  0  0  0  0  0  0
    7.8362   -9.3557    9.2182 N   0  0  0  0  0  0  0  0  0  0  0  0
    8.9632   -8.7069   10.4927 N   0  0  0  0  0  0  0  0  0  0  0  0
    8.3453   -3.9219   15.5249 C   0  0  0  0  0  0  0  0  0  0  0  0
    9.6277   -3.2903   15.5509 C   0  0  0  0  0  0  0  0  0  0  0  0
   10.1104   -1.8745   15.7051 C   0  0  0  0  0  0  0  0  0  0  0  0
    9.0957   -0.9591   16.1444 N   0  0  0  0  0  0  0  0  0  0  0  0
    7.8379   -1.2209   15.4801 C   0  0  0  0  0  0  0  0  0  0  0  0
    7.4982   -2.6555   15.0080 C   0  0  0  0  0  0  0  0  0  0  0  0
    7.0383   -6.4123   12.7966 H   0  0  0  0  0  0  0  0  0  0  0  0
    6.1859   -7.0031   10.1979 H   0  0  0  0  0  0  0  0  0  0  0  0
    6.3885  -10.9445    8.9445 H   0  0  0  0  0  0  0  0  0  0  0  0
    4.0524  -12.1878    9.1744 H   0  0  0  0  0  0  0  0  0  0  0  0
    3.6414  -10.8560    9.7630 H   0  0  0  0  0  0  0  0  0  0  0  0
    2.1628  -10.7071    7.7557 H   0  0  0  0  0  0  0  0  0  0  0  0
    3.5479  -10.5043    6.7553 H   0  0  0  0  0  0  0  0  0  0  0  0
    2.0727  -13.0193    7.5682 H   0  0  0  0  0  0  0  0  0  0  0  0
    2.1151  -12.2778    5.9922 H   0  0  0  0  0  0  0  0  0  0  0  0
    3.3850  -14.3820    6.3326 H   0  0  0  0  0  0  0  0  0  0  0  0
    4.3551  -13.0878    5.6401 H   0  0  0  0  0  0  0  0  0  0  0  0
    5.4050  -14.4641    7.4362 H   0  0  0  0  0  0  0  0  0  0  0  0
    4.2668  -13.9322    8.6024 H   0  0  0  0  0  0  0  0  0  0  0  0
    6.3544  -12.8999    8.6635 H   0  0  0  0  0  0  0  0  0  0  0  0
    6.2023  -12.5065    6.9427 H   0  0  0  0  0  0  0  0  0  0  0  0
    8.3456  -10.0754    8.6889 H   0  0  0  0  0  0  0  0  0  0  0  0
   10.5373   -3.8878   15.6564 H   0  0  0  0  0  0  0  0  0  0  0  0
   10.9146   -1.8637   16.4510 H   0  0  0  0  0  0  0  0  0  0  0  0
   10.5908   -1.5271   14.7894 H   0  0  0  0  0  0  0  0  0  0  0  0
    8.9906   -0.8915   17.1350 H   0  0  0  0  0  0  0  0  0  0  0  0
    7.0243   -0.8371   16.1031 H   0  0  0  0  0  0  0  0  0  0  0  0
    7.8744   -0.6084   14.5798 H   0  0  0  0  0  0  0  0  0  0  0  0
    6.4216   -2.8255   15.0425 H   0  0  0  0  0  0  0  0  0  0  0  0
    7.7110   -2.5381   13.9569 H   0  0  0  0  0  0  0  0  0  0  0  0
  1  2  2  0
  2  3  1  0
  3  4  1  0
  4  5  1  0
  5  6  2  0
  6  7  1  0
  7  8  1  0
  8  9  1  0
  9 10  1  0
 10 11  1  0
 11 12  1  0
 12 13  1  0
  6 14  1  0
 14 15  1  0
  2 16  1  0
 16 17  2  0
 17 18  1  0
 18 19  1  0
 19 20  1  0
 20 21  1  0
 15  4  2  0
 21 16  1  0
 13  7  1  0
  3 22  1  0
  5 23  1  0
  7 24  1  0
  8 25  1  0
  8 26  1  0
  9 27  1  0
  9 28  1  0
 10 29  1  0
 10 30  1  0
 11 31  1  0
 11 32  1  0
 12 33  1  0
 12 34  1  0
 13 35  1  0
 13 36  1  0
 14 37  1  0
 17 38  1  0
 18 39  1  0
 18 40  1  0
 19 41  1  0
 20 42  1  0
 20 43  1  0
 21 44  1  0
 21 45  1  0
M  END
>  <Energy>  (1707) 
1081.2661742941846

>  <compound_id>  (1707) 
25062

>  <target_id>  (1707) 
1

>  <reference_id>  (1707) 
85

>  <inspiration_ids>  (1707) 
[122, 85]

>  <energy_score>  (1707) 
1058.3471533657705

>  <distance_score>  (1707) 
6.9283130394027985

>  <path>  (1707) 
/opt/xchem-fragalysis-2/maxwin/BulkDock/SCRATCH/511013/C25062-P85/C25062-P85.minimised.mol

>  <scratch_subdir>  (1707) 
/opt/xchem-fragalysis-2/maxwin/BulkDock/SCRATCH/511013/C25062-P85

>  <fragmenstein_runtime>  (1707) 
16.259637117385864

>  <fragmenstein_outcome>  (1707) 
too moved

>  <fragmenstein_mode>  (1707) 
expansion

>  <fragmenstein_error>  (1707) 


$$$$
C25064-P122
     RDKit          3D

 45 46  0  0  0  0  0  0  0  0999 V2000
    6.4888   -9.6993    7.9733 C   0  0  0  0  0  0  0  0  0  0  0  0
    7.7097   -9.6809    8.7902 C   0  0  0  0  0  0  0  0  0  0  0  0
    8.1926  -11.1792    8.0373 N   0  0  0  0  0  0  0  0  0  0  0  0
    8.7713  -11.4459    6.7584 C   0  0  0  0  0  0  0  0  0  0  0  0
    9.1482  -10.7026    5.9029 O   0  0  0  0  0  0  0  0  0  0  0  0
    8.9012  -13.0648    6.5064 C   0  0  0  0  0  0  0  0  0  0  0  0
    8.8802  -13.3836    5.3531 O   0  0  0  0  0  0  0  0  0  0  0  0
    8.9515  -13.8805    7.7173 N   0  0  0  0  0  0  0  0  0  0  0  0
    9.0892  -15.3333    7.8941 C   0  0  0  0  0  0  0  0  0  0  0  0
    7.9905  -16.0290    8.7380 C   0  0  0  0  0  0  0  0  0  0  0  0
    7.2592  -17.2827    8.2560 C   0  0  0  0  0  0  0  0  0  0  0  0
    7.7838  -18.1910    7.4103 C   0  0  0  0  0  0  0  0  0  0  0  0
    7.0771  -19.4441    6.9584 C   0  0  0  0  0  0  0  0  0  0  0  0
    5.8505  -19.7635    7.6851 N   0  0  0  0  0  0  0  0  0  0  0  0
    5.0721  -18.5561    7.9625 C   0  0  0  0  0  0  0  0  0  0  0  0
    5.8839  -17.5893    8.8365 C   0  0  0  0  0  0  0  0  0  0  0  0
    8.4508   -8.2008    9.9811 C   0  0  0  0  0  0  0  0  0  0  0  0
    9.9297   -7.7888    9.6775 C   0  0  0  0  0  0  0  0  0  0  0  0
   10.9833   -7.5319   10.4624 C   0  0  0  0  0  0  0  0  0  0  0  0
    9.9474   -8.5400   10.7956 N   0  0  0  0  0  0  0  0  0  0  0  0
   11.1442   -9.8686   11.7260 C   0  0  0  0  0  0  0  0  0  0  0  0
    8.7040   -8.0666   11.2056 N   0  0  0  0  0  0  0  0  0  0  0  0
    6.7035   -9.8703    6.9273 H   0  0  0  0  0  0  0  0  0  0  0  0
    5.7470   -8.9133    8.0774 H   0  0  0  0  0  0  0  0  0  0  0  0
    5.9328  -10.5655    8.3274 H   0  0  0  0  0  0  0  0  0  0  0  0
    8.7110  -10.2304    9.1283 H   0  0  0  0  0  0  0  0  0  0  0  0
    7.9160  -12.0557    8.4632 H   0  0  0  0  0  0  0  0  0  0  0  0
    9.0422  -13.2744    8.5213 H   0  0  0  0  0  0  0  0  0  0  0  0
    9.2400  -15.7931    6.9197 H   0  0  0  0  0  0  0  0  0  0  0  0
   10.0275  -15.4872    8.4328 H   0  0  0  0  0  0  0  0  0  0  0  0
    7.2806  -15.2864    9.1040 H   0  0  0  0  0  0  0  0  0  0  0  0
    8.5235  -16.3790    9.6296 H   0  0  0  0  0  0  0  0  0  0  0  0
    8.7811  -18.0530    6.9994 H   0  0  0  0  0  0  0  0  0  0  0  0
    6.8456  -19.3466    5.8912 H   0  0  0  0  0  0  0  0  0  0  0  0
    7.7650  -20.2922    7.0512 H   0  0  0  0  0  0  0  0  0  0  0  0
    6.1049  -20.2031    8.5694 H   0  0  0  0  0  0  0  0  0  0  0  0
    4.7703  -18.0734    7.0246 H   0  0  0  0  0  0  0  0  0  0  0  0
    4.1512  -18.8361    8.4857 H   0  0  0  0  0  0  0  0  0  0  0  0
    6.0230  -18.0539    9.8196 H   0  0  0  0  0  0  0  0  0  0  0  0
    5.2968  -16.6852    8.9983 H   0  0  0  0  0  0  0  0  0  0  0  0
   10.4456   -8.2539    8.8040 H   0  0  0  0  0  0  0  0  0  0  0  0
   11.4516   -6.9567   11.2834 H   0  0  0  0  0  0  0  0  0  0  0  0
   12.0919   -9.3712   11.6913 H   0  0  0  0  0  0  0  0  0  0  0  0
   10.8037  -10.2689   12.6841 H   0  0  0  0  0  0  0  0  0  0  0  0
   10.8453  -10.7096   11.0997 H   0  0  0  0  0  0  0  0  0  0  0  0
  1  2  1  0
  2  3  1  0
  3  4  1  0
  4  5  2  0
  4  6  1  0
  6  7  2  0
  6  8  1  0
  8  9  1  0
  9 10  1  0
 10 11  1  0
 11 12  2  0
 12 13  1  0
 13 14  1  0
 14 15  1  0
 15 16  1  0
  2 17  1  0
 17 18  1  0
 18 19  2  0
 19 20  1  0
 20 21  1  0
 20 22  1  0
 16 11  1  0
 22 17  2  0
  1 23  1  0
  1 24  1  0
  1 25  1  0
  2 26  1  0
  3 27  1  0
  8 28  1  0
  9 29  1  0
  9 30  1  0
 10 31  1  0
 10 32  1  0
 12 33  1  0
 13 34  1  0
 13 35  1  0
 14 36  1  0
 15 37  1  0
 15 38  1  0
 16 39  1  0
 16 40  1  0
 18 41  1  0
 19 42  1  0
 21 43  1  0
 21 44  1  0
 21 45  1  0
M  END
>  <Energy>  (1708) 
603.72939346996077

>  <compound_id>  (1708) 
25064

>  <target_id>  (1708) 
1

>  <reference_id>  (1708) 
122

>  <inspiration_ids>  (1708) 
[122, 85]

>  <energy_score>  (1708) 
521.2332821426107

>  <distance_score>  (1708) 
6.206082604140394

>  <path>  (1708) 
/opt/xchem-fragalysis-2/maxwin/BulkDock/SCRATCH/511013/C25064-P122/C25064-P122.minimised.mol

>  <scratch_subdir>  (1708) 
/opt/xchem-fragalysis-2/maxwin/BulkDock/SCRATCH/511013/C25064-P122

>  <fragmenstein_runtime>  (1708) 
18.966055393218994

>  <fragmenstein_outcome>  (1708) 
too moved

>  <fragmenstein_mode>  (1708) 
expansion

>  <fragmenstein_error>  (1708) 


$$$$
C25064-P85
     RDKit          3D

 45 46  0  0  0  0  0  0  0  0999 V2000
    6.6128   -7.4924   12.7368 C   0  0  0  0  0  0  0  0  0  0  0  0
    4.7180   -7.8875   13.5756 C   0  0  0  0  0  0  0  0  0  0  0  0
    3.5157   -8.6888   12.1175 N   0  0  0  0  0  0  0  0  0  0  0  0
    3.6318  -10.3593   11.0639 C   0  0  0  0  0  0  0  0  0  0  0  0
    4.5002  -10.9910   11.4348 O   0  0  0  0  0  0  0  0  0  0  0  0
    2.9129  -11.2260    9.5247 C   0  0  0  0  0  0  0  0  0  0  0  0
    2.1236  -10.8597    8.7572 O   0  0  0  0  0  0  0  0  0  0  0  0
    3.6980  -12.4477    9.5072 N   0  0  0  0  0  0  0  0  0  0  0  0
    3.8036  -13.5032    8.5058 C   0  0  0  0  0  0  0  0  0  0  0  0
    4.9827  -14.4814    8.5479 C   0  0  0  0  0  0  0  0  0  0  0  0
    4.6721  -15.9759    8.5680 C   0  0  0  0  0  0  0  0  0  0  0  0
    5.6724  -16.8801    8.6093 C   0  0  0  0  0  0  0  0  0  0  0  0
    5.4536  -18.3602    8.7559 C   0  0  0  0  0  0  0  0  0  0  0  0
    4.1351  -18.6887    9.2825 N   0  0  0  0  0  0  0  0  0  0  0  0
    3.0974  -18.0087    8.5008 C   0  0  0  0  0  0  0  0  0  0  0  0
    3.2374  -16.4776    8.5792 C   0  0  0  0  0  0  0  0  0  0  0  0
    6.0210   -7.1165   14.7794 C   0  0  0  0  0  0  0  0  0  0  0  0
    7.1196   -7.7250   15.0311 C   0  0  0  0  0  0  0  0  0  0  0  0
    8.1447   -6.9002   15.3434 C   0  0  0  0  0  0  0  0  0  0  0  0
    7.6076   -5.8271   16.0591 N   0  0  0  0  0  0  0  0  0  0  0  0
    8.4578   -4.1456   15.7837 C   0  0  0  0  0  0  0  0  0  0  0  0
    6.1852   -6.3118   16.1259 N   0  0  0  0  0  0  0  0  0  0  0  0
    7.3530   -8.2814   12.8395 H   0  0  0  0  0  0  0  0  0  0  0  0
    7.5690   -6.9383   12.6615 H   0  0  0  0  0  0  0  0  0  0  0  0
    6.5963   -7.4499   11.6345 H   0  0  0  0  0  0  0  0  0  0  0  0
    4.7340   -8.8746   14.0498 H   0  0  0  0  0  0  0  0  0  0  0  0
    2.6852   -8.1891   11.8242 H   0  0  0  0  0  0  0  0  0  0  0  0
    4.2306  -12.5052   10.3628 H   0  0  0  0  0  0  0  0  0  0  0  0
    3.8265  -12.9786    7.5415 H   0  0  0  0  0  0  0  0  0  0  0  0
    2.8412  -14.0089    8.5153 H   0  0  0  0  0  0  0  0  0  0  0  0
    5.6281  -14.2516    9.4013 H   0  0  0  0  0  0  0  0  0  0  0  0
    5.5898  -14.2939    7.6519 H   0  0  0  0  0  0  0  0  0  0  0  0
    6.7042  -16.5476    8.5623 H   0  0  0  0  0  0  0  0  0  0  0  0
    5.6219  -18.8509    7.7904 H   0  0  0  0  0  0  0  0  0  0  0  0
    6.2024  -18.7539    9.4519 H   0  0  0  0  0  0  0  0  0  0  0  0
    3.9807  -19.6938    9.2218 H   0  0  0  0  0  0  0  0  0  0  0  0
    3.1422  -18.3417    7.4575 H   0  0  0  0  0  0  0  0  0  0  0  0
    2.1102  -18.2974    8.8792 H   0  0  0  0  0  0  0  0  0  0  0  0
    2.7559  -16.1372    9.5017 H   0  0  0  0  0  0  0  0  0  0  0  0
    2.6883  -16.0505    7.7321 H   0  0  0  0  0  0  0  0  0  0  0  0
    7.0083   -8.5689   14.4523 H   0  0  0  0  0  0  0  0  0  0  0  0
    9.1580   -7.2427   15.3754 H   0  0  0  0  0  0  0  0  0  0  0  0
    8.1163   -3.5642   14.8836 H   0  0  0  0  0  0  0  0  0  0  0  0
    9.5133   -4.2534   15.5253 H   0  0  0  0  0  0  0  0  0  0  0  0
    7.9995   -3.3295   16.2867 H   0  0  0  0  0  0  0  0  0  0  0  0
  1  2  1  0
  2  3  1  0
  3  4  1  0
  4  5  2  0
  4  6  1  0
  6  7  2  0
  6  8  1  0
  8  9  1  0
  9 10  1  0
 10 11  1  0
 11 12  2  0
 12 13  1  0
 13 14  1  0
 14 15  1  0
 15 16  1  0
  2 17  1  0
 17 18  1  0
 18 19  2  0
 19 20  1  0
 20 21  1  0
 20 22  1  0
 16 11  1  0
 22 17  2  0
  1 23  1  0
  1 24  1  0
  1 25  1  0
  2 26  1  0
  3 27  1  0
  8 28  1  0
  9 29  1  0
  9 30  1  0
 10 31  1  0
 10 32  1  0
 12 33  1  0
 13 34  1  0
 13 35  1  0
 14 36  1  0
 15 37  1  0
 15 38  1  0
 16 39  1  0
 16 40  1  0
 18 41  1  0
 19 42  1  0
 21 43  1  0
 21 44  1  0
 21 45  1  0
M  END
>  <Energy>  (1709) 
889.66681997269211

>  <compound_id>  (1709) 
25064

>  <target_id>  (1709) 
1

>  <reference_id>  (1709) 
85

>  <inspiration_ids>  (1709) 
[122, 85]

>  <energy_score>  (1709) 
807.1707086453291

>  <distance_score>  (1709) 
4.822304170878886

>  <path>  (1709) 
/opt/xchem-fragalysis-2/maxwin/BulkDock/SCRATCH/511013/C25064-P85/C25064-P85.minimised.mol

>  <scratch_subdir>  (1709) 
/opt/xchem-fragalysis-2/maxwin/BulkDock/SCRATCH/511013/C25064-P85

>  <fragmenstein_runtime>  (1709) 
17.18884801864624

>  <fragmenstein_outcome>  (1709) 
too moved

>  <fragmenstein_mode>  (1709) 
expansion

>  <fragmenstein_error>  (1709) 


$$$$
C25068-P122
     RDKit          3D

 49 51  0  0  0  0  0  0  0  0999 V2000
    6.4200   -9.8630    6.7701 O   0  0  0  0  0  0  0  0  0  0  0  0
    7.2533  -10.1166    7.5310 C   0  0  0  0  0  0  0  0  0  0  0  0
    8.2923  -11.1384    7.4936 N   0  0  0  0  0  0  0  0  0  0  0  0
    8.5397  -12.2058    6.5433 C   0  0  0  0  0  0  0  0  0  0  0  0
    8.1835  -13.5281    7.2268 C   0  0  0  0  0  0  0  0  0  0  0  0
    9.0364  -14.7370    7.5302 C   0  0  0  0  0  0  0  0  0  0  0  0
   10.2749  -14.9981    7.0893 C   0  0  0  0  0  0  0  0  0  0  0  0
   11.0167  -16.2584    7.4446 C   0  0  0  0  0  0  0  0  0  0  0  0
   10.4470  -17.0052    8.5736 N   0  0  0  0  0  0  0  0  0  0  0  0
    9.0027  -17.1437    8.4053 C   0  0  0  0  0  0  0  0  0  0  0  0
    8.3192  -15.7753    8.3875 C   0  0  0  0  0  0  0  0  0  0  0  0
    7.3797   -9.2906    8.7570 C   0  0  0  0  0  0  0  0  0  0  0  0
    8.3571   -9.6444    9.3715 O   0  0  0  0  0  0  0  0  0  0  0  0
    6.3732   -7.9750    9.3439 N   0  0  0  0  0  0  0  0  0  0  0  0
    6.4546   -6.2595    9.0223 C   0  0  0  0  0  0  0  0  0  0  0  0
    7.6915   -5.6177    9.2821 C   0  0  0  0  0  0  0  0  0  0  0  0
    8.4008   -7.1729   10.5199 C   0  0  0  0  0  0  0  0  0  0  0  0
    7.8158   -6.8128   12.3349 C   0  0  0  0  0  0  0  0  0  0  0  0
    8.6279   -5.6037   13.9139 N   0  0  0  0  0  0  0  0  0  0  0  0
   10.4209   -4.9206   14.0923 C   0  0  0  0  0  0  0  0  0  0  0  0
   10.8096   -3.8345   14.8412 C   0  0  0  0  0  0  0  0  0  0  0  0
    9.6440   -3.1780   14.8819 C   0  0  0  0  0  0  0  0  0  0  0  0
    8.5628   -3.9544   14.8038 N   0  0  0  0  0  0  0  0  0  0  0  0
    6.4532   -7.2192   10.6271 C   0  0  0  0  0  0  0  0  0  0  0  0
    8.9090  -11.0208    8.2976 H   0  0  0  0  0  0  0  0  0  0  0  0
    7.9263  -12.0360    5.6599 H   0  0  0  0  0  0  0  0  0  0  0  0
    9.5734  -12.1934    6.2226 H   0  0  0  0  0  0  0  0  0  0  0  0
    7.4263  -13.9165    6.5552 H   0  0  0  0  0  0  0  0  0  0  0  0
    7.7536  -13.2671    8.2002 H   0  0  0  0  0  0  0  0  0  0  0  0
   10.7885  -14.2950    6.4405 H   0  0  0  0  0  0  0  0  0  0  0  0
   12.0499  -15.9972    7.7002 H   0  0  0  0  0  0  0  0  0  0  0  0
   11.0658  -16.9057    6.5612 H   0  0  0  0  0  0  0  0  0  0  0  0
   10.6198  -16.4482    9.4125 H   0  0  0  0  0  0  0  0  0  0  0  0
    8.5979  -17.7440    9.2275 H   0  0  0  0  0  0  0  0  0  0  0  0
    8.7863  -17.6953    7.4816 H   0  0  0  0  0  0  0  0  0  0  0  0
    8.2458  -15.3796    9.4064 H   0  0  0  0  0  0  0  0  0  0  0  0
    7.3063  -15.9456    8.0198 H   0  0  0  0  0  0  0  0  0  0  0  0
    5.6940   -5.6024    9.4205 H   0  0  0  0  0  0  0  0  0  0  0  0
    6.0199   -5.9579    8.0168 H   0  0  0  0  0  0  0  0  0  0  0  0
    7.5721   -4.5886    9.6958 H   0  0  0  0  0  0  0  0  0  0  0  0
    7.5798   -5.5011    8.2240 H   0  0  0  0  0  0  0  0  0  0  0  0
    8.5288   -8.2107   10.6821 H   0  0  0  0  0  0  0  0  0  0  0  0
    9.3773   -7.5480   10.0616 H   0  0  0  0  0  0  0  0  0  0  0  0
    7.5419   -7.6600   12.9504 H   0  0  0  0  0  0  0  0  0  0  0  0
   10.9719   -5.0992   13.1659 H   0  0  0  0  0  0  0  0  0  0  0  0
   11.7990   -3.4060   14.8867 H   0  0  0  0  0  0  0  0  0  0  0  0
    9.4820   -2.1276   15.0901 H   0  0  0  0  0  0  0  0  0  0  0  0
    5.3097   -6.9947   10.6373 H   0  0  0  0  0  0  0  0  0  0  0  0
    6.5593   -7.8277   11.5231 H   0  0  0  0  0  0  0  0  0  0  0  0
  1  2  2  0
  2  3  1  0
  3  4  1  0
  4  5  1  0
  5  6  1  0
  6  7  2  0
  7  8  1  0
  8  9  1  0
  9 10  1  0
 10 11  1  0
  2 12  1  0
 12 13  2  0
 12 14  1  0
 14 15  1  0
 15 16  1  0
 16 17  1  0
 17 18  1  0
 18 19  1  0
 19 20  1  0
 20 21  2  0
 21 22  1  0
 22 23  2  0
 18 24  1  0
 11  6  1  0
 24 14  1  0
 23 19  1  0
  3 25  1  0
  4 26  1  0
  4 27  1  0
  5 28  1  0
  5 29  1  0
  7 30  1  0
  8 31  1  0
  8 32  1  0
  9 33  1  0
 10 34  1  0
 10 35  1  0
 11 36  1  0
 11 37  1  0
 15 38  1  0
 15 39  1  0
 16 40  1  0
 16 41  1  0
 17 42  1  0
 17 43  1  0
 18 44  1  0
 20 45  1  0
 21 46  1  0
 22 47  1  0
 24 48  1  0
 24 49  1  0
M  END
>  <Energy>  (1710) 
1295.0827034604065

>  <compound_id>  (1710) 
25068

>  <target_id>  (1710) 
1

>  <reference_id>  (1710) 
122

>  <inspiration_ids>  (1710) 
[122, 85]

>  <energy_score>  (1710) 
1175.2768253569488

>  <distance_score>  (1710) 
5.758736342406629

>  <path>  (1710) 
/opt/xchem-fragalysis-2/maxwin/BulkDock/SCRATCH/511013/C25068-P122/C25068-P122.minimised.mol

>  <scratch_subdir>  (1710) 
/opt/xchem-fragalysis-2/maxwin/BulkDock/SCRATCH/511013/C25068-P122

>  <fragmenstein_runtime>  (1710) 
17.54344081878662

>  <fragmenstein_outcome>  (1710) 
too moved

>  <fragmenstein_mode>  (1710) 
expansion

>  <fragmenstein_error>  (1710) 


$$$$
C25068-P85
     RDKit          3D

 49 51  0  0  0  0  0  0  0  0999 V2000
    3.7969  -10.2530    6.9996 O   0  0  0  0  0  0  0  0  0  0  0  0
    4.5373  -10.8676    7.7117 C   0  0  0  0  0  0  0  0  0  0  0  0
    4.7561  -12.3123    7.8412 N   0  0  0  0  0  0  0  0  0  0  0  0
    4.2178  -13.4224    7.0851 C   0  0  0  0  0  0  0  0  0  0  0  0
    3.2970  -14.3551    7.8725 C   0  0  0  0  0  0  0  0  0  0  0  0
    3.7747  -15.7415    8.2664 C   0  0  0  0  0  0  0  0  0  0  0  0
    5.0435  -16.1928    8.2514 C   0  0  0  0  0  0  0  0  0  0  0  0
    5.4258  -17.5870    8.6679 C   0  0  0  0  0  0  0  0  0  0  0  0
    4.4270  -18.2466    9.4990 N   0  0  0  0  0  0  0  0  0  0  0  0
    3.1062  -18.1453    8.8643 C   0  0  0  0  0  0  0  0  0  0  0  0
    2.6641  -16.6831    8.7138 C   0  0  0  0  0  0  0  0  0  0  0  0
    5.4035  -10.1046    8.7596 C   0  0  0  0  0  0  0  0  0  0  0  0
    4.8248  -10.1331    9.8267 O   0  0  0  0  0  0  0  0  0  0  0  0
    7.1184   -9.3758    8.5716 N   0  0  0  0  0  0  0  0  0  0  0  0
    8.6402  -10.4246    8.7420 C   0  0  0  0  0  0  0  0  0  0  0  0
   10.0935  -10.4149    9.0398 C   0  0  0  0  0  0  0  0  0  0  0  0
   10.9204   -9.1401    8.4541 C   0  0  0  0  0  0  0  0  0  0  0  0
   10.2469   -7.9264    9.9734 C   0  0  0  0  0  0  0  0  0  0  0  0
   11.4271   -6.8915   10.6975 N   0  0  0  0  0  0  0  0  0  0  0  0
   12.1878   -5.3114   10.2334 C   0  0  0  0  0  0  0  0  0  0  0  0
   12.8887   -4.7970   11.2224 C   0  0  0  0  0  0  0  0  0  0  0  0
   11.7658   -4.9728   11.8189 C   0  0  0  0  0  0  0  0  0  0  0  0
   11.7347   -6.3906   11.8163 N   0  0  0  0  0  0  0  0  0  0  0  0
    8.2262   -8.4196    9.8857 C   0  0  0  0  0  0  0  0  0  0  0  0
    5.5208  -12.4754    8.4866 H   0  0  0  0  0  0  0  0  0  0  0  0
    3.6392  -12.9746    6.2677 H   0  0  0  0  0  0  0  0  0  0  0  0
    5.0591  -13.9421    6.6187 H   0  0  0  0  0  0  0  0  0  0  0  0
    2.4087  -14.5035    7.2434 H   0  0  0  0  0  0  0  0  0  0  0  0
    2.9651  -13.8403    8.7762 H   0  0  0  0  0  0  0  0  0  0  0  0
    5.8568  -15.5508    7.9335 H   0  0  0  0  0  0  0  0  0  0  0  0
    6.3607  -17.5395    9.2340 H   0  0  0  0  0  0  0  0  0  0  0  0
    5.6328  -18.1873    7.7754 H   0  0  0  0  0  0  0  0  0  0  0  0
    4.6578  -19.2332    9.5999 H   0  0  0  0  0  0  0  0  0  0  0  0
    2.3704  -18.6821    9.4734 H   0  0  0  0  0  0  0  0  0  0  0  0
    3.1250  -18.6377    7.8836 H   0  0  0  0  0  0  0  0  0  0  0  0
    2.2792  -16.3291    9.6763 H   0  0  0  0  0  0  0  0  0  0  0  0
    1.8349  -16.6484    7.9972 H   0  0  0  0  0  0  0  0  0  0  0  0
    8.8768  -11.2781    9.4372 H   0  0  0  0  0  0  0  0  0  0  0  0
    9.0665  -10.5389    7.7309 H   0  0  0  0  0  0  0  0  0  0  0  0
   10.4651  -11.0514    9.8316 H   0  0  0  0  0  0  0  0  0  0  0  0
    9.8017  -10.1423   10.0493 H   0  0  0  0  0  0  0  0  0  0  0  0
   10.6342   -8.9797    7.3708 H   0  0  0  0  0  0  0  0  0  0  0  0
   11.9121   -9.3934    8.2176 H   0  0  0  0  0  0  0  0  0  0  0  0
    9.8408   -6.9992    9.8089 H   0  0  0  0  0  0  0  0  0  0  0  0
   12.0121   -4.9245    9.2266 H   0  0  0  0  0  0  0  0  0  0  0  0
   13.6165   -3.9985   11.3232 H   0  0  0  0  0  0  0  0  0  0  0  0
   11.4053   -4.3606   12.6525 H   0  0  0  0  0  0  0  0  0  0  0  0
    7.4429   -7.5036   10.0884 H   0  0  0  0  0  0  0  0  0  0  0  0
    8.6252   -9.0710   10.6610 H   0  0  0  0  0  0  0  0  0  0  0  0
  1  2  2  0
  2  3  1  0
  3  4  1  0
  4  5  1  0
  5  6  1  0
  6  7  2  0
  7  8  1  0
  8  9  1  0
  9 10  1  0
 10 11  1  0
  2 12  1  0
 12 13  2  0
 12 14  1  0
 14 15  1  0
 15 16  1  0
 16 17  1  0
 17 18  1  0
 18 19  1  0
 19 20  1  0
 20 21  2  0
 21 22  1  0
 22 23  2  0
 18 24  1  0
 11  6  1  0
 24 14  1  0
 23 19  1  0
  3 25  1  0
  4 26  1  0
  4 27  1  0
  5 28  1  0
  5 29  1  0
  7 30  1  0
  8 31  1  0
  8 32  1  0
  9 33  1  0
 10 34  1  0
 10 35  1  0
 11 36  1  0
 11 37  1  0
 15 38  1  0
 15 39  1  0
 16 40  1  0
 16 41  1  0
 17 42  1  0
 17 43  1  0
 18 44  1  0
 20 45  1  0
 21 46  1  0
 22 47  1  0
 24 48  1  0
 24 49  1  0
M  END
>  <Energy>  (1711) 
922.78801377290881

>  <compound_id>  (1711) 
25068

>  <target_id>  (1711) 
1

>  <reference_id>  (1711) 
85

>  <inspiration_ids>  (1711) 
[122, 85]

>  <energy_score>  (1711) 
802.9821356694529

>  <distance_score>  (1711) 
3.8628143162080217

>  <path>  (1711) 
/opt/xchem-fragalysis-2/maxwin/BulkDock/SCRATCH/511013/C25068-P85/C25068-P85.minimised.mol

>  <scratch_subdir>  (1711) 
/opt/xchem-fragalysis-2/maxwin/BulkDock/SCRATCH/511013/C25068-P85

>  <fragmenstein_runtime>  (1711) 
22.18199849128723

>  <fragmenstein_outcome>  (1711) 
too moved

>  <fragmenstein_mode>  (1711) 
expansion

>  <fragmenstein_error>  (1711) 


$$$$
C25069-P122
     RDKit          3D

 39 40  0  0  0  0  0  0  0  0999 V2000
   10.4741  -13.8130    8.5080 O   0  0  0  0  0  0  0  0  0  0  0  0
   10.5986  -14.6798    9.2880 C   0  0  0  0  0  0  0  0  0  0  0  0
    9.8585  -16.0635    9.3990 N   0  0  0  0  0  0  0  0  0  0  0  0
    8.8617  -16.7056    8.4891 C   0  0  0  0  0  0  0  0  0  0  0  0
    7.2900  -16.3927    8.5579 C   0  0  0  0  0  0  0  0  0  0  0  0
    6.2048  -17.4877    8.8027 C   0  0  0  0  0  0  0  0  0  0  0  0
    6.4583  -18.7194    9.2810 C   0  0  0  0  0  0  0  0  0  0  0  0
    5.3963  -19.7324    9.6324 C   0  0  0  0  0  0  0  0  0  0  0  0
    4.0713  -19.1500    9.8075 N   0  0  0  0  0  0  0  0  0  0  0  0
    3.7301  -18.3285    8.6569 C   0  0  0  0  0  0  0  0  0  0  0  0
    4.7260  -17.1576    8.5239 C   0  0  0  0  0  0  0  0  0  0  0  0
   11.7722  -14.4952   10.4267 C   0  0  0  0  0  0  0  0  0  0  0  0
   12.5184  -15.3700   10.6532 O   0  0  0  0  0  0  0  0  0  0  0  0
   11.6905  -13.0499   11.0276 N   0  0  0  0  0  0  0  0  0  0  0  0
   12.4253  -12.4514   12.0568 C   0  0  0  0  0  0  0  0  0  0  0  0
   11.9239  -11.5853   13.0675 C   0  0  0  0  0  0  0  0  0  0  0  0
   12.8468  -11.1592   13.9358 N   0  0  0  0  0  0  0  0  0  0  0  0
   13.9985  -11.6618   13.4539 N   0  0  0  0  0  0  0  0  0  0  0  0
   15.3024  -11.5552   14.1321 C   0  0  0  0  0  0  0  0  0  0  0  0
   15.8002  -10.2878   14.0965 F   0  0  0  0  0  0  0  0  0  0  0  0
   15.2830  -11.9901   15.4155 F   0  0  0  0  0  0  0  0  0  0  0  0
   16.2403  -12.3218   13.4943 F   0  0  0  0  0  0  0  0  0  0  0  0
   13.7733  -12.4179   12.3159 C   0  0  0  0  0  0  0  0  0  0  0  0
   10.2702  -16.6099   10.1482 H   0  0  0  0  0  0  0  0  0  0  0  0
    9.1959  -16.4135    7.4862 H   0  0  0  0  0  0  0  0  0  0  0  0
    9.0357  -17.7814    8.5753 H   0  0  0  0  0  0  0  0  0  0  0  0
    7.0751  -16.0248    7.5579 H   0  0  0  0  0  0  0  0  0  0  0  0
    7.1431  -15.5636    9.2559 H   0  0  0  0  0  0  0  0  0  0  0  0
    7.4729  -19.0401    9.4947 H   0  0  0  0  0  0  0  0  0  0  0  0
    5.6787  -20.2127   10.5760 H   0  0  0  0  0  0  0  0  0  0  0  0
    5.3789  -20.5159    8.8655 H   0  0  0  0  0  0  0  0  0  0  0  0
    3.3815  -19.8906    9.9332 H   0  0  0  0  0  0  0  0  0  0  0  0
    3.7312  -18.9332    7.7412 H   0  0  0  0  0  0  0  0  0  0  0  0
    2.7170  -17.9276    8.7727 H   0  0  0  0  0  0  0  0  0  0  0  0
    4.4202  -16.3718    9.2232 H   0  0  0  0  0  0  0  0  0  0  0  0
    4.6319  -16.7793    7.4994 H   0  0  0  0  0  0  0  0  0  0  0  0
   10.8604  -12.5736   10.6631 H   0  0  0  0  0  0  0  0  0  0  0  0
   10.8930  -11.3343   13.2550 H   0  0  0  0  0  0  0  0  0  0  0  0
   14.5971  -12.9074   11.8128 H   0  0  0  0  0  0  0  0  0  0  0  0
  1  2  2  0
  2  3  1  0
  3  4  1  0
  4  5  1  0
  5  6  1  0
  6  7  2  0
  7  8  1  0
  8  9  1  0
  9 10  1  0
 10 11  1  0
  2 12  1  0
 12 13  2  0
 12 14  1  0
 14 15  1  0
 15 16  1  0
 16 17  2  0
 17 18  1  0
 18 19  1  0
 19 20  1  0
 19 21  1  0
 19 22  1  0
 18 23  1  0
 11  6  1  0
 23 15  2  0
  3 24  1  0
  4 25  1  0
  4 26  1  0
  5 27  1  0
  5 28  1  0
  7 29  1  0
  8 30  1  0
  8 31  1  0
  9 32  1  0
 10 33  1  0
 10 34  1  0
 11 35  1  0
 11 36  1  0
 14 37  1  0
 16 38  1  0
 23 39  1  0
M  END
>  <Energy>  (1712) 
190.17592760336098

>  <compound_id>  (1712) 
25069

>  <target_id>  (1712) 
1

>  <reference_id>  (1712) 
122

>  <inspiration_ids>  (1712) 
[122, 85]

>  <energy_score>  (1712) 
6.062450238250676

>  <distance_score>  (1712) 
7.470966170142266

>  <path>  (1712) 
/opt/xchem-fragalysis-2/maxwin/BulkDock/SCRATCH/511013/C25069-P122/C25069-P122.minimised.mol

>  <scratch_subdir>  (1712) 
/opt/xchem-fragalysis-2/maxwin/BulkDock/SCRATCH/511013/C25069-P122

>  <fragmenstein_runtime>  (1712) 
11.595929384231567

>  <fragmenstein_outcome>  (1712) 
too moved

>  <fragmenstein_mode>  (1712) 
expansion

>  <fragmenstein_error>  (1712) 


$$$$
C25069-P85
     RDKit          3D

 39 40  0  0  0  0  0  0  0  0999 V2000
    5.5770   -8.6186    7.4817 O   0  0  0  0  0  0  0  0  0  0  0  0
    6.0829   -9.3096    8.2312 C   0  0  0  0  0  0  0  0  0  0  0  0
    5.8376  -10.6916    8.5308 N   0  0  0  0  0  0  0  0  0  0  0  0
    4.7182  -11.6850    8.0151 C   0  0  0  0  0  0  0  0  0  0  0  0
    5.2265  -13.1117    7.6417 C   0  0  0  0  0  0  0  0  0  0  0  0
    4.3852  -14.3496    7.8735 C   0  0  0  0  0  0  0  0  0  0  0  0
    4.9065  -15.4606    8.4366 C   0  0  0  0  0  0  0  0  0  0  0  0
    4.1310  -16.7237    8.6867 C   0  0  0  0  0  0  0  0  0  0  0  0
    2.6895  -16.5272    8.6404 N   0  0  0  0  0  0  0  0  0  0  0  0
    2.3172  -15.7689    7.4423 C   0  0  0  0  0  0  0  0  0  0  0  0
    2.9651  -14.3690    7.3813 C   0  0  0  0  0  0  0  0  0  0  0  0
    7.2751   -8.6594    9.3393 C   0  0  0  0  0  0  0  0  0  0  0  0
    8.1778   -9.3813    9.3999 O   0  0  0  0  0  0  0  0  0  0  0  0
    7.1410   -7.1891   10.4532 N   0  0  0  0  0  0  0  0  0  0  0  0
    8.2521   -6.6265   11.9485 C   0  0  0  0  0  0  0  0  0  0  0  0
    9.0363   -5.1770   10.6500 C   0  0  0  0  0  0  0  0  0  0  0  0
   10.6935   -4.5869   11.5285 N   0  0  0  0  0  0  0  0  0  0  0  0
   10.5351   -4.8349   13.4723 N   0  0  0  0  0  0  0  0  0  0  0  0
   11.2413   -3.9826   14.5056 C   0  0  0  0  0  0  0  0  0  0  0  0
   12.1277   -3.1352   13.9287 F   0  0  0  0  0  0  0  0  0  0  0  0
   10.3865   -3.2381   15.2524 F   0  0  0  0  0  0  0  0  0  0  0  0
   11.9423   -4.7600   15.3657 F   0  0  0  0  0  0  0  0  0  0  0  0
    8.6411   -5.7495   13.7355 C   0  0  0  0  0  0  0  0  0  0  0  0
    6.5105  -11.0064    9.1660 H   0  0  0  0  0  0  0  0  0  0  0  0
    4.0766  -11.8142    8.8969 H   0  0  0  0  0  0  0  0  0  0  0  0
    4.0235  -11.2208    7.2990 H   0  0  0  0  0  0  0  0  0  0  0  0
    5.5128  -13.1260    6.5853 H   0  0  0  0  0  0  0  0  0  0  0  0
    6.1261  -13.2757    8.2297 H   0  0  0  0  0  0  0  0  0  0  0  0
    5.9496  -15.4803    8.7354 H   0  0  0  0  0  0  0  0  0  0  0  0
    4.3938  -17.1117    9.6772 H   0  0  0  0  0  0  0  0  0  0  0  0
    4.4348  -17.4862    7.9606 H   0  0  0  0  0  0  0  0  0  0  0  0
    2.3953  -16.0181    9.4683 H   0  0  0  0  0  0  0  0  0  0  0  0
    2.5959  -16.3442    6.5621 H   0  0  0  0  0  0  0  0  0  0  0  0
    1.2314  -15.6827    7.3785 H   0  0  0  0  0  0  0  0  0  0  0  0
    2.4100  -13.6632    7.9944 H   0  0  0  0  0  0  0  0  0  0  0  0
    2.9182  -13.9944    6.3541 H   0  0  0  0  0  0  0  0  0  0  0  0
    6.2482   -6.7398   10.3004 H   0  0  0  0  0  0  0  0  0  0  0  0
    9.2320   -5.6534    9.7345 H   0  0  0  0  0  0  0  0  0  0  0  0
    8.9518   -5.1832   14.7005 H   0  0  0  0  0  0  0  0  0  0  0  0
  1  2  2  0
  2  3  1  0
  3  4  1  0
  4  5  1  0
  5  6  1  0
  6  7  2  0
  7  8  1  0
  8  9  1  0
  9 10  1  0
 10 11  1  0
  2 12  1  0
 12 13  2  0
 12 14  1  0
 14 15  1  0
 15 16  1  0
 16 17  2  0
 17 18  1  0
 18 19  1  0
 19 20  1  0
 19 21  1  0
 19 22  1  0
 18 23  1  0
 11  6  1  0
 23 15  2  0
  3 24  1  0
  4 25  1  0
  4 26  1  0
  5 27  1  0
  5 28  1  0
  7 29  1  0
  8 30  1  0
  8 31  1  0
  9 32  1  0
 10 33  1  0
 10 34  1  0
 11 35  1  0
 11 36  1  0
 14 37  1  0
 16 38  1  0
 23 39  1  0
M  END
>  <Energy>  (1713) 
1172.8559639049668

>  <compound_id>  (1713) 
25069

>  <target_id>  (1713) 
1

>  <reference_id>  (1713) 
85

>  <inspiration_ids>  (1713) 
[122, 85]

>  <energy_score>  (1713) 
986.2084637785134

>  <distance_score>  (1713) 
4.886514819362416

>  <path>  (1713) 
/opt/xchem-fragalysis-2/maxwin/BulkDock/SCRATCH/511013/C25069-P85/C25069-P85.minimised.mol

>  <scratch_subdir>  (1713) 
/opt/xchem-fragalysis-2/maxwin/BulkDock/SCRATCH/511013/C25069-P85

>  <fragmenstein_runtime>  (1713) 
17.554946660995483

>  <fragmenstein_outcome>  (1713) 
too moved

>  <fragmenstein_mode>  (1713) 
expansion

>  <fragmenstein_error>  (1713) 


$$$$
C25073-P122
     RDKit          3D

 40 42  0  0  0  0  0  0  0  0999 V2000
   12.7426   -5.5877   11.1406 C   0  0  0  0  0  0  0  0  0  0  0  0
   11.5529   -6.5600   11.2885 C   0  0  0  0  0  0  0  0  0  0  0  0
   10.2242   -7.9402   10.2703 C   0  0  0  0  0  0  0  0  0  0  0  0
    9.4178   -9.7705    9.6860 N   0  0  0  0  0  0  0  0  0  0  0  0
   10.3347   -9.8989    7.9604 C   0  0  0  0  0  0  0  0  0  0  0  0
    9.6692  -10.0110    6.3750 C   0  0  0  0  0  0  0  0  0  0  0  0
    8.3356  -10.7282    6.3573 C   0  0  0  0  0  0  0  0  0  0  0  0
    7.7820  -10.7265    7.7592 C   0  0  0  0  0  0  0  0  0  0  0  0
    9.0086  -11.1057    8.5241 C   0  0  0  0  0  0  0  0  0  0  0  0
    8.9287  -12.8408    8.2925 C   0  0  0  0  0  0  0  0  0  0  0  0
    9.3822  -13.6229    7.1802 C   0  0  0  0  0  0  0  0  0  0  0  0
    9.1289  -14.9388    7.5098 C   0  0  0  0  0  0  0  0  0  0  0  0
    8.4056  -14.8920    8.6538 N   0  0  0  0  0  0  0  0  0  0  0  0
    8.2275  -13.6561    9.0992 N   0  0  0  0  0  0  0  0  0  0  0  0
   11.3738   -4.9261   12.2604 C   0  0  0  0  0  0  0  0  0  0  0  0
   11.9929   -3.6139   13.1013 C   0  0  0  0  0  0  0  0  0  0  0  0
   13.2265   -3.0594   12.6237 N   0  0  0  0  0  0  0  0  0  0  0  0
   13.6770   -4.0165   11.5974 C   0  0  0  0  0  0  0  0  0  0  0  0
   13.6188   -6.2041   11.0258 H   0  0  0  0  0  0  0  0  0  0  0  0
    9.6817   -7.4192    9.5676 H   0  0  0  0  0  0  0  0  0  0  0  0
    9.3304   -7.9900   10.9275 H   0  0  0  0  0  0  0  0  0  0  0  0
   11.2449  -10.2388    8.1554 H   0  0  0  0  0  0  0  0  0  0  0  0
   10.7813   -8.9441    7.8385 H   0  0  0  0  0  0  0  0  0  0  0  0
   10.3315  -10.4038    5.5962 H   0  0  0  0  0  0  0  0  0  0  0  0
    9.5358   -8.9920    5.9833 H   0  0  0  0  0  0  0  0  0  0  0  0
    7.7559  -10.1616    5.6738 H   0  0  0  0  0  0  0  0  0  0  0  0
    8.4059  -11.7180    5.9085 H   0  0  0  0  0  0  0  0  0  0  0  0
    7.0899  -11.4501    8.1369 H   0  0  0  0  0  0  0  0  0  0  0  0
    7.2602   -9.8032    7.9966 H   0  0  0  0  0  0  0  0  0  0  0  0
    9.0934  -11.5382    9.4860 H   0  0  0  0  0  0  0  0  0  0  0  0
    9.9269  -13.2851    6.3118 H   0  0  0  0  0  0  0  0  0  0  0  0
    9.3985  -15.8763    7.0500 H   0  0  0  0  0  0  0  0  0  0  0  0
    7.9978  -15.6502    9.1900 H   0  0  0  0  0  0  0  0  0  0  0  0
   10.8659   -5.1050   13.1856 H   0  0  0  0  0  0  0  0  0  0  0  0
   10.9078   -4.4011   11.4637 H   0  0  0  0  0  0  0  0  0  0  0  0
   11.2685   -2.8180   13.1063 H   0  0  0  0  0  0  0  0  0  0  0  0
   12.0531   -3.7943   14.1837 H   0  0  0  0  0  0  0  0  0  0  0  0
   13.1299   -2.1140   12.2695 H   0  0  0  0  0  0  0  0  0  0  0  0
   14.7285   -4.0834   11.7375 H   0  0  0  0  0  0  0  0  0  0  0  0
   13.9355   -3.4355   10.7147 H   0  0  0  0  0  0  0  0  0  0  0  0
  1  2  2  0
  2  3  1  0
  3  4  1  0
  4  5  1  0
  5  6  1  0
  6  7  1  0
  7  8  1  0
  8  9  1  0
  9 10  1  0
 10 11  1  0
 11 12  2  0
 12 13  1  0
 13 14  1  0
  2 15  1  0
 15 16  1  0
 16 17  1  0
 17 18  1  0
 18  1  1  0
  9  4  1  0
 14 10  2  0
  1 19  1  0
  3 20  1  0
  3 21  1  0
  5 22  1  0
  5 23  1  0
  6 24  1  0
  6 25  1  0
  7 26  1  0
  7 27  1  0
  8 28  1  0
  8 29  1  0
  9 30  1  0
 11 31  1  0
 12 32  1  0
 13 33  1  0
 15 34  1  0
 15 35  1  0
 16 36  1  0
 16 37  1  0
 17 38  1  0
 18 39  1  0
 18 40  1  0
M  END
>  <Energy>  (1714) 
953.62923774946762

>  <compound_id>  (1714) 
25073

>  <target_id>  (1714) 
1

>  <reference_id>  (1714) 
122

>  <inspiration_ids>  (1714) 
[122, 85]

>  <energy_score>  (1714) 
872.9828996474312

>  <distance_score>  (1714) 
6.7346203536654095

>  <path>  (1714) 
/opt/xchem-fragalysis-2/maxwin/BulkDock/SCRATCH/511013/C25073-P122/C25073-P122.minimised.mol

>  <scratch_subdir>  (1714) 
/opt/xchem-fragalysis-2/maxwin/BulkDock/SCRATCH/511013/C25073-P122

>  <fragmenstein_runtime>  (1714) 
10.177337408065796

>  <fragmenstein_outcome>  (1714) 
too moved

>  <fragmenstein_mode>  (1714) 
expansion

>  <fragmenstein_error>  (1714) 


$$$$
C25073-P85
     RDKit          3D

 40 42  0  0  0  0  0  0  0  0999 V2000
   10.4128   -4.9692    9.9140 C   0  0  0  0  0  0  0  0  0  0  0  0
    8.8965   -5.6575    9.8902 C   0  0  0  0  0  0  0  0  0  0  0  0
    7.3703   -7.2731   10.0147 C   0  0  0  0  0  0  0  0  0  0  0  0
    6.9932   -8.9813    8.8249 N   0  0  0  0  0  0  0  0  0  0  0  0
    5.4792   -8.9508    8.1008 C   0  0  0  0  0  0  0  0  0  0  0  0
    4.1737   -9.9550    7.1906 C   0  0  0  0  0  0  0  0  0  0  0  0
    3.6098  -11.2364    7.6569 C   0  0  0  0  0  0  0  0  0  0  0  0
    4.3344  -11.2853    8.9230 C   0  0  0  0  0  0  0  0  0  0  0  0
    6.1345  -10.7770    8.7811 C   0  0  0  0  0  0  0  0  0  0  0  0
    6.0123  -12.6320    8.2090 C   0  0  0  0  0  0  0  0  0  0  0  0
    5.5261  -13.2790    6.9666 C   0  0  0  0  0  0  0  0  0  0  0  0
    5.1795  -14.5803    7.2295 C   0  0  0  0  0  0  0  0  0  0  0  0
    5.5586  -14.7901    8.4941 N   0  0  0  0  0  0  0  0  0  0  0  0
    5.9889  -13.6946    9.0990 N   0  0  0  0  0  0  0  0  0  0  0  0
   10.5969   -4.5494   10.4115 C   0  0  0  0  0  0  0  0  0  0  0  0
   11.3213   -4.1690   12.1305 C   0  0  0  0  0  0  0  0  0  0  0  0
   12.5213   -4.7105   11.5968 N   0  0  0  0  0  0  0  0  0  0  0  0
   11.8960   -5.8302   11.0183 C   0  0  0  0  0  0  0  0  0  0  0  0
   10.9680   -4.5605    8.6771 H   0  0  0  0  0  0  0  0  0  0  0  0
    8.2204   -7.4407   10.8171 H   0  0  0  0  0  0  0  0  0  0  0  0
    6.3909   -6.8375   10.0825 H   0  0  0  0  0  0  0  0  0  0  0  0
    5.0013   -8.4275    8.8845 H   0  0  0  0  0  0  0  0  0  0  0  0
    5.7577   -8.3959    7.2467 H   0  0  0  0  0  0  0  0  0  0  0  0
    4.1082   -9.7152    6.1301 H   0  0  0  0  0  0  0  0  0  0  0  0
    3.1963   -9.6005    7.3519 H   0  0  0  0  0  0  0  0  0  0  0  0
    2.5286  -11.2359    7.8521 H   0  0  0  0  0  0  0  0  0  0  0  0
    3.6894  -12.0237    6.9225 H   0  0  0  0  0  0  0  0  0  0  0  0
    3.8602  -10.8425    9.8155 H   0  0  0  0  0  0  0  0  0  0  0  0
    4.1686  -12.3169    9.2815 H   0  0  0  0  0  0  0  0  0  0  0  0
    6.6067  -10.7745    7.8573 H   0  0  0  0  0  0  0  0  0  0  0  0
    5.3068  -12.8468    6.0140 H   0  0  0  0  0  0  0  0  0  0  0  0
    4.6759  -15.3365    6.6612 H   0  0  0  0  0  0  0  0  0  0  0  0
    5.4824  -15.6440    9.0367 H   0  0  0  0  0  0  0  0  0  0  0  0
   12.0108   -4.7401    9.6992 H   0  0  0  0  0  0  0  0  0  0  0  0
   10.2525   -3.3151    9.7707 H   0  0  0  0  0  0  0  0  0  0  0  0
   11.1132   -4.6211   13.0935 H   0  0  0  0  0  0  0  0  0  0  0  0
   11.3354   -3.1469   12.5506 H   0  0  0  0  0  0  0  0  0  0  0  0
   13.0891   -4.5171   12.3882 H   0  0  0  0  0  0  0  0  0  0  0  0
   11.6187   -6.2658   11.9300 H   0  0  0  0  0  0  0  0  0  0  0  0
   11.5646   -6.9244   10.9123 H   0  0  0  0  0  0  0  0  0  0  0  0
  1  2  2  0
  2  3  1  0
  3  4  1  0
  4  5  1  0
  5  6  1  0
  6  7  1  0
  7  8  1  0
  8  9  1  0
  9 10  1  0
 10 11  1  0
 11 12  2  0
 12 13  1  0
 13 14  1  0
  2 15  1  0
 15 16  1  0
 16 17  1  0
 17 18  1  0
 18  1  1  0
  9  4  1  0
 14 10  2  0
  1 19  1  0
  3 20  1  0
  3 21  1  0
  5 22  1  0
  5 23  1  0
  6 24  1  0
  6 25  1  0
  7 26  1  0
  7 27  1  0
  8 28  1  0
  8 29  1  0
  9 30  1  0
 11 31  1  0
 12 32  1  0
 13 33  1  0
 15 34  1  0
 15 35  1  0
 16 36  1  0
 16 37  1  0
 17 38  1  0
 18 39  1  0
 18 40  1  0
M  END
>  <Energy>  (1715) 
1776.9467814203826

>  <compound_id>  (1715) 
25073

>  <target_id>  (1715) 
1

>  <reference_id>  (1715) 
85

>  <inspiration_ids>  (1715) 
[122, 85]

>  <energy_score>  (1715) 
1696.300443318381

>  <distance_score>  (1715) 
5.173108640522171

>  <path>  (1715) 
/opt/xchem-fragalysis-2/maxwin/BulkDock/SCRATCH/511013/C25073-P85/C25073-P85.minimised.mol

>  <scratch_subdir>  (1715) 
/opt/xchem-fragalysis-2/maxwin/BulkDock/SCRATCH/511013/C25073-P85

>  <fragmenstein_runtime>  (1715) 
8.412989616394043

>  <fragmenstein_outcome>  (1715) 
too moved

>  <fragmenstein_mode>  (1715) 
expansion

>  <fragmenstein_error>  (1715) 


$$$$
C20330-P94
     RDKit          3D

 45 48  0  0  0  0  0  0  0  0999 V2000
    0.7417  -22.7940   16.6700 O   0  0  0  0  0  0  0  0  0  0  0  0
    0.9745  -23.9693   16.7781 C   0  0  0  0  0  0  0  0  0  0  0  0
    0.1580  -25.0553   17.3452 N   0  0  0  0  0  0  0  0  0  0  0  0
   -1.2646  -25.0552   17.8728 C   0  0  0  0  0  0  0  0  0  0  0  0
   -1.8518  -25.2503   19.3407 C   0  0  0  0  0  0  0  0  0  0  0  0
   -3.2871  -24.4021   20.3834 C   0  0  0  0  0  0  0  0  0  0  0  0
   -3.5040  -25.1492   21.9986 C   0  0  0  0  0  0  0  0  0  0  0  0
   -2.4986  -26.1737   22.4438 C   0  0  0  0  0  0  0  0  0  0  0  0
   -2.4074  -26.8830   23.6188 N   0  0  0  0  0  0  0  0  0  0  0  0
   -1.2966  -27.6607   23.5889 C   0  0  0  0  0  0  0  0  0  0  0  0
   -0.6493  -27.5490   22.4520 N   0  0  0  0  0  0  0  0  0  0  0  0
   -1.3484  -26.6404   21.6710 C   0  0  0  0  0  0  0  0  0  0  0  0
   -1.0061  -26.2317   20.2124 C   0  0  0  0  0  0  0  0  0  0  0  0
    2.4224  -24.3343   16.0328 C   0  0  0  0  0  0  0  0  0  0  0  0
    2.3393  -24.7083   14.5215 C   0  0  0  0  0  0  0  0  0  0  0  0
    2.0212  -25.9570   14.1369 C   0  0  0  0  0  0  0  0  0  0  0  0
    2.0695  -26.4212   12.7006 C   0  0  0  0  0  0  0  0  0  0  0  0
    2.8160  -25.5529   11.7894 N   0  0  0  0  0  0  0  0  0  0  0  0
    2.4341  -24.1537   12.0039 C   0  0  0  0  0  0  0  0  0  0  0  0
    2.7863  -23.7216   13.4355 C   0  0  0  0  0  0  0  0  0  0  0  0
    3.4581  -23.0805   16.1337 C   0  0  0  0  0  0  0  0  0  0  0  0
    4.5709  -24.0831   16.4258 C   0  0  0  0  0  0  0  0  0  0  0  0
    3.5014  -25.1255   16.8161 C   0  0  0  0  0  0  0  0  0  0  0  0
    0.6321  -25.9364   17.1972 H   0  0  0  0  0  0  0  0  0  0  0  0
   -1.5800  -24.0800   17.5672 H   0  0  0  0  0  0  0  0  0  0  0  0
   -1.7299  -25.8004   17.2263 H   0  0  0  0  0  0  0  0  0  0  0  0
   -4.1417  -23.7718   20.2535 H   0  0  0  0  0  0  0  0  0  0  0  0
   -4.3927  -24.9270   22.5889 H   0  0  0  0  0  0  0  0  0  0  0  0
   -3.0441  -26.8071   24.3831 H   0  0  0  0  0  0  0  0  0  0  0  0
   -1.0034  -28.2949   24.4151 H   0  0  0  0  0  0  0  0  0  0  0  0
   -0.1238  -26.7015   19.7841 H   0  0  0  0  0  0  0  0  0  0  0  0
    1.7273  -26.7044   14.8673 H   0  0  0  0  0  0  0  0  0  0  0  0
    1.0451  -26.5502   12.3321 H   0  0  0  0  0  0  0  0  0  0  0  0
    2.5335  -27.4139   12.6734 H   0  0  0  0  0  0  0  0  0  0  0  0
    3.8079  -25.6471   12.0054 H   0  0  0  0  0  0  0  0  0  0  0  0
    1.3676  -24.0334   11.7917 H   0  0  0  0  0  0  0  0  0  0  0  0
    2.9706  -23.5204   11.2888 H   0  0  0  0  0  0  0  0  0  0  0  0
    2.3799  -22.7266   13.6150 H   0  0  0  0  0  0  0  0  0  0  0  0
    3.8801  -23.6370   13.4856 H   0  0  0  0  0  0  0  0  0  0  0  0
    3.6615  -22.4403   15.2733 H   0  0  0  0  0  0  0  0  0  0  0  0
    3.2468  -22.3596   16.9165 H   0  0  0  0  0  0  0  0  0  0  0  0
    5.1542  -24.3675   15.5427 H   0  0  0  0  0  0  0  0  0  0  0  0
    5.2653  -23.8007   17.2214 H   0  0  0  0  0  0  0  0  0  0  0  0
    3.3098  -25.1964   17.8916 H   0  0  0  0  0  0  0  0  0  0  0  0
    3.7166  -26.1412   16.4676 H   0  0  0  0  0  0  0  0  0  0  0  0
  1  2  2  0
  2  3  1  0
  3  4  1  0
  4  5  1  0
  5  6  2  0
  6  7  1  0
  7  8  2  0
  8  9  1  0
  9 10  1  0
 10 11  2  0
 11 12  1  0
 12 13  2  0
  2 14  1  0
 14 15  1  0
 15 16  2  0
 16 17  1  0
 17 18  1  0
 18 19  1  0
 19 20  1  0
 14 21  1  0
 21 22  1  0
 22 23  1  0
 13  5  1  0
 23 14  1  0
 12  8  1  0
 20 15  1  0
  3 24  1  0
  4 25  1  0
  4 26  1  0
  6 27  1  0
  7 28  1  0
  9 29  1  0
 10 30  1  0
 13 31  1  0
 16 32  1  0
 17 33  1  0
 17 34  1  0
 18 35  1  0
 19 36  1  0
 19 37  1  0
 20 38  1  0
 20 39  1  0
 21 40  1  0
 21 41  1  0
 22 42  1  0
 22 43  1  0
 23 44  1  0
 23 45  1  0
M  END
>  <Energy>  (1716) 
250.65741279781903

>  <compound_id>  (1716) 
20330

>  <target_id>  (1716) 
1

>  <reference_id>  (1716) 
94

>  <inspiration_ids>  (1716) 
[94, 85]

>  <energy_score>  (1716) 
180.79973441338967

>  <distance_score>  (1716) 
12.437895412180128

>  <path>  (1716) 
/opt/xchem-fragalysis-2/maxwin/BulkDock/SCRATCH/511013/C20330-P94/C20330-P94.minimised.mol

>  <scratch_subdir>  (1716) 
/opt/xchem-fragalysis-2/maxwin/BulkDock/SCRATCH/511013/C20330-P94

>  <fragmenstein_runtime>  (1716) 
21.143141269683838

>  <fragmenstein_outcome>  (1716) 
too moved

>  <fragmenstein_mode>  (1716) 
expansion

>  <fragmenstein_error>  (1716) 


$$$$
C20330-P85
     RDKit          3D

 45 48  0  0  0  0  0  0  0  0999 V2000
   -1.2448  -18.6643   14.8255 O   0  0  0  0  0  0  0  0  0  0  0  0
   -0.8590  -18.6957   15.9945 C   0  0  0  0  0  0  0  0  0  0  0  0
   -1.7534  -18.0782   17.3452 N   0  0  0  0  0  0  0  0  0  0  0  0
   -3.5340  -17.3465   17.4458 C   0  0  0  0  0  0  0  0  0  0  0  0
   -4.7190  -17.1806   18.7323 C   0  0  0  0  0  0  0  0  0  0  0  0
   -4.7579  -16.0083   19.5087 C   0  0  0  0  0  0  0  0  0  0  0  0
   -5.5884  -15.8820   20.6587 C   0  0  0  0  0  0  0  0  0  0  0  0
   -6.4122  -16.9573   21.0209 C   0  0  0  0  0  0  0  0  0  0  0  0
   -7.2725  -17.1671   22.0746 N   0  0  0  0  0  0  0  0  0  0  0  0
   -7.8313  -18.4034   21.9222 C   0  0  0  0  0  0  0  0  0  0  0  0
   -7.3751  -19.0067   20.8460 N   0  0  0  0  0  0  0  0  0  0  0  0
   -6.4605  -18.1322   20.2807 C   0  0  0  0  0  0  0  0  0  0  0  0
   -5.6025  -18.2513   19.1457 C   0  0  0  0  0  0  0  0  0  0  0  0
    1.0803  -19.5493   16.4932 C   0  0  0  0  0  0  0  0  0  0  0  0
    1.4604  -21.0314   16.9158 C   0  0  0  0  0  0  0  0  0  0  0  0
    1.4411  -21.4063   18.2086 C   0  0  0  0  0  0  0  0  0  0  0  0
    2.1180  -22.6346   18.7467 C   0  0  0  0  0  0  0  0  0  0  0  0
    3.2244  -23.1235   17.9295 N   0  0  0  0  0  0  0  0  0  0  0  0
    2.7897  -23.2132   16.5385 C   0  0  0  0  0  0  0  0  0  0  0  0
    2.4206  -21.8311   16.0159 C   0  0  0  0  0  0  0  0  0  0  0  0
    1.9487  -19.3134   14.9530 C   0  0  0  0  0  0  0  0  0  0  0  0
    3.0871  -18.5769   15.6480 C   0  0  0  0  0  0  0  0  0  0  0  0
    2.4465  -18.6655   17.0313 C   0  0  0  0  0  0  0  0  0  0  0  0
   -1.2866  -18.2891   18.1409 H   0  0  0  0  0  0  0  0  0  0  0  0
   -3.6281  -16.3991   16.9047 H   0  0  0  0  0  0  0  0  0  0  0  0
   -3.9981  -18.0904   16.8078 H   0  0  0  0  0  0  0  0  0  0  0  0
   -4.0999  -15.1805   19.2478 H   0  0  0  0  0  0  0  0  0  0  0  0
   -5.5623  -14.9680   21.2448 H   0  0  0  0  0  0  0  0  0  0  0  0
   -7.4659  -16.5095   22.8154 H   0  0  0  0  0  0  0  0  0  0  0  0
   -8.5614  -18.7985   22.6114 H   0  0  0  0  0  0  0  0  0  0  0  0
   -5.5804  -19.1987   18.6255 H   0  0  0  0  0  0  0  0  0  0  0  0
    1.0132  -20.7805   18.9783 H   0  0  0  0  0  0  0  0  0  0  0  0
    2.5163  -22.4057   19.7422 H   0  0  0  0  0  0  0  0  0  0  0  0
    1.3707  -23.4246   18.8885 H   0  0  0  0  0  0  0  0  0  0  0  0
    3.9849  -22.4464   17.9854 H   0  0  0  0  0  0  0  0  0  0  0  0
    1.9464  -23.8988   16.4685 H   0  0  0  0  0  0  0  0  0  0  0  0
    3.5986  -23.6364   15.9331 H   0  0  0  0  0  0  0  0  0  0  0  0
    3.3648  -21.2760   15.9480 H   0  0  0  0  0  0  0  0  0  0  0  0
    2.0642  -21.9497   14.9986 H   0  0  0  0  0  0  0  0  0  0  0  0
    2.2886  -20.1571   14.3524 H   0  0  0  0  0  0  0  0  0  0  0  0
    1.3542  -18.7699   14.2271 H   0  0  0  0  0  0  0  0  0  0  0  0
    3.2763  -17.5523   15.3288 H   0  0  0  0  0  0  0  0  0  0  0  0
    4.0490  -19.0991   15.5834 H   0  0  0  0  0  0  0  0  0  0  0  0
    2.3233  -17.6912   17.5202 H   0  0  0  0  0  0  0  0  0  0  0  0
    3.0976  -19.2337   17.7062 H   0  0  0  0  0  0  0  0  0  0  0  0
  1  2  2  0
  2  3  1  0
  3  4  1  0
  4  5  1  0
  5  6  2  0
  6  7  1  0
  7  8  2  0
  8  9  1  0
  9 10  1  0
 10 11  2  0
 11 12  1  0
 12 13  2  0
  2 14  1  0
 14 15  1  0
 15 16  2  0
 16 17  1  0
 17 18  1  0
 18 19  1  0
 19 20  1  0
 14 21  1  0
 21 22  1  0
 22 23  1  0
 13  5  1  0
 23 14  1  0
 12  8  1  0
 20 15  1  0
  3 24  1  0
  4 25  1  0
  4 26  1  0
  6 27  1  0
  7 28  1  0
  9 29  1  0
 10 30  1  0
 13 31  1  0
 16 32  1  0
 17 33  1  0
 17 34  1  0
 18 35  1  0
 19 36  1  0
 19 37  1  0
 20 38  1  0
 20 39  1  0
 21 40  1  0
 21 41  1  0
 22 42  1  0
 22 43  1  0
 23 44  1  0
 23 45  1  0
M  END
>  <Energy>  (1717) 
273.03120570677379

>  <compound_id>  (1717) 
20330

>  <target_id>  (1717) 
1

>  <reference_id>  (1717) 
85

>  <inspiration_ids>  (1717) 
[94, 85]

>  <energy_score>  (1717) 
203.17352732234434

>  <distance_score>  (1717) 
11.824038221627232

>  <path>  (1717) 
/opt/xchem-fragalysis-2/maxwin/BulkDock/SCRATCH/511013/C20330-P85/C20330-P85.minimised.mol

>  <scratch_subdir>  (1717) 
/opt/xchem-fragalysis-2/maxwin/BulkDock/SCRATCH/511013/C20330-P85

>  <fragmenstein_runtime>  (1717) 
16.980244398117065

>  <fragmenstein_outcome>  (1717) 
too moved

>  <fragmenstein_mode>  (1717) 
expansion

>  <fragmenstein_error>  (1717) 


$$$$
C20347-P94
     RDKit          3D

 48 51  0  0  0  0  0  0  0  0999 V2000
    1.7046  -19.6910   18.3931 O   0  0  0  0  0  0  0  0  0  0  0  0
    0.9524  -19.2461   17.5127 C   0  0  0  0  0  0  0  0  0  0  0  0
   -0.8656  -18.7552   17.7393 N   0  0  0  0  0  0  0  0  0  0  0  0
   -2.1492  -18.9261   19.2967 C   0  0  0  0  0  0  0  0  0  0  0  0
   -3.8500  -20.0604   19.7795 C   0  0  0  0  0  0  0  0  0  0  0  0
   -4.8811  -21.4342   20.8909 C   0  0  0  0  0  0  0  0  0  0  0  0
   -5.4562  -21.5552   22.2868 N   0  0  0  0  0  0  0  0  0  0  0  0
   -5.5386  -23.1715   23.0811 C   0  0  0  0  0  0  0  0  0  0  0  0
   -5.5206  -23.6195   24.3903 C   0  0  0  0  0  0  0  0  0  0  0  0
   -6.8275  -23.8174   24.4847 C   0  0  0  0  0  0  0  0  0  0  0  0
   -7.4757  -23.8840   23.3314 C   0  0  0  0  0  0  0  0  0  0  0  0
   -6.6040  -24.6085   22.1904 C   0  0  0  0  0  0  0  0  0  0  0  0
   -5.3444  -24.1487   22.1201 C   0  0  0  0  0  0  0  0  0  0  0  0
   -4.8958  -23.2923   20.8949 N   0  0  0  0  0  0  0  0  0  0  0  0
    1.9005  -19.3068   15.7332 C   0  0  0  0  0  0  0  0  0  0  0  0
    3.6460  -19.3361   15.4565 C   0  0  0  0  0  0  0  0  0  0  0  0
    4.4168  -20.4277   15.7766 C   0  0  0  0  0  0  0  0  0  0  0  0
    5.7148  -20.8429   15.1362 C   0  0  0  0  0  0  0  0  0  0  0  0
    5.8736  -20.3194   13.7907 N   0  0  0  0  0  0  0  0  0  0  0  0
    5.6565  -18.8821   13.8165 C   0  0  0  0  0  0  0  0  0  0  0  0
    4.2889  -18.4356   14.3826 C   0  0  0  0  0  0  0  0  0  0  0  0
    1.8289  -21.0834   15.7344 C   0  0  0  0  0  0  0  0  0  0  0  0
    2.2050  -21.1210   14.2556 C   0  0  0  0  0  0  0  0  0  0  0  0
    1.5219  -19.7427   14.0661 C   0  0  0  0  0  0  0  0  0  0  0  0
   -1.2157  -18.3518   16.8933 H   0  0  0  0  0  0  0  0  0  0  0  0
   -2.8181  -18.2138   18.7743 H   0  0  0  0  0  0  0  0  0  0  0  0
   -1.8464  -18.2255   20.0965 H   0  0  0  0  0  0  0  0  0  0  0  0
   -4.5724  -19.2464   19.9643 H   0  0  0  0  0  0  0  0  0  0  0  0
   -4.2103  -20.2266   18.7702 H   0  0  0  0  0  0  0  0  0  0  0  0
   -5.1024  -23.1239   25.2638 H   0  0  0  0  0  0  0  0  0  0  0  0
   -7.2346  -23.5548   25.4388 H   0  0  0  0  0  0  0  0  0  0  0  0
   -8.5428  -23.6819   23.2540 H   0  0  0  0  0  0  0  0  0  0  0  0
   -7.1086  -24.8601   21.2558 H   0  0  0  0  0  0  0  0  0  0  0  0
   -4.3302  -23.7490   20.2321 H   0  0  0  0  0  0  0  0  0  0  0  0
    4.1301  -21.1318   16.5475 H   0  0  0  0  0  0  0  0  0  0  0  0
    5.7390  -21.9372   15.0756 H   0  0  0  0  0  0  0  0  0  0  0  0
    6.5597  -20.5506   15.7699 H   0  0  0  0  0  0  0  0  0  0  0  0
    5.1558  -20.7438   13.2023 H   0  0  0  0  0  0  0  0  0  0  0  0
    5.7404  -18.5422   12.7852 H   0  0  0  0  0  0  0  0  0  0  0  0
    6.4686  -18.3988   14.3734 H   0  0  0  0  0  0  0  0  0  0  0  0
    4.4641  -17.4748   14.8568 H   0  0  0  0  0  0  0  0  0  0  0  0
    3.6728  -18.2863   13.5022 H   0  0  0  0  0  0  0  0  0  0  0  0
    0.8780  -21.5314   15.9580 H   0  0  0  0  0  0  0  0  0  0  0  0
    2.4248  -21.6610   16.4408 H   0  0  0  0  0  0  0  0  0  0  0  0
    1.9664  -22.0613   13.7758 H   0  0  0  0  0  0  0  0  0  0  0  0
    3.2443  -21.1040   13.9300 H   0  0  0  0  0  0  0  0  0  0  0  0
    2.0657  -19.2406   13.2562 H   0  0  0  0  0  0  0  0  0  0  0  0
    0.5451  -19.6684   13.6004 H   0  0  0  0  0  0  0  0  0  0  0  0
  1  2  2  0
  2  3  1  0
  3  4  1  0
  4  5  1  0
  5  6  1  0
  6  7  2  0
  7  8  1  0
  8  9  2  0
  9 10  1  0
 10 11  2  0
 11 12  1  0
 12 13  2  0
 13 14  1  0
  2 15  1  0
 15 16  1  0
 16 17  2  0
 17 18  1  0
 18 19  1  0
 19 20  1  0
 20 21  1  0
 15 22  1  0
 22 23  1  0
 23 24  1  0
 14  6  1  0
 24 15  1  0
 13  8  1  0
 21 16  1  0
  3 25  1  0
  4 26  1  0
  4 27  1  0
  5 28  1  0
  5 29  1  0
  9 30  1  0
 10 31  1  0
 11 32  1  0
 12 33  1  0
 14 34  1  0
 17 35  1  0
 18 36  1  0
 18 37  1  0
 19 38  1  0
 20 39  1  0
 20 40  1  0
 21 41  1  0
 21 42  1  0
 22 43  1  0
 22 44  1  0
 23 45  1  0
 23 46  1  0
 24 47  1  0
 24 48  1  0
M  END
>  <Energy>  (1718) 
908.91083932665208

>  <compound_id>  (1718) 
20347

>  <target_id>  (1718) 
1

>  <reference_id>  (1718) 
94

>  <inspiration_ids>  (1718) 
[94, 85]

>  <energy_score>  (1718) 
821.7993051276953

>  <distance_score>  (1718) 
9.369207191467831

>  <path>  (1718) 
/opt/xchem-fragalysis-2/maxwin/BulkDock/SCRATCH/511013/C20347-P94/C20347-P94.minimised.mol

>  <scratch_subdir>  (1718) 
/opt/xchem-fragalysis-2/maxwin/BulkDock/SCRATCH/511013/C20347-P94

>  <fragmenstein_runtime>  (1718) 
24.379173755645752

>  <fragmenstein_outcome>  (1718) 
too moved

>  <fragmenstein_mode>  (1718) 
expansion

>  <fragmenstein_error>  (1718) 


$$$$
C20347-P85
     RDKit          3D

 48 51  0  0  0  0  0  0  0  0999 V2000
   -0.6033  -17.4996   17.9404 O   0  0  0  0  0  0  0  0  0  0  0  0
   -1.0581  -18.3929   17.3331 C   0  0  0  0  0  0  0  0  0  0  0  0
   -3.0810  -18.3151   17.1293 N   0  0  0  0  0  0  0  0  0  0  0  0
   -4.1679  -17.3576   17.7240 C   0  0  0  0  0  0  0  0  0  0  0  0
   -5.4212  -18.5243   18.7177 C   0  0  0  0  0  0  0  0  0  0  0  0
   -7.1082  -19.2940   18.9451 C   0  0  0  0  0  0  0  0  0  0  0  0
   -7.8437  -19.6888   20.1040 N   0  0  0  0  0  0  0  0  0  0  0  0
   -9.2680  -20.6817   19.6512 C   0  0  0  0  0  0  0  0  0  0  0  0
  -10.2916  -21.5252   20.3293 C   0  0  0  0  0  0  0  0  0  0  0  0
  -11.4112  -21.9804   19.6347 C   0  0  0  0  0  0  0  0  0  0  0  0
  -11.4953  -21.7241   18.2721 C   0  0  0  0  0  0  0  0  0  0  0  0
  -10.4453  -21.0931   17.5670 C   0  0  0  0  0  0  0  0  0  0  0  0
   -9.3313  -20.6179   18.2982 C   0  0  0  0  0  0  0  0  0  0  0  0
   -7.9167  -20.2080   18.0144 N   0  0  0  0  0  0  0  0  0  0  0  0
    0.5217  -19.7703   16.9038 C   0  0  0  0  0  0  0  0  0  0  0  0
    0.9722  -21.2539   17.5623 C   0  0  0  0  0  0  0  0  0  0  0  0
    1.0810  -21.5028   18.8865 C   0  0  0  0  0  0  0  0  0  0  0  0
    1.6501  -22.8036   19.3668 C   0  0  0  0  0  0  0  0  0  0  0  0
    2.9355  -23.0926   18.7355 N   0  0  0  0  0  0  0  0  0  0  0  0
    2.9115  -22.9107   17.2843 C   0  0  0  0  0  0  0  0  0  0  0  0
    1.6138  -22.3269   16.7143 C   0  0  0  0  0  0  0  0  0  0  0  0
    1.6654  -19.5714   15.3687 C   0  0  0  0  0  0  0  0  0  0  0  0
    2.8778  -19.2960   16.1895 C   0  0  0  0  0  0  0  0  0  0  0  0
    2.0712  -19.0363   17.4415 C   0  0  0  0  0  0  0  0  0  0  0  0
   -3.3796  -19.0597   16.5298 H   0  0  0  0  0  0  0  0  0  0  0  0
   -4.6570  -16.4335   17.4082 H   0  0  0  0  0  0  0  0  0  0  0  0
   -4.4389  -17.4782   16.6989 H   0  0  0  0  0  0  0  0  0  0  0  0
   -4.9887  -19.4737   18.4328 H   0  0  0  0  0  0  0  0  0  0  0  0
   -5.2194  -18.2980   19.7668 H   0  0  0  0  0  0  0  0  0  0  0  0
  -10.2171  -21.7107   21.3979 H   0  0  0  0  0  0  0  0  0  0  0  0
  -12.2024  -22.5155   20.1501 H   0  0  0  0  0  0  0  0  0  0  0  0
  -12.3610  -22.0781   17.7140 H   0  0  0  0  0  0  0  0  0  0  0  0
  -10.4829  -21.0387   16.4835 H   0  0  0  0  0  0  0  0  0  0  0  0
   -7.4390  -20.9770   17.5651 H   0  0  0  0  0  0  0  0  0  0  0  0
    0.7846  -20.8051   19.6586 H   0  0  0  0  0  0  0  0  0  0  0  0
    0.9398  -23.6201   19.1914 H   0  0  0  0  0  0  0  0  0  0  0  0
    1.7984  -22.7543   20.4517 H   0  0  0  0  0  0  0  0  0  0  0  0
    3.5600  -22.3833   19.1254 H   0  0  0  0  0  0  0  0  0  0  0  0
    3.1011  -23.8807   16.8097 H   0  0  0  0  0  0  0  0  0  0  0  0
    3.7585  -22.2735   17.0052 H   0  0  0  0  0  0  0  0  0  0  0  0
    0.8952  -23.1474   16.6702 H   0  0  0  0  0  0  0  0  0  0  0  0
    1.8634  -22.0162   15.7119 H   0  0  0  0  0  0  0  0  0  0  0  0
    1.8197  -20.4404   14.7146 H   0  0  0  0  0  0  0  0  0  0  0  0
    1.4348  -18.7996   14.6319 H   0  0  0  0  0  0  0  0  0  0  0  0
    3.5619  -20.1455   16.2671 H   0  0  0  0  0  0  0  0  0  0  0  0
    3.4707  -18.4416   15.8452 H   0  0  0  0  0  0  0  0  0  0  0  0
    2.1333  -17.9751   17.6878 H   0  0  0  0  0  0  0  0  0  0  0  0
    2.4841  -19.6138   18.2422 H   0  0  0  0  0  0  0  0  0  0  0  0
  1  2  2  0
  2  3  1  0
  3  4  1  0
  4  5  1  0
  5  6  1  0
  6  7  2  0
  7  8  1  0
  8  9  2  0
  9 10  1  0
 10 11  2  0
 11 12  1  0
 12 13  2  0
 13 14  1  0
  2 15  1  0
 15 16  1  0
 16 17  2  0
 17 18  1  0
 18 19  1  0
 19 20  1  0
 20 21  1  0
 15 22  1  0
 22 23  1  0
 23 24  1  0
 14  6  1  0
 24 15  1  0
 13  8  1  0
 21 16  1  0
  3 25  1  0
  4 26  1  0
  4 27  1  0
  5 28  1  0
  5 29  1  0
  9 30  1  0
 10 31  1  0
 11 32  1  0
 12 33  1  0
 14 34  1  0
 17 35  1  0
 18 36  1  0
 18 37  1  0
 19 38  1  0
 20 39  1  0
 20 40  1  0
 21 41  1  0
 21 42  1  0
 22 43  1  0
 22 44  1  0
 23 45  1  0
 23 46  1  0
 24 47  1  0
 24 48  1  0
M  END
>  <Energy>  (1719) 
648.50796461732159

>  <compound_id>  (1719) 
20347

>  <target_id>  (1719) 
1

>  <reference_id>  (1719) 
85

>  <inspiration_ids>  (1719) 
[94, 85]

>  <energy_score>  (1719) 
561.3964304183787

>  <distance_score>  (1719) 
11.716816462297746

>  <path>  (1719) 
/opt/xchem-fragalysis-2/maxwin/BulkDock/SCRATCH/511013/C20347-P85/C20347-P85.minimised.mol

>  <scratch_subdir>  (1719) 
/opt/xchem-fragalysis-2/maxwin/BulkDock/SCRATCH/511013/C20347-P85

>  <fragmenstein_runtime>  (1719) 
25.552223682403564

>  <fragmenstein_outcome>  (1719) 
too moved

>  <fragmenstein_mode>  (1719) 
expansion

>  <fragmenstein_error>  (1719) 


$$$$
C20347-P94
     RDKit          3D

 48 51  0  0  0  0  0  0  0  0999 V2000
    1.7046  -19.6910   18.3931 O   0  0  0  0  0  0  0  0  0  0  0  0
    0.9524  -19.2461   17.5127 C   0  0  0  0  0  0  0  0  0  0  0  0
   -0.8656  -18.7552   17.7393 N   0  0  0  0  0  0  0  0  0  0  0  0
   -2.1492  -18.9261   19.2967 C   0  0  0  0  0  0  0  0  0  0  0  0
   -3.8500  -20.0604   19.7795 C   0  0  0  0  0  0  0  0  0  0  0  0
   -4.8811  -21.4342   20.8909 C   0  0  0  0  0  0  0  0  0  0  0  0
   -5.4562  -21.5552   22.2868 N   0  0  0  0  0  0  0  0  0  0  0  0
   -5.5386  -23.1715   23.0811 C   0  0  0  0  0  0  0  0  0  0  0  0
   -5.5206  -23.6195   24.3903 C   0  0  0  0  0  0  0  0  0  0  0  0
   -6.8275  -23.8174   24.4847 C   0  0  0  0  0  0  0  0  0  0  0  0
   -7.4757  -23.8840   23.3314 C   0  0  0  0  0  0  0  0  0  0  0  0
   -6.6040  -24.6085   22.1904 C   0  0  0  0  0  0  0  0  0  0  0  0
   -5.3444  -24.1487   22.1201 C   0  0  0  0  0  0  0  0  0  0  0  0
   -4.8958  -23.2923   20.8949 N   0  0  0  0  0  0  0  0  0  0  0  0
    1.9005  -19.3068   15.7332 C   0  0  0  0  0  0  0  0  0  0  0  0
    3.6460  -19.3361   15.4565 C   0  0  0  0  0  0  0  0  0  0  0  0
    4.4168  -20.4277   15.7766 C   0  0  0  0  0  0  0  0  0  0  0  0
    5.7148  -20.8429   15.1362 C   0  0  0  0  0  0  0  0  0  0  0  0
    5.8736  -20.3194   13.7907 N   0  0  0  0  0  0  0  0  0  0  0  0
    5.6565  -18.8821   13.8165 C   0  0  0  0  0  0  0  0  0  0  0  0
    4.2889  -18.4356   14.3826 C   0  0  0  0  0  0  0  0  0  0  0  0
    1.8289  -21.0834   15.7344 C   0  0  0  0  0  0  0  0  0  0  0  0
    2.2050  -21.1210   14.2556 C   0  0  0  0  0  0  0  0  0  0  0  0
    1.5219  -19.7427   14.0661 C   0  0  0  0  0  0  0  0  0  0  0  0
   -1.2157  -18.3518   16.8933 H   0  0  0  0  0  0  0  0  0  0  0  0
   -2.8181  -18.2138   18.7743 H   0  0  0  0  0  0  0  0  0  0  0  0
   -1.8464  -18.2255   20.0965 H   0  0  0  0  0  0  0  0  0  0  0  0
   -4.5724  -19.2464   19.9643 H   0  0  0  0  0  0  0  0  0  0  0  0
   -4.2103  -20.2266   18.7702 H   0  0  0  0  0  0  0  0  0  0  0  0
   -5.1024  -23.1239   25.2638 H   0  0  0  0  0  0  0  0  0  0  0  0
   -7.2346  -23.5548   25.4388 H   0  0  0  0  0  0  0  0  0  0  0  0
   -8.5428  -23.6819   23.2540 H   0  0  0  0  0  0  0  0  0  0  0  0
   -7.1086  -24.8601   21.2558 H   0  0  0  0  0  0  0  0  0  0  0  0
   -4.3302  -23.7490   20.2321 H   0  0  0  0  0  0  0  0  0  0  0  0
    4.1301  -21.1318   16.5475 H   0  0  0  0  0  0  0  0  0  0  0  0
    5.7390  -21.9372   15.0756 H   0  0  0  0  0  0  0  0  0  0  0  0
    6.5597  -20.5506   15.7699 H   0  0  0  0  0  0  0  0  0  0  0  0
    5.1558  -20.7438   13.2023 H   0  0  0  0  0  0  0  0  0  0  0  0
    5.7404  -18.5422   12.7852 H   0  0  0  0  0  0  0  0  0  0  0  0
    6.4686  -18.3988   14.3734 H   0  0  0  0  0  0  0  0  0  0  0  0
    4.4641  -17.4748   14.8568 H   0  0  0  0  0  0  0  0  0  0  0  0
    3.6728  -18.2863   13.5022 H   0  0  0  0  0  0  0  0  0  0  0  0
    0.8780  -21.5314   15.9580 H   0  0  0  0  0  0  0  0  0  0  0  0
    2.4248  -21.6610   16.4408 H   0  0  0  0  0  0  0  0  0  0  0  0
    1.9664  -22.0613   13.7758 H   0  0  0  0  0  0  0  0  0  0  0  0
    3.2443  -21.1040   13.9300 H   0  0  0  0  0  0  0  0  0  0  0  0
    2.0657  -19.2406   13.2562 H   0  0  0  0  0  0  0  0  0  0  0  0
    0.5451  -19.6684   13.6004 H   0  0  0  0  0  0  0  0  0  0  0  0
  1  2  2  0
  2  3  1  0
  3  4  1  0
  4  5  1  0
  5  6  1  0
  6  7  2  0
  7  8  1  0
  8  9  2  0
  9 10  1  0
 10 11  2  0
 11 12  1  0
 12 13  2  0
 13 14  1  0
  2 15  1  0
 15 16  1  0
 16 17  2  0
 17 18  1  0
 18 19  1  0
 19 20  1  0
 20 21  1  0
 15 22  1  0
 22 23  1  0
 23 24  1  0
 14  6  1  0
 24 15  1  0
 13  8  1  0
 21 16  1  0
  3 25  1  0
  4 26  1  0
  4 27  1  0
  5 28  1  0
  5 29  1  0
  9 30  1  0
 10 31  1  0
 11 32  1  0
 12 33  1  0
 14 34  1  0
 17 35  1  0
 18 36  1  0
 18 37  1  0
 19 38  1  0
 20 39  1  0
 20 40  1  0
 21 41  1  0
 21 42  1  0
 22 43  1  0
 22 44  1  0
 23 45  1  0
 23 46  1  0
 24 47  1  0
 24 48  1  0
M  END
>  <Energy>  (1720) 
908.91083932665208

>  <compound_id>  (1720) 
20347

>  <target_id>  (1720) 
1

>  <reference_id>  (1720) 
94

>  <inspiration_ids>  (1720) 
[94, 85]

>  <energy_score>  (1720) 
821.7993051276953

>  <distance_score>  (1720) 
9.369207191467831

>  <path>  (1720) 
/opt/xchem-fragalysis-2/maxwin/BulkDock/SCRATCH/511013/C20347-P94/C20347-P94.minimised.mol

>  <scratch_subdir>  (1720) 
/opt/xchem-fragalysis-2/maxwin/BulkDock/SCRATCH/511013/C20347-P94

>  <fragmenstein_runtime>  (1720) 
25.8188157081604

>  <fragmenstein_outcome>  (1720) 
too moved

>  <fragmenstein_mode>  (1720) 
expansion

>  <fragmenstein_error>  (1720) 


$$$$
C20347-P85
     RDKit          3D

 48 51  0  0  0  0  0  0  0  0999 V2000
   -0.6033  -17.4996   17.9404 O   0  0  0  0  0  0  0  0  0  0  0  0
   -1.0581  -18.3929   17.3331 C   0  0  0  0  0  0  0  0  0  0  0  0
   -3.0810  -18.3151   17.1293 N   0  0  0  0  0  0  0  0  0  0  0  0
   -4.1679  -17.3576   17.7240 C   0  0  0  0  0  0  0  0  0  0  0  0
   -5.4212  -18.5243   18.7177 C   0  0  0  0  0  0  0  0  0  0  0  0
   -7.1082  -19.2940   18.9451 C   0  0  0  0  0  0  0  0  0  0  0  0
   -7.8437  -19.6888   20.1040 N   0  0  0  0  0  0  0  0  0  0  0  0
   -9.2680  -20.6817   19.6512 C   0  0  0  0  0  0  0  0  0  0  0  0
  -10.2916  -21.5252   20.3293 C   0  0  0  0  0  0  0  0  0  0  0  0
  -11.4112  -21.9804   19.6347 C   0  0  0  0  0  0  0  0  0  0  0  0
  -11.4953  -21.7241   18.2721 C   0  0  0  0  0  0  0  0  0  0  0  0
  -10.4453  -21.0931   17.5670 C   0  0  0  0  0  0  0  0  0  0  0  0
   -9.3313  -20.6179   18.2982 C   0  0  0  0  0  0  0  0  0  0  0  0
   -7.9167  -20.2080   18.0144 N   0  0  0  0  0  0  0  0  0  0  0  0
    0.5217  -19.7703   16.9038 C   0  0  0  0  0  0  0  0  0  0  0  0
    0.9722  -21.2539   17.5623 C   0  0  0  0  0  0  0  0  0  0  0  0
    1.0810  -21.5028   18.8865 C   0  0  0  0  0  0  0  0  0  0  0  0
    1.6501  -22.8036   19.3668 C   0  0  0  0  0  0  0  0  0  0  0  0
    2.9355  -23.0926   18.7355 N   0  0  0  0  0  0  0  0  0  0  0  0
    2.9115  -22.9107   17.2843 C   0  0  0  0  0  0  0  0  0  0  0  0
    1.6138  -22.3269   16.7143 C   0  0  0  0  0  0  0  0  0  0  0  0
    1.6654  -19.5714   15.3687 C   0  0  0  0  0  0  0  0  0  0  0  0
    2.8778  -19.2960   16.1895 C   0  0  0  0  0  0  0  0  0  0  0  0
    2.0712  -19.0363   17.4415 C   0  0  0  0  0  0  0  0  0  0  0  0
   -3.3796  -19.0597   16.5298 H   0  0  0  0  0  0  0  0  0  0  0  0
   -4.6570  -16.4335   17.4082 H   0  0  0  0  0  0  0  0  0  0  0  0
   -4.4389  -17.4782   16.6989 H   0  0  0  0  0  0  0  0  0  0  0  0
   -4.9887  -19.4737   18.4328 H   0  0  0  0  0  0  0  0  0  0  0  0
   -5.2194  -18.2980   19.7668 H   0  0  0  0  0  0  0  0  0  0  0  0
  -10.2171  -21.7107   21.3979 H   0  0  0  0  0  0  0  0  0  0  0  0
  -12.2024  -22.5155   20.1501 H   0  0  0  0  0  0  0  0  0  0  0  0
  -12.3610  -22.0781   17.7140 H   0  0  0  0  0  0  0  0  0  0  0  0
  -10.4829  -21.0387   16.4835 H   0  0  0  0  0  0  0  0  0  0  0  0
   -7.4390  -20.9770   17.5651 H   0  0  0  0  0  0  0  0  0  0  0  0
    0.7846  -20.8051   19.6586 H   0  0  0  0  0  0  0  0  0  0  0  0
    0.9398  -23.6201   19.1914 H   0  0  0  0  0  0  0  0  0  0  0  0
    1.7984  -22.7543   20.4517 H   0  0  0  0  0  0  0  0  0  0  0  0
    3.5600  -22.3833   19.1254 H   0  0  0  0  0  0  0  0  0  0  0  0
    3.1011  -23.8807   16.8097 H   0  0  0  0  0  0  0  0  0  0  0  0
    3.7585  -22.2735   17.0052 H   0  0  0  0  0  0  0  0  0  0  0  0
    0.8952  -23.1474   16.6702 H   0  0  0  0  0  0  0  0  0  0  0  0
    1.8634  -22.0162   15.7119 H   0  0  0  0  0  0  0  0  0  0  0  0
    1.8197  -20.4404   14.7146 H   0  0  0  0  0  0  0  0  0  0  0  0
    1.4348  -18.7996   14.6319 H   0  0  0  0  0  0  0  0  0  0  0  0
    3.5619  -20.1455   16.2671 H   0  0  0  0  0  0  0  0  0  0  0  0
    3.4707  -18.4416   15.8452 H   0  0  0  0  0  0  0  0  0  0  0  0
    2.1333  -17.9751   17.6878 H   0  0  0  0  0  0  0  0  0  0  0  0
    2.4841  -19.6138   18.2422 H   0  0  0  0  0  0  0  0  0  0  0  0
  1  2  2  0
  2  3  1  0
  3  4  1  0
  4  5  1  0
  5  6  1  0
  6  7  2  0
  7  8  1  0
  8  9  2  0
  9 10  1  0
 10 11  2  0
 11 12  1  0
 12 13  2  0
 13 14  1  0
  2 15  1  0
 15 16  1  0
 16 17  2  0
 17 18  1  0
 18 19  1  0
 19 20  1  0
 20 21  1  0
 15 22  1  0
 22 23  1  0
 23 24  1  0
 14  6  1  0
 24 15  1  0
 13  8  1  0
 21 16  1  0
  3 25  1  0
  4 26  1  0
  4 27  1  0
  5 28  1  0
  5 29  1  0
  9 30  1  0
 10 31  1  0
 11 32  1  0
 12 33  1  0
 14 34  1  0
 17 35  1  0
 18 36  1  0
 18 37  1  0
 19 38  1  0
 20 39  1  0
 20 40  1  0
 21 41  1  0
 21 42  1  0
 22 43  1  0
 22 44  1  0
 23 45  1  0
 23 46  1  0
 24 47  1  0
 24 48  1  0
M  END
>  <Energy>  (1721) 
648.50796461732159

>  <compound_id>  (1721) 
20347

>  <target_id>  (1721) 
1

>  <reference_id>  (1721) 
85

>  <inspiration_ids>  (1721) 
[94, 85]

>  <energy_score>  (1721) 
561.3964304183787

>  <distance_score>  (1721) 
11.716816462297746

>  <path>  (1721) 
/opt/xchem-fragalysis-2/maxwin/BulkDock/SCRATCH/511013/C20347-P85/C20347-P85.minimised.mol

>  <scratch_subdir>  (1721) 
/opt/xchem-fragalysis-2/maxwin/BulkDock/SCRATCH/511013/C20347-P85

>  <fragmenstein_runtime>  (1721) 
26.03111505508423

>  <fragmenstein_outcome>  (1721) 
too moved

>  <fragmenstein_mode>  (1721) 
expansion

>  <fragmenstein_error>  (1721) 


$$$$
C36126-P85
     RDKit          3D

 42 44  0  0  0  0  0  0  0  0999 V2000
   -6.7314  -25.3991   18.0987 C   0  0  0  0  0  0  0  0  0  0  0  0
   -6.0490  -23.3493   17.7305 C   0  0  0  0  0  0  0  0  0  0  0  0
   -4.4343  -22.7241   19.3501 C   0  0  0  0  0  0  0  0  0  0  0  0
   -4.1680  -22.6457   17.2504 C   0  0  0  0  0  0  0  0  0  0  0  0
   -3.1259  -22.9117   17.7675 O   0  0  0  0  0  0  0  0  0  0  0  0
   -4.4405  -21.9819   16.1267 N   0  0  0  0  0  0  0  0  0  0  0  0
   -4.7325  -19.7475   16.6991 C   0  0  0  0  0  0  0  0  0  0  0  0
   -3.1697  -18.5110   15.7919 C   0  0  0  0  0  0  0  0  0  0  0  0
   -1.6868  -18.7932   14.7359 C   0  0  0  0  0  0  0  0  0  0  0  0
    0.3209  -18.9200   14.2232 C   0  0  0  0  0  0  0  0  0  0  0  0
    0.8109  -19.1641   12.7985 C   0  0  0  0  0  0  0  0  0  0  0  0
    2.1041  -19.5155   12.3292 C   0  0  0  0  0  0  0  0  0  0  0  0
    3.1579  -19.7201   13.1171 N   0  0  0  0  0  0  0  0  0  0  0  0
    2.8740  -19.5895   14.4183 C   0  0  0  0  0  0  0  0  0  0  0  0
    1.5999  -19.2713   14.9632 C   0  0  0  0  0  0  0  0  0  0  0  0
   -1.8150  -20.0905   14.0567 C   0  0  0  0  0  0  0  0  0  0  0  0
   -3.1770  -21.3224   14.6030 C   0  0  0  0  0  0  0  0  0  0  0  0
   -7.4511  -24.4443   18.9998 C   0  0  0  0  0  0  0  0  0  0  0  0
   -7.6578  -24.2063   21.0135 C   0  0  0  0  0  0  0  0  0  0  0  0
   -6.3599  -24.3201   22.3059 C   0  0  0  0  0  0  0  0  0  0  0  0
   -5.5473  -24.5112   21.3044 N   0  0  0  0  0  0  0  0  0  0  0  0
   -6.8182  -24.1089   20.5695 N   0  0  0  0  0  0  0  0  0  0  0  0
   -7.6968  -25.5749   17.4700 H   0  0  0  0  0  0  0  0  0  0  0  0
   -6.2875  -26.2020   17.3715 H   0  0  0  0  0  0  0  0  0  0  0  0
   -6.5674  -26.0277   19.0097 H   0  0  0  0  0  0  0  0  0  0  0  0
   -4.7876  -21.8230   20.1197 H   0  0  0  0  0  0  0  0  0  0  0  0
   -4.3612  -23.5617   20.0894 H   0  0  0  0  0  0  0  0  0  0  0  0
   -3.4311  -22.2702   19.3325 H   0  0  0  0  0  0  0  0  0  0  0  0
   -5.1958  -19.7477   17.7420 H   0  0  0  0  0  0  0  0  0  0  0  0
   -4.0779  -19.4121   17.5743 H   0  0  0  0  0  0  0  0  0  0  0  0
   -1.8159  -18.5381   15.6949 H   0  0  0  0  0  0  0  0  0  0  0  0
    0.2134  -18.9018   11.9487 H   0  0  0  0  0  0  0  0  0  0  0  0
    2.2916  -19.5965   11.2626 H   0  0  0  0  0  0  0  0  0  0  0  0
    3.7001  -19.8086   15.0883 H   0  0  0  0  0  0  0  0  0  0  0  0
    1.5902  -19.4457   16.0413 H   0  0  0  0  0  0  0  0  0  0  0  0
   -1.1769  -19.9095   13.1968 H   0  0  0  0  0  0  0  0  0  0  0  0
   -0.9546  -20.6947   13.8909 H   0  0  0  0  0  0  0  0  0  0  0  0
   -3.0568  -22.3397   14.1109 H   0  0  0  0  0  0  0  0  0  0  0  0
   -3.8424  -21.1624   13.6540 H   0  0  0  0  0  0  0  0  0  0  0  0
   -8.5991  -24.5202   21.3572 H   0  0  0  0  0  0  0  0  0  0  0  0
   -6.2634  -24.0989   23.3535 H   0  0  0  0  0  0  0  0  0  0  0  0
   -4.6400  -24.9105   21.1183 H   0  0  0  0  0  0  0  0  0  0  0  0
  1  2  1  0
  2  3  1  0
  2  4  1  0
  4  5  2  0
  4  6  1  0
  6  7  1  0
  7  8  1  0
  8  9  2  0
  9 10  1  0
 10 11  2  0
 11 12  1  0
 12 13  2  0
 13 14  1  0
 14 15  2  0
  9 16  1  0
 16 17  1  0
  2 18  1  0
 18 19  1  0
 19 20  2  0
 20 21  1  0
 21 22  1  0
 17  6  1  0
 22 18  2  0
 15 10  1  0
  1 23  1  0
  1 24  1  0
  1 25  1  0
  3 26  1  0
  3 27  1  0
  3 28  1  0
  7 29  1  0
  7 30  1  0
  8 31  1  0
 11 32  1  0
 12 33  1  0
 14 34  1  0
 15 35  1  0
 16 36  1  0
 16 37  1  0
 17 38  1  0
 17 39  1  0
 19 40  1  0
 20 41  1  0
 21 42  1  0
M  END
>  <Energy>  (1722) 
2638.5391334439541

>  <compound_id>  (1722) 
36126

>  <target_id>  (1722) 
1

>  <reference_id>  (1722) 
85

>  <inspiration_ids>  (1722) 
[85, 96]

>  <energy_score>  (1722) 
2554.5312509506844

>  <distance_score>  (1722) 
9.024082000448477

>  <path>  (1722) 
/opt/xchem-fragalysis-2/maxwin/BulkDock/SCRATCH/511013/C36126-P85/C36126-P85.minimised.mol

>  <scratch_subdir>  (1722) 
/opt/xchem-fragalysis-2/maxwin/BulkDock/SCRATCH/511013/C36126-P85

>  <fragmenstein_runtime>  (1722) 
19.77423119544983

>  <fragmenstein_outcome>  (1722) 
too moved

>  <fragmenstein_mode>  (1722) 
expansion

>  <fragmenstein_error>  (1722) 


$$$$
C36126-P96
     RDKit          3D

 42 44  0  0  0  0  0  0  0  0999 V2000
   -1.2527  -25.1150   19.0167 C   0  0  0  0  0  0  0  0  0  0  0  0
   -2.5081  -24.2422   19.9600 C   0  0  0  0  0  0  0  0  0  0  0  0
   -1.2199  -25.1662   21.0185 C   0  0  0  0  0  0  0  0  0  0  0  0
   -2.0264  -22.6640   18.6977 C   0  0  0  0  0  0  0  0  0  0  0  0
   -1.8363  -21.6032   19.3781 O   0  0  0  0  0  0  0  0  0  0  0  0
   -1.6832  -22.7597   17.2040 N   0  0  0  0  0  0  0  0  0  0  0  0
   -3.3570  -22.1552   15.9932 C   0  0  0  0  0  0  0  0  0  0  0  0
   -3.0121  -21.1817   14.0261 C   0  0  0  0  0  0  0  0  0  0  0  0
   -1.4080  -20.4748   13.3908 C   0  0  0  0  0  0  0  0  0  0  0  0
   -0.1296  -19.5423   12.3404 C   0  0  0  0  0  0  0  0  0  0  0  0
   -0.1619  -18.7839   11.1387 C   0  0  0  0  0  0  0  0  0  0  0  0
    0.9370  -18.3964   10.3235 C   0  0  0  0  0  0  0  0  0  0  0  0
    2.2149  -18.5965   10.6277 N   0  0  0  0  0  0  0  0  0  0  0  0
    2.3468  -19.1328   11.8425 C   0  0  0  0  0  0  0  0  0  0  0  0
    1.2698  -19.5494   12.6798 C   0  0  0  0  0  0  0  0  0  0  0  0
    0.2022  -21.0209   14.8359 C   0  0  0  0  0  0  0  0  0  0  0  0
   -1.0253  -21.8950   16.3408 C   0  0  0  0  0  0  0  0  0  0  0  0
   -3.4753  -24.3953   21.4482 C   0  0  0  0  0  0  0  0  0  0  0  0
   -4.7229  -23.8938   21.8634 C   0  0  0  0  0  0  0  0  0  0  0  0
   -4.7900  -23.9893   23.2209 C   0  0  0  0  0  0  0  0  0  0  0  0
   -3.6444  -24.6429   23.4887 N   0  0  0  0  0  0  0  0  0  0  0  0
   -3.1994  -25.2953   22.4272 N   0  0  0  0  0  0  0  0  0  0  0  0
   -1.5962  -24.9529   18.0048 H   0  0  0  0  0  0  0  0  0  0  0  0
   -0.2435  -24.6858   19.0050 H   0  0  0  0  0  0  0  0  0  0  0  0
   -1.1561  -26.2172   19.1062 H   0  0  0  0  0  0  0  0  0  0  0  0
   -1.4569  -26.2473   20.9966 H   0  0  0  0  0  0  0  0  0  0  0  0
   -1.2071  -24.9568   22.0853 H   0  0  0  0  0  0  0  0  0  0  0  0
   -0.1478  -25.0083   20.8071 H   0  0  0  0  0  0  0  0  0  0  0  0
   -4.3481  -22.3114   16.4696 H   0  0  0  0  0  0  0  0  0  0  0  0
   -3.7110  -22.9288   15.1284 H   0  0  0  0  0  0  0  0  0  0  0  0
   -3.8698  -21.1328   13.3291 H   0  0  0  0  0  0  0  0  0  0  0  0
   -1.0189  -18.2641   10.7686 H   0  0  0  0  0  0  0  0  0  0  0  0
    0.7535  -17.8497    9.4027 H   0  0  0  0  0  0  0  0  0  0  0  0
    3.3667  -19.2158   12.2063 H   0  0  0  0  0  0  0  0  0  0  0  0
    1.6499  -19.8246   13.6390 H   0  0  0  0  0  0  0  0  0  0  0  0
    0.7544  -20.1470   15.3910 H   0  0  0  0  0  0  0  0  0  0  0  0
    1.2691  -21.3412   14.5429 H   0  0  0  0  0  0  0  0  0  0  0  0
   -0.3278  -22.2362   17.0341 H   0  0  0  0  0  0  0  0  0  0  0  0
   -0.5161  -22.6073   15.7656 H   0  0  0  0  0  0  0  0  0  0  0  0
   -5.4220  -23.3456   21.3215 H   0  0  0  0  0  0  0  0  0  0  0  0
   -5.4364  -23.5242   23.9480 H   0  0  0  0  0  0  0  0  0  0  0  0
   -3.1217  -24.7300   24.3487 H   0  0  0  0  0  0  0  0  0  0  0  0
  1  2  1  0
  2  3  1  0
  2  4  1  0
  4  5  2  0
  4  6  1  0
  6  7  1  0
  7  8  1  0
  8  9  2  0
  9 10  1  0
 10 11  2  0
 11 12  1  0
 12 13  2  0
 13 14  1  0
 14 15  2  0
  9 16  1  0
 16 17  1  0
  2 18  1  0
 18 19  1  0
 19 20  2  0
 20 21  1  0
 21 22  1  0
 17  6  1  0
 22 18  2  0
 15 10  1  0
  1 23  1  0
  1 24  1  0
  1 25  1  0
  3 26  1  0
  3 27  1  0
  3 28  1  0
  7 29  1  0
  7 30  1  0
  8 31  1  0
 11 32  1  0
 12 33  1  0
 14 34  1  0
 15 35  1  0
 16 36  1  0
 16 37  1  0
 17 38  1  0
 17 39  1  0
 19 40  1  0
 20 41  1  0
 21 42  1  0
M  END
>  <Energy>  (1723) 
1312.0047474456107

>  <compound_id>  (1723) 
36126

>  <target_id>  (1723) 
1

>  <reference_id>  (1723) 
96

>  <inspiration_ids>  (1723) 
[85, 96]

>  <energy_score>  (1723) 
1227.9968649523128

>  <distance_score>  (1723) 
8.56281923500227

>  <path>  (1723) 
/opt/xchem-fragalysis-2/maxwin/BulkDock/SCRATCH/511013/C36126-P96/C36126-P96.minimised.mol

>  <scratch_subdir>  (1723) 
/opt/xchem-fragalysis-2/maxwin/BulkDock/SCRATCH/511013/C36126-P96

>  <fragmenstein_runtime>  (1723) 
21.609020233154297

>  <fragmenstein_outcome>  (1723) 
too moved

>  <fragmenstein_mode>  (1723) 
expansion

>  <fragmenstein_error>  (1723) 


$$$$
C36143-P85
     RDKit          3D

 38 40  0  0  0  0  0  0  0  0999 V2000
   -2.5563  -21.9857   19.6252 O   0  0  0  0  0  0  0  0  0  0  0  0
   -3.2311  -22.4231   18.8971 C   0  0  0  0  0  0  0  0  0  0  0  0
   -4.5189  -22.9041   19.7309 O   0  0  0  0  0  0  0  0  0  0  0  0
   -5.5410  -24.0663   21.0378 C   0  0  0  0  0  0  0  0  0  0  0  0
   -7.6124  -24.1998   21.0536 C   0  0  0  0  0  0  0  0  0  0  0  0
   -8.8690  -23.8475   22.0922 C   0  0  0  0  0  0  0  0  0  0  0  0
  -10.2564  -24.1743   21.9026 C   0  0  0  0  0  0  0  0  0  0  0  0
  -10.6901  -24.9653   20.8105 C   0  0  0  0  0  0  0  0  0  0  0  0
   -9.8308  -25.4598   19.7845 C   0  0  0  0  0  0  0  0  0  0  0  0
   -8.4141  -25.1703   19.7827 C   0  0  0  0  0  0  0  0  0  0  0  0
   -2.5274  -22.6072   16.9620 N   0  0  0  0  0  0  0  0  0  0  0  0
   -0.5479  -22.2101   16.5701 C   0  0  0  0  0  0  0  0  0  0  0  0
    0.3828  -20.5074   17.0107 C   0  0  0  0  0  0  0  0  0  0  0  0
   -0.2817  -19.0307   16.5881 C   0  0  0  0  0  0  0  0  0  0  0  0
    0.8675  -18.1298   16.5189 C   0  0  0  0  0  0  0  0  0  0  0  0
    2.0582  -18.4442   15.7828 C   0  0  0  0  0  0  0  0  0  0  0  0
    3.0131  -17.5527   16.2029 C   0  0  0  0  0  0  0  0  0  0  0  0
    2.3862  -16.7540   17.1042 N   0  0  0  0  0  0  0  0  0  0  0  0
    1.1029  -17.0902   17.3375 N   0  0  0  0  0  0  0  0  0  0  0  0
   -1.8010  -19.1942   15.1471 C   0  0  0  0  0  0  0  0  0  0  0  0
   -2.7429  -21.2028   15.1735 C   0  0  0  0  0  0  0  0  0  0  0  0
   -5.3206  -23.8597   22.0837 H   0  0  0  0  0  0  0  0  0  0  0  0
   -5.0427  -25.0171   21.0482 H   0  0  0  0  0  0  0  0  0  0  0  0
   -8.6734  -23.3127   23.0386 H   0  0  0  0  0  0  0  0  0  0  0  0
  -10.9814  -23.8496   22.6479 H   0  0  0  0  0  0  0  0  0  0  0  0
  -11.7533  -25.2014   20.7385 H   0  0  0  0  0  0  0  0  0  0  0  0
  -10.2494  -26.0429   18.9663 H   0  0  0  0  0  0  0  0  0  0  0  0
   -7.8106  -25.5526   18.9515 H   0  0  0  0  0  0  0  0  0  0  0  0
    0.1509  -23.0529   16.4230 H   0  0  0  0  0  0  0  0  0  0  0  0
   -0.3285  -22.5384   17.6288 H   0  0  0  0  0  0  0  0  0  0  0  0
    1.3591  -20.6154   17.4792 H   0  0  0  0  0  0  0  0  0  0  0  0
    2.1970  -19.2507   15.0753 H   0  0  0  0  0  0  0  0  0  0  0  0
    4.0517  -17.4214   15.9362 H   0  0  0  0  0  0  0  0  0  0  0  0
    2.7798  -15.9809   17.6285 H   0  0  0  0  0  0  0  0  0  0  0  0
   -1.3030  -19.0905   14.1888 H   0  0  0  0  0  0  0  0  0  0  0  0
   -2.4802  -18.3122   15.2838 H   0  0  0  0  0  0  0  0  0  0  0  0
   -2.3433  -20.9094   14.2124 H   0  0  0  0  0  0  0  0  0  0  0  0
   -3.3143  -21.9263   14.3833 H   0  0  0  0  0  0  0  0  0  0  0  0
  1  2  2  0
  2  3  1  0
  3  4  1  0
  4  5  1  0
  5  6  2  0
  6  7  1  0
  7  8  2  0
  8  9  1  0
  9 10  2  0
  2 11  1  0
 11 12  1  0
 12 13  1  0
 13 14  2  0
 14 15  1  0
 15 16  1  0
 16 17  2  0
 17 18  1  0
 18 19  1  0
 14 20  1  0
 20 21  1  0
 10  5  1  0
 21 11  1  0
 19 15  2  0
  4 22  1  0
  4 23  1  0
  6 24  1  0
  7 25  1  0
  8 26  1  0
  9 27  1  0
 10 28  1  0
 12 29  1  0
 12 30  1  0
 13 31  1  0
 16 32  1  0
 17 33  1  0
 18 34  1  0
 20 35  1  0
 20 36  1  0
 21 37  1  0
 21 38  1  0
M  END
>  <Energy>  (1724) 
1358.3202123334177

>  <compound_id>  (1724) 
36143

>  <target_id>  (1724) 
1

>  <reference_id>  (1724) 
85

>  <inspiration_ids>  (1724) 
[85, 96]

>  <energy_score>  (1724) 
1361.1935482420702

>  <distance_score>  (1724) 
10.322847791085682

>  <path>  (1724) 
/opt/xchem-fragalysis-2/maxwin/BulkDock/SCRATCH/511013/C36143-P85/C36143-P85.minimised.mol

>  <scratch_subdir>  (1724) 
/opt/xchem-fragalysis-2/maxwin/BulkDock/SCRATCH/511013/C36143-P85

>  <fragmenstein_runtime>  (1724) 
14.127084493637085

>  <fragmenstein_outcome>  (1724) 
too moved

>  <fragmenstein_mode>  (1724) 
expansion

>  <fragmenstein_error>  (1724) 


$$$$
C36143-P96
     RDKit          3D

 38 40  0  0  0  0  0  0  0  0999 V2000
   -4.0577  -19.8688   19.2904 O   0  0  0  0  0  0  0  0  0  0  0  0
   -3.1747  -19.2086   19.7801 C   0  0  0  0  0  0  0  0  0  0  0  0
   -2.6609  -19.7743   21.4496 O   0  0  0  0  0  0  0  0  0  0  0  0
   -2.2714  -18.9582   23.1217 C   0  0  0  0  0  0  0  0  0  0  0  0
   -2.6183  -17.7693   24.7337 C   0  0  0  0  0  0  0  0  0  0  0  0
   -3.9540  -17.9182   25.4510 C   0  0  0  0  0  0  0  0  0  0  0  0
   -4.3262  -17.2214   26.5981 C   0  0  0  0  0  0  0  0  0  0  0  0
   -3.4593  -16.2592   27.0744 C   0  0  0  0  0  0  0  0  0  0  0  0
   -2.2870  -15.9553   26.3621 C   0  0  0  0  0  0  0  0  0  0  0  0
   -1.8935  -16.6396   25.1863 C   0  0  0  0  0  0  0  0  0  0  0  0
   -2.2568  -17.9069   19.0932 N   0  0  0  0  0  0  0  0  0  0  0  0
   -2.2596  -17.3876   17.7557 C   0  0  0  0  0  0  0  0  0  0  0  0
   -1.2451  -16.3769   17.3280 C   0  0  0  0  0  0  0  0  0  0  0  0
   -1.5524  -15.1205   17.5815 C   0  0  0  0  0  0  0  0  0  0  0  0
   -1.0392  -13.9989   16.8561 C   0  0  0  0  0  0  0  0  0  0  0  0
   -1.7921  -13.2518   15.9053 C   0  0  0  0  0  0  0  0  0  0  0  0
   -0.8992  -12.3891   15.3130 C   0  0  0  0  0  0  0  0  0  0  0  0
    0.2916  -12.6240   15.9292 N   0  0  0  0  0  0  0  0  0  0  0  0
    0.2498  -13.6350   16.8121 N   0  0  0  0  0  0  0  0  0  0  0  0
   -2.5634  -15.0351   18.6632 C   0  0  0  0  0  0  0  0  0  0  0  0
   -2.9615  -16.4850   19.3775 C   0  0  0  0  0  0  0  0  0  0  0  0
   -3.0871  -19.5332   23.5018 H   0  0  0  0  0  0  0  0  0  0  0  0
   -1.4400  -19.6478   23.2323 H   0  0  0  0  0  0  0  0  0  0  0  0
   -4.6430  -18.6654   25.0823 H   0  0  0  0  0  0  0  0  0  0  0  0
   -5.2690  -17.4259   27.0945 H   0  0  0  0  0  0  0  0  0  0  0  0
   -3.7078  -15.6902   27.9663 H   0  0  0  0  0  0  0  0  0  0  0  0
   -1.6618  -15.1344   26.7120 H   0  0  0  0  0  0  0  0  0  0  0  0
   -1.0112  -16.2784   24.6617 H   0  0  0  0  0  0  0  0  0  0  0  0
   -3.2171  -17.4128   17.2179 H   0  0  0  0  0  0  0  0  0  0  0  0
   -1.6028  -18.1387   17.3880 H   0  0  0  0  0  0  0  0  0  0  0  0
   -0.4333  -16.6511   16.6615 H   0  0  0  0  0  0  0  0  0  0  0  0
   -2.8413  -13.3577   15.6654 H   0  0  0  0  0  0  0  0  0  0  0  0
   -1.0103  -11.6357   14.5463 H   0  0  0  0  0  0  0  0  0  0  0  0
    1.1779  -12.1503   15.7891 H   0  0  0  0  0  0  0  0  0  0  0  0
   -3.4942  -14.5855   18.2942 H   0  0  0  0  0  0  0  0  0  0  0  0
   -2.1945  -14.3759   19.4604 H   0  0  0  0  0  0  0  0  0  0  0  0
   -4.0355  -16.5868   19.1665 H   0  0  0  0  0  0  0  0  0  0  0  0
   -2.7214  -16.2476   20.4057 H   0  0  0  0  0  0  0  0  0  0  0  0
  1  2  2  0
  2  3  1  0
  3  4  1  0
  4  5  1  0
  5  6  2  0
  6  7  1  0
  7  8  2  0
  8  9  1  0
  9 10  2  0
  2 11  1  0
 11 12  1  0
 12 13  1  0
 13 14  2  0
 14 15  1  0
 15 16  1  0
 16 17  2  0
 17 18  1  0
 18 19  1  0
 14 20  1  0
 20 21  1  0
 10  5  1  0
 21 11  1  0
 19 15  2  0
  4 22  1  0
  4 23  1  0
  6 24  1  0
  7 25  1  0
  8 26  1  0
  9 27  1  0
 10 28  1  0
 12 29  1  0
 12 30  1  0
 13 31  1  0
 16 32  1  0
 17 33  1  0
 18 34  1  0
 20 35  1  0
 20 36  1  0
 21 37  1  0
 21 38  1  0
M  END
>  <Energy>  (1725) 
379.23614513487837

>  <compound_id>  (1725) 
36143

>  <target_id>  (1725) 
1

>  <reference_id>  (1725) 
96

>  <inspiration_ids>  (1725) 
[85, 96]

>  <energy_score>  (1725) 
382.1094810435018

>  <distance_score>  (1725) 
10.608905118196482

>  <path>  (1725) 
/opt/xchem-fragalysis-2/maxwin/BulkDock/SCRATCH/511013/C36143-P96/C36143-P96.minimised.mol

>  <scratch_subdir>  (1725) 
/opt/xchem-fragalysis-2/maxwin/BulkDock/SCRATCH/511013/C36143-P96

>  <fragmenstein_runtime>  (1725) 
21.7321195602417

>  <fragmenstein_outcome>  (1725) 
too moved

>  <fragmenstein_mode>  (1725) 
expansion

>  <fragmenstein_error>  (1725) 


$$$$
C36145-P85
     RDKit          3D

 38 39  0  0  0  0  0  0  0  0999 V2000
    3.3883  -18.1266   10.5348 C   0  0  0  0  0  0  0  0  0  0  0  0
    3.8026  -18.2426   11.8885 O   0  0  0  0  0  0  0  0  0  0  0  0
    3.1320  -19.2537   12.6819 C   0  0  0  0  0  0  0  0  0  0  0  0
    1.6705  -19.0351   13.0129 C   0  0  0  0  0  0  0  0  0  0  0  0
    0.9237  -18.9246   14.1591 C   0  0  0  0  0  0  0  0  0  0  0  0
   -1.0383  -19.0178   14.2182 C   0  0  0  0  0  0  0  0  0  0  0  0
   -1.0810  -20.4549   13.9530 N   0  0  0  0  0  0  0  0  0  0  0  0
   -2.7904  -21.3014   14.4749 C   0  0  0  0  0  0  0  0  0  0  0  0
   -3.6116  -21.3208   13.5781 O   0  0  0  0  0  0  0  0  0  0  0  0
   -2.8350  -22.2180   16.5852 C   0  0  0  0  0  0  0  0  0  0  0  0
   -1.9588  -23.0551   16.6913 O   0  0  0  0  0  0  0  0  0  0  0  0
   -3.7909  -21.8252   18.1102 N   0  0  0  0  0  0  0  0  0  0  0  0
   -3.6551  -22.2676   19.5604 C   0  0  0  0  0  0  0  0  0  0  0  0
   -5.1833  -22.3000   20.7700 C   0  0  0  0  0  0  0  0  0  0  0  0
   -5.2254  -24.1222   21.3706 C   0  0  0  0  0  0  0  0  0  0  0  0
   -5.6704  -24.3701   22.6536 C   0  0  0  0  0  0  0  0  0  0  0  0
   -6.2003  -23.1458   23.0668 N   0  0  0  0  0  0  0  0  0  0  0  0
   -5.3607  -21.8262   22.1038 N   0  0  0  0  0  0  0  0  0  0  0  0
   -0.4710  -19.8740   12.5413 C   0  0  0  0  0  0  0  0  0  0  0  0
    0.7120  -18.8852   11.9514 C   0  0  0  0  0  0  0  0  0  0  0  0
    4.1680  -17.5843    9.9920 H   0  0  0  0  0  0  0  0  0  0  0  0
    3.2683  -19.1093   10.0702 H   0  0  0  0  0  0  0  0  0  0  0  0
    2.4719  -17.5379   10.4601 H   0  0  0  0  0  0  0  0  0  0  0  0
    3.6932  -19.3183   13.6209 H   0  0  0  0  0  0  0  0  0  0  0  0
    3.2531  -20.2211   12.1800 H   0  0  0  0  0  0  0  0  0  0  0  0
    1.4811  -19.1286   15.0734 H   0  0  0  0  0  0  0  0  0  0  0  0
   -1.9253  -18.3980   14.1388 H   0  0  0  0  0  0  0  0  0  0  0  0
   -1.1443  -18.6833   15.2555 H   0  0  0  0  0  0  0  0  0  0  0  0
   -4.5922  -20.8490   17.8665 H   0  0  0  0  0  0  0  0  0  0  0  0
   -3.5693  -21.4267   20.3013 H   0  0  0  0  0  0  0  0  0  0  0  0
   -2.6645  -22.5505   19.6944 H   0  0  0  0  0  0  0  0  0  0  0  0
   -4.4712  -24.7476   20.9808 H   0  0  0  0  0  0  0  0  0  0  0  0
   -5.4619  -25.1941   23.3050 H   0  0  0  0  0  0  0  0  0  0  0  0
   -7.1871  -23.0156   23.2245 H   0  0  0  0  0  0  0  0  0  0  0  0
    0.1087  -20.5316   11.8716 H   0  0  0  0  0  0  0  0  0  0  0  0
    0.3318  -20.4477   13.0676 H   0  0  0  0  0  0  0  0  0  0  0  0
    0.4252  -17.8638   11.6883 H   0  0  0  0  0  0  0  0  0  0  0  0
    1.1042  -19.2937   11.0054 H   0  0  0  0  0  0  0  0  0  0  0  0
  1  2  1  0
  2  3  1  0
  3  4  1  0
  4  5  2  0
  5  6  1  0
  6  7  1  0
  7  8  1  0
  8  9  2  0
  8 10  1  0
 10 11  2  0
 10 12  1  0
 12 13  1  0
 13 14  1  0
 14 15  1  0
 15 16  2  0
 16 17  1  0
 17 18  1  0
  7 19  1  0
 19 20  1  0
 20  4  1  0
 18 14  2  0
  1 21  1  0
  1 22  1  0
  1 23  1  0
  3 24  1  0
  3 25  1  0
  5 26  1  0
  6 27  1  0
  6 28  1  0
 12 29  1  0
 13 30  1  0
 13 31  1  0
 15 32  1  0
 16 33  1  0
 17 34  1  0
 19 35  1  0
 19 36  1  0
 20 37  1  0
 20 38  1  0
M  END
>  <Energy>  (1726) 
1002.9171381717892

>  <compound_id>  (1726) 
36145

>  <target_id>  (1726) 
1

>  <reference_id>  (1726) 
85

>  <inspiration_ids>  (1726) 
[85, 96]

>  <energy_score>  (1726) 
929.2882880296161

>  <distance_score>  (1726) 
7.297525855911118

>  <path>  (1726) 
/opt/xchem-fragalysis-2/maxwin/BulkDock/SCRATCH/511013/C36145-P85/C36145-P85.minimised.mol

>  <scratch_subdir>  (1726) 
/opt/xchem-fragalysis-2/maxwin/BulkDock/SCRATCH/511013/C36145-P85

>  <fragmenstein_runtime>  (1726) 
10.494994878768921

>  <fragmenstein_outcome>  (1726) 
too moved

>  <fragmenstein_mode>  (1726) 
expansion

>  <fragmenstein_error>  (1726) 


$$$$
C36145-P96
     RDKit          3D

 38 39  0  0  0  0  0  0  0  0999 V2000
    1.2329  -24.1384    8.7948 C   0  0  0  0  0  0  0  0  0  0  0  0
    0.2403  -25.1127    9.1800 O   0  0  0  0  0  0  0  0  0  0  0  0
   -0.0296  -25.0193   10.5749 C   0  0  0  0  0  0  0  0  0  0  0  0
   -1.1874  -25.8555   11.1242 C   0  0  0  0  0  0  0  0  0  0  0  0
   -1.2360  -26.2995   12.3832 C   0  0  0  0  0  0  0  0  0  0  0  0
   -2.5597  -26.2171   13.1684 C   0  0  0  0  0  0  0  0  0  0  0  0
   -3.7832  -25.1252   13.0230 N   0  0  0  0  0  0  0  0  0  0  0  0
   -3.3803  -23.6199   13.8568 C   0  0  0  0  0  0  0  0  0  0  0  0
   -2.8603  -22.6738   13.4700 O   0  0  0  0  0  0  0  0  0  0  0  0
   -3.9984  -23.8967   15.1639 C   0  0  0  0  0  0  0  0  0  0  0  0
   -3.7626  -25.2140   15.4468 O   0  0  0  0  0  0  0  0  0  0  0  0
   -5.3189  -22.8513   16.5077 N   0  0  0  0  0  0  0  0  0  0  0  0
   -6.5602  -23.5844   18.1452 C   0  0  0  0  0  0  0  0  0  0  0  0
   -6.7926  -23.6986   20.4253 C   0  0  0  0  0  0  0  0  0  0  0  0
   -5.2467  -23.6339   21.4031 C   0  0  0  0  0  0  0  0  0  0  0  0
   -5.3278  -23.8112   22.7348 C   0  0  0  0  0  0  0  0  0  0  0  0
   -6.5872  -23.4369   22.8023 N   0  0  0  0  0  0  0  0  0  0  0  0
   -7.6218  -24.0131   21.4937 N   0  0  0  0  0  0  0  0  0  0  0  0
   -3.6414  -25.4671   11.5884 C   0  0  0  0  0  0  0  0  0  0  0  0
   -2.5486  -26.0775   10.6262 C   0  0  0  0  0  0  0  0  0  0  0  0
    2.1899  -24.3856    9.2642 H   0  0  0  0  0  0  0  0  0  0  0  0
    0.9305  -23.1249    9.0741 H   0  0  0  0  0  0  0  0  0  0  0  0
    1.3502  -24.1894    7.7093 H   0  0  0  0  0  0  0  0  0  0  0  0
    0.8883  -25.2728   11.1199 H   0  0  0  0  0  0  0  0  0  0  0  0
   -0.2713  -23.9777   10.7933 H   0  0  0  0  0  0  0  0  0  0  0  0
   -0.3211  -26.4321   12.9525 H   0  0  0  0  0  0  0  0  0  0  0  0
   -3.0571  -27.1994   13.0616 H   0  0  0  0  0  0  0  0  0  0  0  0
   -2.3111  -26.2503   14.2272 H   0  0  0  0  0  0  0  0  0  0  0  0
   -5.3338  -21.8941   16.2446 H   0  0  0  0  0  0  0  0  0  0  0  0
   -7.1334  -23.9852   17.4361 H   0  0  0  0  0  0  0  0  0  0  0  0
   -6.2077  -24.7592   18.3883 H   0  0  0  0  0  0  0  0  0  0  0  0
   -4.3013  -23.5244   20.9220 H   0  0  0  0  0  0  0  0  0  0  0  0
   -4.6130  -23.8385   23.5396 H   0  0  0  0  0  0  0  0  0  0  0  0
   -7.1031  -23.0230   23.5808 H   0  0  0  0  0  0  0  0  0  0  0  0
   -4.3855  -26.2907   11.5427 H   0  0  0  0  0  0  0  0  0  0  0  0
   -4.3000  -24.7305   11.1196 H   0  0  0  0  0  0  0  0  0  0  0  0
   -2.7099  -25.8786    9.5737 H   0  0  0  0  0  0  0  0  0  0  0  0
   -2.7098  -27.1725   10.6154 H   0  0  0  0  0  0  0  0  0  0  0  0
  1  2  1  0
  2  3  1  0
  3  4  1  0
  4  5  2  0
  5  6  1  0
  6  7  1  0
  7  8  1  0
  8  9  2  0
  8 10  1  0
 10 11  2  0
 10 12  1  0
 12 13  1  0
 13 14  1  0
 14 15  1  0
 15 16  2  0
 16 17  1  0
 17 18  1  0
  7 19  1  0
 19 20  1  0
 20  4  1  0
 18 14  2  0
  1 21  1  0
  1 22  1  0
  1 23  1  0
  3 24  1  0
  3 25  1  0
  5 26  1  0
  6 27  1  0
  6 28  1  0
 12 29  1  0
 13 30  1  0
 13 31  1  0
 15 32  1  0
 16 33  1  0
 17 34  1  0
 19 35  1  0
 19 36  1  0
 20 37  1  0
 20 38  1  0
M  END
>  <Energy>  (1727) 
1066.3774122537122

>  <compound_id>  (1727) 
36145

>  <target_id>  (1727) 
1

>  <reference_id>  (1727) 
96

>  <inspiration_ids>  (1727) 
[85, 96]

>  <energy_score>  (1727) 
992.7485621115286

>  <distance_score>  (1727) 
9.834298598847134

>  <path>  (1727) 
/opt/xchem-fragalysis-2/maxwin/BulkDock/SCRATCH/511013/C36145-P96/C36145-P96.minimised.mol

>  <scratch_subdir>  (1727) 
/opt/xchem-fragalysis-2/maxwin/BulkDock/SCRATCH/511013/C36145-P96

>  <fragmenstein_runtime>  (1727) 
13.24396538734436

>  <fragmenstein_outcome>  (1727) 
too moved

>  <fragmenstein_mode>  (1727) 
expansion

>  <fragmenstein_error>  (1727) 


$$$$
C36147-P85
     RDKit          3D

 46 48  0  0  0  0  0  0  0  0999 V2000
   -1.6216  -19.0973   14.5438 O   0  0  0  0  0  0  0  0  0  0  0  0
   -1.5471  -20.1214   13.8295 C   0  0  0  0  0  0  0  0  0  0  0  0
   -2.7712  -21.6763   14.1305 N   0  0  0  0  0  0  0  0  0  0  0  0
   -4.0975  -22.0735   15.5754 C   0  0  0  0  0  0  0  0  0  0  0  0
   -5.4689  -21.0412   16.9627 C   0  0  0  0  0  0  0  0  0  0  0  0
   -5.9307  -19.9114   18.5671 C   0  0  0  0  0  0  0  0  0  0  0  0
   -7.3337  -19.5201   18.8668 C   0  0  0  0  0  0  0  0  0  0  0  0
   -7.3226  -18.8073   20.0407 C   0  0  0  0  0  0  0  0  0  0  0  0
   -6.0352  -18.8586   20.4578 N   0  0  0  0  0  0  0  0  0  0  0  0
   -5.2495  -19.6171   19.6877 N   0  0  0  0  0  0  0  0  0  0  0  0
    0.1400  -19.9559   12.5520 C   0  0  0  0  0  0  0  0  0  0  0  0
    1.5933  -20.3211   13.5461 C   0  0  0  0  0  0  0  0  0  0  0  0
    2.0726  -19.4331   14.4283 C   0  0  0  0  0  0  0  0  0  0  0  0
    3.3331  -19.4412   15.2206 C   0  0  0  0  0  0  0  0  0  0  0  0
    3.9992  -20.7444   15.2483 N   0  0  0  0  0  0  0  0  0  0  0  0
    4.0095  -21.2718   13.8866 C   0  0  0  0  0  0  0  0  0  0  0  0
    2.5722  -21.5192   13.3807 C   0  0  0  0  0  0  0  0  0  0  0  0
    1.1580  -20.4600   11.0666 C   0  0  0  0  0  0  0  0  0  0  0  0
    2.5943  -19.8587   10.8379 C   0  0  0  0  0  0  0  0  0  0  0  0
    2.5580  -18.6398   10.1313 O   0  0  0  0  0  0  0  0  0  0  0  0
    1.3498  -17.9751   10.4248 C   0  0  0  0  0  0  0  0  0  0  0  0
    0.6277  -18.4124   11.7694 C   0  0  0  0  0  0  0  0  0  0  0  0
   -2.4894  -22.4854   13.4854 H   0  0  0  0  0  0  0  0  0  0  0  0
   -3.4149  -22.3730   16.4431 H   0  0  0  0  0  0  0  0  0  0  0  0
   -3.9866  -23.0776   15.2234 H   0  0  0  0  0  0  0  0  0  0  0  0
   -4.9674  -19.9348   17.1393 H   0  0  0  0  0  0  0  0  0  0  0  0
   -6.5271  -21.4206   17.2267 H   0  0  0  0  0  0  0  0  0  0  0  0
   -8.2113  -19.7157   18.2726 H   0  0  0  0  0  0  0  0  0  0  0  0
   -8.0926  -18.2974   20.5998 H   0  0  0  0  0  0  0  0  0  0  0  0
   -5.6193  -18.4369   21.2812 H   0  0  0  0  0  0  0  0  0  0  0  0
    1.4624  -18.5765   14.5800 H   0  0  0  0  0  0  0  0  0  0  0  0
    4.0172  -18.6828   14.8219 H   0  0  0  0  0  0  0  0  0  0  0  0
    3.1115  -19.1500   16.2534 H   0  0  0  0  0  0  0  0  0  0  0  0
    3.4078  -21.3507   15.8149 H   0  0  0  0  0  0  0  0  0  0  0  0
    4.5645  -20.6009   13.2202 H   0  0  0  0  0  0  0  0  0  0  0  0
    4.5543  -22.2231   13.8844 H   0  0  0  0  0  0  0  0  0  0  0  0
    2.7135  -21.8624   12.3579 H   0  0  0  0  0  0  0  0  0  0  0  0
    2.2038  -22.3728   13.9526 H   0  0  0  0  0  0  0  0  0  0  0  0
    1.3384  -21.5119   10.8683 H   0  0  0  0  0  0  0  0  0  0  0  0
    0.6612  -20.1571   10.1350 H   0  0  0  0  0  0  0  0  0  0  0  0
    3.1769  -20.5552   10.2232 H   0  0  0  0  0  0  0  0  0  0  0  0
    3.1807  -19.6844   11.7361 H   0  0  0  0  0  0  0  0  0  0  0  0
    1.6018  -16.9110   10.5130 H   0  0  0  0  0  0  0  0  0  0  0  0
    0.7255  -18.0315    9.5323 H   0  0  0  0  0  0  0  0  0  0  0  0
    1.4780  -18.3023   12.3648 H   0  0  0  0  0  0  0  0  0  0  0  0
   -0.1060  -17.6405   11.7387 H   0  0  0  0  0  0  0  0  0  0  0  0
  1  2  2  0
  2  3  1  0
  3  4  1  0
  4  5  1  0
  5  6  1  0
  6  7  1  0
  7  8  2  0
  8  9  1  0
  9 10  1  0
  2 11  1  0
 11 12  1  0
 12 13  2  0
 13 14  1  0
 14 15  1  0
 15 16  1  0
 16 17  1  0
 11 18  1  0
 18 19  1  0
 19 20  1  0
 20 21  1  0
 21 22  1  0
 10  6  2  0
 22 11  1  0
 17 12  1  0
  3 23  1  0
  4 24  1  0
  4 25  1  0
  5 26  1  0
  5 27  1  0
  7 28  1  0
  8 29  1  0
  9 30  1  0
 13 31  1  0
 14 32  1  0
 14 33  1  0
 15 34  1  0
 16 35  1  0
 16 36  1  0
 17 37  1  0
 17 38  1  0
 18 39  1  0
 18 40  1  0
 19 41  1  0
 19 42  1  0
 21 43  1  0
 21 44  1  0
 22 45  1  0
 22 46  1  0
M  END
>  <Energy>  (1728) 
881.06650900360773

>  <compound_id>  (1728) 
36147

>  <target_id>  (1728) 
1

>  <reference_id>  (1728) 
85

>  <inspiration_ids>  (1728) 
[85, 96]

>  <energy_score>  (1728) 
791.3648354941778

>  <distance_score>  (1728) 
8.635041191835285

>  <path>  (1728) 
/opt/xchem-fragalysis-2/maxwin/BulkDock/SCRATCH/511013/C36147-P85/C36147-P85.minimised.mol

>  <scratch_subdir>  (1728) 
/opt/xchem-fragalysis-2/maxwin/BulkDock/SCRATCH/511013/C36147-P85

>  <fragmenstein_runtime>  (1728) 
16.809370040893555

>  <fragmenstein_outcome>  (1728) 
too moved

>  <fragmenstein_mode>  (1728) 
expansion

>  <fragmenstein_error>  (1728) 


$$$$
C36147-P96
     RDKit          3D

 46 48  0  0  0  0  0  0  0  0999 V2000
    0.9796  -20.5962   13.9994 O   0  0  0  0  0  0  0  0  0  0  0  0
    0.1849  -20.1098   13.1487 C   0  0  0  0  0  0  0  0  0  0  0  0
   -1.6631  -20.2055   13.0509 N   0  0  0  0  0  0  0  0  0  0  0  0
   -3.0747  -21.2700   14.2003 C   0  0  0  0  0  0  0  0  0  0  0  0
   -3.0597  -22.0526   16.3167 C   0  0  0  0  0  0  0  0  0  0  0  0
   -2.1578  -23.2365   17.8058 C   0  0  0  0  0  0  0  0  0  0  0  0
   -1.0623  -24.1696   17.8293 C   0  0  0  0  0  0  0  0  0  0  0  0
   -0.9748  -24.6050   19.1361 C   0  0  0  0  0  0  0  0  0  0  0  0
   -1.9127  -23.9285   19.8471 N   0  0  0  0  0  0  0  0  0  0  0  0
   -2.6405  -23.0873   19.1038 N   0  0  0  0  0  0  0  0  0  0  0  0
    1.1013  -19.3095   11.7264 C   0  0  0  0  0  0  0  0  0  0  0  0
    2.6282  -19.2535   12.2738 C   0  0  0  0  0  0  0  0  0  0  0  0
    3.3091  -20.4110   12.5101 C   0  0  0  0  0  0  0  0  0  0  0  0
    4.7429  -20.5506   12.8971 C   0  0  0  0  0  0  0  0  0  0  0  0
    5.2929  -19.2956   13.4041 N   0  0  0  0  0  0  0  0  0  0  0  0
    4.9433  -18.2296   12.4572 C   0  0  0  0  0  0  0  0  0  0  0  0
    3.4234  -17.9874   12.4167 C   0  0  0  0  0  0  0  0  0  0  0  0
    1.5752  -20.2443   10.3871 C   0  0  0  0  0  0  0  0  0  0  0  0
    0.8986  -20.0540    9.0391 C   0  0  0  0  0  0  0  0  0  0  0  0
    1.0388  -18.7396    8.5409 O   0  0  0  0  0  0  0  0  0  0  0  0
    1.1059  -17.7766    9.5703 C   0  0  0  0  0  0  0  0  0  0  0  0
    0.4514  -18.1684   10.9063 C   0  0  0  0  0  0  0  0  0  0  0  0
   -1.9489  -19.8028   12.2478 H   0  0  0  0  0  0  0  0  0  0  0  0
   -3.1160  -22.3677   13.8540 H   0  0  0  0  0  0  0  0  0  0  0  0
   -3.9338  -21.1629   13.5056 H   0  0  0  0  0  0  0  0  0  0  0  0
   -4.1173  -22.3688   16.2867 H   0  0  0  0  0  0  0  0  0  0  0  0
   -1.8600  -22.5110   16.3977 H   0  0  0  0  0  0  0  0  0  0  0  0
   -0.4324  -24.4773   17.0107 H   0  0  0  0  0  0  0  0  0  0  0  0
   -0.3055  -25.3078   19.6104 H   0  0  0  0  0  0  0  0  0  0  0  0
   -2.1027  -23.9816   20.8421 H   0  0  0  0  0  0  0  0  0  0  0  0
    2.7950  -21.3659   12.4223 H   0  0  0  0  0  0  0  0  0  0  0  0
    4.8333  -21.3089   13.6829 H   0  0  0  0  0  0  0  0  0  0  0  0
    5.3261  -20.9087   12.0411 H   0  0  0  0  0  0  0  0  0  0  0  0
    4.7584  -19.1431   14.2597 H   0  0  0  0  0  0  0  0  0  0  0  0
    5.4403  -17.3162   12.7928 H   0  0  0  0  0  0  0  0  0  0  0  0
    5.3331  -18.4645   11.4592 H   0  0  0  0  0  0  0  0  0  0  0  0
    3.1948  -17.2904   11.6125 H   0  0  0  0  0  0  0  0  0  0  0  0
    3.1867  -17.5212   13.3755 H   0  0  0  0  0  0  0  0  0  0  0  0
    1.6683  -21.3154   10.5670 H   0  0  0  0  0  0  0  0  0  0  0  0
    2.6097  -19.9521   10.1306 H   0  0  0  0  0  0  0  0  0  0  0  0
    1.3688  -20.7187    8.3048 H   0  0  0  0  0  0  0  0  0  0  0  0
   -0.1445  -20.3278    9.0431 H   0  0  0  0  0  0  0  0  0  0  0  0
    2.1603  -17.5224    9.7024 H   0  0  0  0  0  0  0  0  0  0  0  0
    0.5965  -16.8953    9.1684 H   0  0  0  0  0  0  0  0  0  0  0  0
    0.3093  -17.2464   11.4223 H   0  0  0  0  0  0  0  0  0  0  0  0
   -0.5545  -18.4768   10.6828 H   0  0  0  0  0  0  0  0  0  0  0  0
  1  2  2  0
  2  3  1  0
  3  4  1  0
  4  5  1  0
  5  6  1  0
  6  7  1  0
  7  8  2  0
  8  9  1  0
  9 10  1  0
  2 11  1  0
 11 12  1  0
 12 13  2  0
 13 14  1  0
 14 15  1  0
 15 16  1  0
 16 17  1  0
 11 18  1  0
 18 19  1  0
 19 20  1  0
 20 21  1  0
 21 22  1  0
 10  6  2  0
 22 11  1  0
 17 12  1  0
  3 23  1  0
  4 24  1  0
  4 25  1  0
  5 26  1  0
  5 27  1  0
  7 28  1  0
  8 29  1  0
  9 30  1  0
 13 31  1  0
 14 32  1  0
 14 33  1  0
 15 34  1  0
 16 35  1  0
 16 36  1  0
 17 37  1  0
 17 38  1  0
 18 39  1  0
 18 40  1  0
 19 41  1  0
 19 42  1  0
 21 43  1  0
 21 44  1  0
 22 45  1  0
 22 46  1  0
M  END
>  <Energy>  (1729) 
688.87025608225758

>  <compound_id>  (1729) 
36147

>  <target_id>  (1729) 
1

>  <reference_id>  (1729) 
96

>  <inspiration_ids>  (1729) 
[85, 96]

>  <energy_score>  (1729) 
599.1685825728168

>  <distance_score>  (1729) 
9.321405113120916

>  <path>  (1729) 
/opt/xchem-fragalysis-2/maxwin/BulkDock/SCRATCH/511013/C36147-P96/C36147-P96.minimised.mol

>  <scratch_subdir>  (1729) 
/opt/xchem-fragalysis-2/maxwin/BulkDock/SCRATCH/511013/C36147-P96

>  <fragmenstein_runtime>  (1729) 
18.168705463409424

>  <fragmenstein_outcome>  (1729) 
too moved

>  <fragmenstein_mode>  (1729) 
expansion

>  <fragmenstein_error>  (1729) 


$$$$
C36147-P85
     RDKit          3D

 46 48  0  0  0  0  0  0  0  0999 V2000
   -1.6216  -19.0973   14.5438 O   0  0  0  0  0  0  0  0  0  0  0  0
   -1.5471  -20.1214   13.8295 C   0  0  0  0  0  0  0  0  0  0  0  0
   -2.7712  -21.6763   14.1305 N   0  0  0  0  0  0  0  0  0  0  0  0
   -4.0975  -22.0735   15.5754 C   0  0  0  0  0  0  0  0  0  0  0  0
   -5.4689  -21.0412   16.9627 C   0  0  0  0  0  0  0  0  0  0  0  0
   -5.9307  -19.9114   18.5671 C   0  0  0  0  0  0  0  0  0  0  0  0
   -7.3337  -19.5201   18.8668 C   0  0  0  0  0  0  0  0  0  0  0  0
   -7.3226  -18.8073   20.0407 C   0  0  0  0  0  0  0  0  0  0  0  0
   -6.0352  -18.8586   20.4578 N   0  0  0  0  0  0  0  0  0  0  0  0
   -5.2495  -19.6171   19.6877 N   0  0  0  0  0  0  0  0  0  0  0  0
    0.1400  -19.9559   12.5520 C   0  0  0  0  0  0  0  0  0  0  0  0
    1.5933  -20.3211   13.5461 C   0  0  0  0  0  0  0  0  0  0  0  0
    2.0726  -19.4331   14.4283 C   0  0  0  0  0  0  0  0  0  0  0  0
    3.3331  -19.4412   15.2206 C   0  0  0  0  0  0  0  0  0  0  0  0
    3.9992  -20.7444   15.2483 N   0  0  0  0  0  0  0  0  0  0  0  0
    4.0095  -21.2718   13.8866 C   0  0  0  0  0  0  0  0  0  0  0  0
    2.5722  -21.5192   13.3807 C   0  0  0  0  0  0  0  0  0  0  0  0
    1.1580  -20.4600   11.0666 C   0  0  0  0  0  0  0  0  0  0  0  0
    2.5943  -19.8587   10.8379 C   0  0  0  0  0  0  0  0  0  0  0  0
    2.5580  -18.6398   10.1313 O   0  0  0  0  0  0  0  0  0  0  0  0
    1.3498  -17.9751   10.4248 C   0  0  0  0  0  0  0  0  0  0  0  0
    0.6277  -18.4124   11.7694 C   0  0  0  0  0  0  0  0  0  0  0  0
   -2.4894  -22.4854   13.4854 H   0  0  0  0  0  0  0  0  0  0  0  0
   -3.4149  -22.3730   16.4431 H   0  0  0  0  0  0  0  0  0  0  0  0
   -3.9866  -23.0776   15.2234 H   0  0  0  0  0  0  0  0  0  0  0  0
   -4.9674  -19.9348   17.1393 H   0  0  0  0  0  0  0  0  0  0  0  0
   -6.5271  -21.4206   17.2267 H   0  0  0  0  0  0  0  0  0  0  0  0
   -8.2113  -19.7157   18.2726 H   0  0  0  0  0  0  0  0  0  0  0  0
   -8.0926  -18.2974   20.5998 H   0  0  0  0  0  0  0  0  0  0  0  0
   -5.6193  -18.4369   21.2812 H   0  0  0  0  0  0  0  0  0  0  0  0
    1.4624  -18.5765   14.5800 H   0  0  0  0  0  0  0  0  0  0  0  0
    4.0172  -18.6828   14.8219 H   0  0  0  0  0  0  0  0  0  0  0  0
    3.1115  -19.1500   16.2534 H   0  0  0  0  0  0  0  0  0  0  0  0
    3.4078  -21.3507   15.8149 H   0  0  0  0  0  0  0  0  0  0  0  0
    4.5645  -20.6009   13.2202 H   0  0  0  0  0  0  0  0  0  0  0  0
    4.5543  -22.2231   13.8844 H   0  0  0  0  0  0  0  0  0  0  0  0
    2.7135  -21.8624   12.3579 H   0  0  0  0  0  0  0  0  0  0  0  0
    2.2038  -22.3728   13.9526 H   0  0  0  0  0  0  0  0  0  0  0  0
    1.3384  -21.5119   10.8683 H   0  0  0  0  0  0  0  0  0  0  0  0
    0.6612  -20.1571   10.1350 H   0  0  0  0  0  0  0  0  0  0  0  0
    3.1769  -20.5552   10.2232 H   0  0  0  0  0  0  0  0  0  0  0  0
    3.1807  -19.6844   11.7361 H   0  0  0  0  0  0  0  0  0  0  0  0
    1.6018  -16.9110   10.5130 H   0  0  0  0  0  0  0  0  0  0  0  0
    0.7255  -18.0315    9.5323 H   0  0  0  0  0  0  0  0  0  0  0  0
    1.4780  -18.3023   12.3648 H   0  0  0  0  0  0  0  0  0  0  0  0
   -0.1060  -17.6405   11.7387 H   0  0  0  0  0  0  0  0  0  0  0  0
  1  2  2  0
  2  3  1  0
  3  4  1  0
  4  5  1  0
  5  6  1  0
  6  7  1  0
  7  8  2  0
  8  9  1  0
  9 10  1  0
  2 11  1  0
 11 12  1  0
 12 13  2  0
 13 14  1  0
 14 15  1  0
 15 16  1  0
 16 17  1  0
 11 18  1  0
 18 19  1  0
 19 20  1  0
 20 21  1  0
 21 22  1  0
 10  6  2  0
 22 11  1  0
 17 12  1  0
  3 23  1  0
  4 24  1  0
  4 25  1  0
  5 26  1  0
  5 27  1  0
  7 28  1  0
  8 29  1  0
  9 30  1  0
 13 31  1  0
 14 32  1  0
 14 33  1  0
 15 34  1  0
 16 35  1  0
 16 36  1  0
 17 37  1  0
 17 38  1  0
 18 39  1  0
 18 40  1  0
 19 41  1  0
 19 42  1  0
 21 43  1  0
 21 44  1  0
 22 45  1  0
 22 46  1  0
M  END
>  <Energy>  (1730) 
881.06650900360773

>  <compound_id>  (1730) 
36147

>  <target_id>  (1730) 
1

>  <reference_id>  (1730) 
85

>  <inspiration_ids>  (1730) 
[85, 96]

>  <energy_score>  (1730) 
791.3648354941778

>  <distance_score>  (1730) 
8.635041191835285

>  <path>  (1730) 
/opt/xchem-fragalysis-2/maxwin/BulkDock/SCRATCH/511013/C36147-P85/C36147-P85.minimised.mol

>  <scratch_subdir>  (1730) 
/opt/xchem-fragalysis-2/maxwin/BulkDock/SCRATCH/511013/C36147-P85

>  <fragmenstein_runtime>  (1730) 
16.329989194869995

>  <fragmenstein_outcome>  (1730) 
too moved

>  <fragmenstein_mode>  (1730) 
expansion

>  <fragmenstein_error>  (1730) 


$$$$
C36147-P96
     RDKit          3D

 46 48  0  0  0  0  0  0  0  0999 V2000
    0.9796  -20.5962   13.9994 O   0  0  0  0  0  0  0  0  0  0  0  0
    0.1849  -20.1098   13.1487 C   0  0  0  0  0  0  0  0  0  0  0  0
   -1.6631  -20.2055   13.0509 N   0  0  0  0  0  0  0  0  0  0  0  0
   -3.0747  -21.2700   14.2003 C   0  0  0  0  0  0  0  0  0  0  0  0
   -3.0597  -22.0526   16.3167 C   0  0  0  0  0  0  0  0  0  0  0  0
   -2.1578  -23.2365   17.8058 C   0  0  0  0  0  0  0  0  0  0  0  0
   -1.0623  -24.1696   17.8293 C   0  0  0  0  0  0  0  0  0  0  0  0
   -0.9748  -24.6050   19.1361 C   0  0  0  0  0  0  0  0  0  0  0  0
   -1.9127  -23.9285   19.8471 N   0  0  0  0  0  0  0  0  0  0  0  0
   -2.6405  -23.0873   19.1038 N   0  0  0  0  0  0  0  0  0  0  0  0
    1.1013  -19.3095   11.7264 C   0  0  0  0  0  0  0  0  0  0  0  0
    2.6282  -19.2535   12.2738 C   0  0  0  0  0  0  0  0  0  0  0  0
    3.3091  -20.4110   12.5101 C   0  0  0  0  0  0  0  0  0  0  0  0
    4.7429  -20.5506   12.8971 C   0  0  0  0  0  0  0  0  0  0  0  0
    5.2929  -19.2956   13.4041 N   0  0  0  0  0  0  0  0  0  0  0  0
    4.9433  -18.2296   12.4572 C   0  0  0  0  0  0  0  0  0  0  0  0
    3.4234  -17.9874   12.4167 C   0  0  0  0  0  0  0  0  0  0  0  0
    1.5752  -20.2443   10.3871 C   0  0  0  0  0  0  0  0  0  0  0  0
    0.8986  -20.0540    9.0391 C   0  0  0  0  0  0  0  0  0  0  0  0
    1.0388  -18.7396    8.5409 O   0  0  0  0  0  0  0  0  0  0  0  0
    1.1059  -17.7766    9.5703 C   0  0  0  0  0  0  0  0  0  0  0  0
    0.4514  -18.1684   10.9063 C   0  0  0  0  0  0  0  0  0  0  0  0
   -1.9489  -19.8028   12.2478 H   0  0  0  0  0  0  0  0  0  0  0  0
   -3.1160  -22.3677   13.8540 H   0  0  0  0  0  0  0  0  0  0  0  0
   -3.9338  -21.1629   13.5056 H   0  0  0  0  0  0  0  0  0  0  0  0
   -4.1173  -22.3688   16.2867 H   0  0  0  0  0  0  0  0  0  0  0  0
   -1.8600  -22.5110   16.3977 H   0  0  0  0  0  0  0  0  0  0  0  0
   -0.4324  -24.4773   17.0107 H   0  0  0  0  0  0  0  0  0  0  0  0
   -0.3055  -25.3078   19.6104 H   0  0  0  0  0  0  0  0  0  0  0  0
   -2.1027  -23.9816   20.8421 H   0  0  0  0  0  0  0  0  0  0  0  0
    2.7950  -21.3659   12.4223 H   0  0  0  0  0  0  0  0  0  0  0  0
    4.8333  -21.3089   13.6829 H   0  0  0  0  0  0  0  0  0  0  0  0
    5.3261  -20.9087   12.0411 H   0  0  0  0  0  0  0  0  0  0  0  0
    4.7584  -19.1431   14.2597 H   0  0  0  0  0  0  0  0  0  0  0  0
    5.4403  -17.3162   12.7928 H   0  0  0  0  0  0  0  0  0  0  0  0
    5.3331  -18.4645   11.4592 H   0  0  0  0  0  0  0  0  0  0  0  0
    3.1948  -17.2904   11.6125 H   0  0  0  0  0  0  0  0  0  0  0  0
    3.1867  -17.5212   13.3755 H   0  0  0  0  0  0  0  0  0  0  0  0
    1.6683  -21.3154   10.5670 H   0  0  0  0  0  0  0  0  0  0  0  0
    2.6097  -19.9521   10.1306 H   0  0  0  0  0  0  0  0  0  0  0  0
    1.3688  -20.7187    8.3048 H   0  0  0  0  0  0  0  0  0  0  0  0
   -0.1445  -20.3278    9.0431 H   0  0  0  0  0  0  0  0  0  0  0  0
    2.1603  -17.5224    9.7024 H   0  0  0  0  0  0  0  0  0  0  0  0
    0.5965  -16.8953    9.1684 H   0  0  0  0  0  0  0  0  0  0  0  0
    0.3093  -17.2464   11.4223 H   0  0  0  0  0  0  0  0  0  0  0  0
   -0.5545  -18.4768   10.6828 H   0  0  0  0  0  0  0  0  0  0  0  0
  1  2  2  0
  2  3  1  0
  3  4  1  0
  4  5  1  0
  5  6  1  0
  6  7  1  0
  7  8  2  0
  8  9  1  0
  9 10  1  0
  2 11  1  0
 11 12  1  0
 12 13  2  0
 13 14  1  0
 14 15  1  0
 15 16  1  0
 16 17  1  0
 11 18  1  0
 18 19  1  0
 19 20  1  0
 20 21  1  0
 21 22  1  0
 10  6  2  0
 22 11  1  0
 17 12  1  0
  3 23  1  0
  4 24  1  0
  4 25  1  0
  5 26  1  0
  5 27  1  0
  7 28  1  0
  8 29  1  0
  9 30  1  0
 13 31  1  0
 14 32  1  0
 14 33  1  0
 15 34  1  0
 16 35  1  0
 16 36  1  0
 17 37  1  0
 17 38  1  0
 18 39  1  0
 18 40  1  0
 19 41  1  0
 19 42  1  0
 21 43  1  0
 21 44  1  0
 22 45  1  0
 22 46  1  0
M  END
>  <Energy>  (1731) 
688.87025608225758

>  <compound_id>  (1731) 
36147

>  <target_id>  (1731) 
1

>  <reference_id>  (1731) 
96

>  <inspiration_ids>  (1731) 
[85, 96]

>  <energy_score>  (1731) 
599.1685825728168

>  <distance_score>  (1731) 
9.321405113120916

>  <path>  (1731) 
/opt/xchem-fragalysis-2/maxwin/BulkDock/SCRATCH/511013/C36147-P96/C36147-P96.minimised.mol

>  <scratch_subdir>  (1731) 
/opt/xchem-fragalysis-2/maxwin/BulkDock/SCRATCH/511013/C36147-P96

>  <fragmenstein_runtime>  (1731) 
17.582956314086914

>  <fragmenstein_outcome>  (1731) 
too moved

>  <fragmenstein_mode>  (1731) 
expansion

>  <fragmenstein_error>  (1731) 


$$$$
C36126-P85
     RDKit          3D

 42 44  0  0  0  0  0  0  0  0999 V2000
   -6.7314  -25.3991   18.0987 C   0  0  0  0  0  0  0  0  0  0  0  0
   -6.0490  -23.3493   17.7305 C   0  0  0  0  0  0  0  0  0  0  0  0
   -4.4343  -22.7241   19.3501 C   0  0  0  0  0  0  0  0  0  0  0  0
   -4.1680  -22.6457   17.2504 C   0  0  0  0  0  0  0  0  0  0  0  0
   -3.1259  -22.9117   17.7675 O   0  0  0  0  0  0  0  0  0  0  0  0
   -4.4405  -21.9819   16.1267 N   0  0  0  0  0  0  0  0  0  0  0  0
   -4.7325  -19.7475   16.6991 C   0  0  0  0  0  0  0  0  0  0  0  0
   -3.1697  -18.5110   15.7919 C   0  0  0  0  0  0  0  0  0  0  0  0
   -1.6868  -18.7932   14.7359 C   0  0  0  0  0  0  0  0  0  0  0  0
    0.3209  -18.9200   14.2232 C   0  0  0  0  0  0  0  0  0  0  0  0
    0.8109  -19.1641   12.7985 C   0  0  0  0  0  0  0  0  0  0  0  0
    2.1041  -19.5155   12.3292 C   0  0  0  0  0  0  0  0  0  0  0  0
    3.1579  -19.7201   13.1171 N   0  0  0  0  0  0  0  0  0  0  0  0
    2.8740  -19.5895   14.4183 C   0  0  0  0  0  0  0  0  0  0  0  0
    1.5999  -19.2713   14.9632 C   0  0  0  0  0  0  0  0  0  0  0  0
   -1.8150  -20.0905   14.0567 C   0  0  0  0  0  0  0  0  0  0  0  0
   -3.1770  -21.3224   14.6030 C   0  0  0  0  0  0  0  0  0  0  0  0
   -7.4511  -24.4443   18.9998 C   0  0  0  0  0  0  0  0  0  0  0  0
   -7.6578  -24.2063   21.0135 C   0  0  0  0  0  0  0  0  0  0  0  0
   -6.3599  -24.3201   22.3059 C   0  0  0  0  0  0  0  0  0  0  0  0
   -5.5473  -24.5112   21.3044 N   0  0  0  0  0  0  0  0  0  0  0  0
   -6.8182  -24.1089   20.5695 N   0  0  0  0  0  0  0  0  0  0  0  0
   -7.6968  -25.5749   17.4700 H   0  0  0  0  0  0  0  0  0  0  0  0
   -6.2875  -26.2020   17.3715 H   0  0  0  0  0  0  0  0  0  0  0  0
   -6.5674  -26.0277   19.0097 H   0  0  0  0  0  0  0  0  0  0  0  0
   -4.7876  -21.8230   20.1197 H   0  0  0  0  0  0  0  0  0  0  0  0
   -4.3612  -23.5617   20.0894 H   0  0  0  0  0  0  0  0  0  0  0  0
   -3.4311  -22.2702   19.3325 H   0  0  0  0  0  0  0  0  0  0  0  0
   -5.1958  -19.7477   17.7420 H   0  0  0  0  0  0  0  0  0  0  0  0
   -4.0779  -19.4121   17.5743 H   0  0  0  0  0  0  0  0  0  0  0  0
   -1.8159  -18.5381   15.6949 H   0  0  0  0  0  0  0  0  0  0  0  0
    0.2134  -18.9018   11.9487 H   0  0  0  0  0  0  0  0  0  0  0  0
    2.2916  -19.5965   11.2626 H   0  0  0  0  0  0  0  0  0  0  0  0
    3.7001  -19.8086   15.0883 H   0  0  0  0  0  0  0  0  0  0  0  0
    1.5902  -19.4457   16.0413 H   0  0  0  0  0  0  0  0  0  0  0  0
   -1.1769  -19.9095   13.1968 H   0  0  0  0  0  0  0  0  0  0  0  0
   -0.9546  -20.6947   13.8909 H   0  0  0  0  0  0  0  0  0  0  0  0
   -3.0568  -22.3397   14.1109 H   0  0  0  0  0  0  0  0  0  0  0  0
   -3.8424  -21.1624   13.6540 H   0  0  0  0  0  0  0  0  0  0  0  0
   -8.5991  -24.5202   21.3572 H   0  0  0  0  0  0  0  0  0  0  0  0
   -6.2634  -24.0989   23.3535 H   0  0  0  0  0  0  0  0  0  0  0  0
   -4.6400  -24.9105   21.1183 H   0  0  0  0  0  0  0  0  0  0  0  0
  1  2  1  0
  2  3  1  0
  2  4  1  0
  4  5  2  0
  4  6  1  0
  6  7  1  0
  7  8  1  0
  8  9  2  0
  9 10  1  0
 10 11  2  0
 11 12  1  0
 12 13  2  0
 13 14  1  0
 14 15  2  0
  9 16  1  0
 16 17  1  0
  2 18  1  0
 18 19  1  0
 19 20  2  0
 20 21  1  0
 21 22  1  0
 17  6  1  0
 22 18  2  0
 15 10  1  0
  1 23  1  0
  1 24  1  0
  1 25  1  0
  3 26  1  0
  3 27  1  0
  3 28  1  0
  7 29  1  0
  7 30  1  0
  8 31  1  0
 11 32  1  0
 12 33  1  0
 14 34  1  0
 15 35  1  0
 16 36  1  0
 16 37  1  0
 17 38  1  0
 17 39  1  0
 19 40  1  0
 20 41  1  0
 21 42  1  0
M  END
>  <Energy>  (1732) 
2638.5391334439541

>  <compound_id>  (1732) 
36126

>  <target_id>  (1732) 
1

>  <reference_id>  (1732) 
85

>  <inspiration_ids>  (1732) 
[85, 96]

>  <energy_score>  (1732) 
2554.5312509506844

>  <distance_score>  (1732) 
9.024082000448477

>  <path>  (1732) 
/opt/xchem-fragalysis-2/maxwin/BulkDock/SCRATCH/511013/C36126-P85/C36126-P85.minimised.mol

>  <scratch_subdir>  (1732) 
/opt/xchem-fragalysis-2/maxwin/BulkDock/SCRATCH/511013/C36126-P85

>  <fragmenstein_runtime>  (1732) 
19.933353185653687

>  <fragmenstein_outcome>  (1732) 
too moved

>  <fragmenstein_mode>  (1732) 
expansion

>  <fragmenstein_error>  (1732) 


$$$$
C36126-P96
     RDKit          3D

 42 44  0  0  0  0  0  0  0  0999 V2000
   -1.2527  -25.1150   19.0167 C   0  0  0  0  0  0  0  0  0  0  0  0
   -2.5081  -24.2422   19.9600 C   0  0  0  0  0  0  0  0  0  0  0  0
   -1.2199  -25.1662   21.0185 C   0  0  0  0  0  0  0  0  0  0  0  0
   -2.0264  -22.6640   18.6977 C   0  0  0  0  0  0  0  0  0  0  0  0
   -1.8363  -21.6032   19.3781 O   0  0  0  0  0  0  0  0  0  0  0  0
   -1.6832  -22.7597   17.2040 N   0  0  0  0  0  0  0  0  0  0  0  0
   -3.3570  -22.1552   15.9932 C   0  0  0  0  0  0  0  0  0  0  0  0
   -3.0121  -21.1817   14.0261 C   0  0  0  0  0  0  0  0  0  0  0  0
   -1.4080  -20.4748   13.3908 C   0  0  0  0  0  0  0  0  0  0  0  0
   -0.1296  -19.5423   12.3404 C   0  0  0  0  0  0  0  0  0  0  0  0
   -0.1619  -18.7839   11.1387 C   0  0  0  0  0  0  0  0  0  0  0  0
    0.9370  -18.3964   10.3235 C   0  0  0  0  0  0  0  0  0  0  0  0
    2.2149  -18.5965   10.6277 N   0  0  0  0  0  0  0  0  0  0  0  0
    2.3468  -19.1328   11.8425 C   0  0  0  0  0  0  0  0  0  0  0  0
    1.2698  -19.5494   12.6798 C   0  0  0  0  0  0  0  0  0  0  0  0
    0.2022  -21.0209   14.8359 C   0  0  0  0  0  0  0  0  0  0  0  0
   -1.0253  -21.8950   16.3408 C   0  0  0  0  0  0  0  0  0  0  0  0
   -3.4753  -24.3953   21.4482 C   0  0  0  0  0  0  0  0  0  0  0  0
   -4.7229  -23.8938   21.8634 C   0  0  0  0  0  0  0  0  0  0  0  0
   -4.7900  -23.9893   23.2209 C   0  0  0  0  0  0  0  0  0  0  0  0
   -3.6444  -24.6429   23.4887 N   0  0  0  0  0  0  0  0  0  0  0  0
   -3.1994  -25.2953   22.4272 N   0  0  0  0  0  0  0  0  0  0  0  0
   -1.5962  -24.9529   18.0048 H   0  0  0  0  0  0  0  0  0  0  0  0
   -0.2435  -24.6858   19.0050 H   0  0  0  0  0  0  0  0  0  0  0  0
   -1.1561  -26.2172   19.1062 H   0  0  0  0  0  0  0  0  0  0  0  0
   -1.4569  -26.2473   20.9966 H   0  0  0  0  0  0  0  0  0  0  0  0
   -1.2071  -24.9568   22.0853 H   0  0  0  0  0  0  0  0  0  0  0  0
   -0.1478  -25.0083   20.8071 H   0  0  0  0  0  0  0  0  0  0  0  0
   -4.3481  -22.3114   16.4696 H   0  0  0  0  0  0  0  0  0  0  0  0
   -3.7110  -22.9288   15.1284 H   0  0  0  0  0  0  0  0  0  0  0  0
   -3.8698  -21.1328   13.3291 H   0  0  0  0  0  0  0  0  0  0  0  0
   -1.0189  -18.2641   10.7686 H   0  0  0  0  0  0  0  0  0  0  0  0
    0.7535  -17.8497    9.4027 H   0  0  0  0  0  0  0  0  0  0  0  0
    3.3667  -19.2158   12.2063 H   0  0  0  0  0  0  0  0  0  0  0  0
    1.6499  -19.8246   13.6390 H   0  0  0  0  0  0  0  0  0  0  0  0
    0.7544  -20.1470   15.3910 H   0  0  0  0  0  0  0  0  0  0  0  0
    1.2691  -21.3412   14.5429 H   0  0  0  0  0  0  0  0  0  0  0  0
   -0.3278  -22.2362   17.0341 H   0  0  0  0  0  0  0  0  0  0  0  0
   -0.5161  -22.6073   15.7656 H   0  0  0  0  0  0  0  0  0  0  0  0
   -5.4220  -23.3456   21.3215 H   0  0  0  0  0  0  0  0  0  0  0  0
   -5.4364  -23.5242   23.9480 H   0  0  0  0  0  0  0  0  0  0  0  0
   -3.1217  -24.7300   24.3487 H   0  0  0  0  0  0  0  0  0  0  0  0
  1  2  1  0
  2  3  1  0
  2  4  1  0
  4  5  2  0
  4  6  1  0
  6  7  1  0
  7  8  1  0
  8  9  2  0
  9 10  1  0
 10 11  2  0
 11 12  1  0
 12 13  2  0
 13 14  1  0
 14 15  2  0
  9 16  1  0
 16 17  1  0
  2 18  1  0
 18 19  1  0
 19 20  2  0
 20 21  1  0
 21 22  1  0
 17  6  1  0
 22 18  2  0
 15 10  1  0
  1 23  1  0
  1 24  1  0
  1 25  1  0
  3 26  1  0
  3 27  1  0
  3 28  1  0
  7 29  1  0
  7 30  1  0
  8 31  1  0
 11 32  1  0
 12 33  1  0
 14 34  1  0
 15 35  1  0
 16 36  1  0
 16 37  1  0
 17 38  1  0
 17 39  1  0
 19 40  1  0
 20 41  1  0
 21 42  1  0
M  END
>  <Energy>  (1733) 
1312.0047474456107

>  <compound_id>  (1733) 
36126

>  <target_id>  (1733) 
1

>  <reference_id>  (1733) 
96

>  <inspiration_ids>  (1733) 
[85, 96]

>  <energy_score>  (1733) 
1227.9968649523128

>  <distance_score>  (1733) 
8.56281923500227

>  <path>  (1733) 
/opt/xchem-fragalysis-2/maxwin/BulkDock/SCRATCH/511013/C36126-P96/C36126-P96.minimised.mol

>  <scratch_subdir>  (1733) 
/opt/xchem-fragalysis-2/maxwin/BulkDock/SCRATCH/511013/C36126-P96

>  <fragmenstein_runtime>  (1733) 
21.970285177230835

>  <fragmenstein_outcome>  (1733) 
too moved

>  <fragmenstein_mode>  (1733) 
expansion

>  <fragmenstein_error>  (1733) 


$$$$
C36151-P85
     RDKit          3D

 45 46  0  0  0  0  0  0  0  0999 V2000
    1.2759  -18.2416   11.4494 C   0  0  0  0  0  0  0  0  0  0  0  0
    1.1023  -19.4811   12.4319 C   0  0  0  0  0  0  0  0  0  0  0  0
    2.0480  -19.4624   13.6822 C   0  0  0  0  0  0  0  0  0  0  0  0
    1.9367  -20.5362   11.5255 C   0  0  0  0  0  0  0  0  0  0  0  0
    2.9254  -21.1598   11.9113 O   0  0  0  0  0  0  0  0  0  0  0  0
    1.5753  -20.6653   10.2216 O   0  0  0  0  0  0  0  0  0  0  0  0
   -0.5359  -19.7324   12.8736 C   0  0  0  0  0  0  0  0  0  0  0  0
   -1.8437  -19.9567   13.9075 C   0  0  0  0  0  0  0  0  0  0  0  0
   -3.7623  -20.8299   13.3959 C   0  0  0  0  0  0  0  0  0  0  0  0
   -3.8632  -22.3299   14.6685 N   0  0  0  0  0  0  0  0  0  0  0  0
   -4.7456  -22.5777   16.5066 C   0  0  0  0  0  0  0  0  0  0  0  0
   -3.9537  -22.2542   17.4589 O   0  0  0  0  0  0  0  0  0  0  0  0
   -6.7324  -23.4570   17.2648 C   0  0  0  0  0  0  0  0  0  0  0  0
   -7.9899  -23.0293   15.5925 C   0  0  0  0  0  0  0  0  0  0  0  0
   -7.7415  -25.3182   17.1037 C   0  0  0  0  0  0  0  0  0  0  0  0
   -7.5970  -24.5887   18.9817 C   0  0  0  0  0  0  0  0  0  0  0  0
   -7.3049  -24.1195   20.8385 C   0  0  0  0  0  0  0  0  0  0  0  0
   -8.2249  -23.8486   21.9039 C   0  0  0  0  0  0  0  0  0  0  0  0
   -9.4346  -22.7847   21.0525 N   0  0  0  0  0  0  0  0  0  0  0  0
   -8.9103  -24.5879   20.3116 N   0  0  0  0  0  0  0  0  0  0  0  0
   -2.7336  -21.8382   14.2659 C   0  0  0  0  0  0  0  0  0  0  0  0
   -0.9585  -20.6120   13.8233 C   0  0  0  0  0  0  0  0  0  0  0  0
    1.0094  -18.4221   10.4102 H   0  0  0  0  0  0  0  0  0  0  0  0
    2.3332  -17.9530   11.3760 H   0  0  0  0  0  0  0  0  0  0  0  0
    0.6634  -17.3765   11.6859 H   0  0  0  0  0  0  0  0  0  0  0  0
    1.6917  -18.8432   14.4971 H   0  0  0  0  0  0  0  0  0  0  0  0
    3.0594  -19.1254   13.4200 H   0  0  0  0  0  0  0  0  0  0  0  0
    2.1740  -20.4634   14.1139 H   0  0  0  0  0  0  0  0  0  0  0  0
    0.8222  -20.1269    9.9205 H   0  0  0  0  0  0  0  0  0  0  0  0
   -1.9393  -18.9262   14.5337 H   0  0  0  0  0  0  0  0  0  0  0  0
   -4.5568  -20.1528   12.9953 H   0  0  0  0  0  0  0  0  0  0  0  0
   -3.7432  -21.3624   12.4432 H   0  0  0  0  0  0  0  0  0  0  0  0
   -8.8777  -22.3421   15.7521 H   0  0  0  0  0  0  0  0  0  0  0  0
   -7.6970  -22.4644   14.7013 H   0  0  0  0  0  0  0  0  0  0  0  0
   -8.8463  -23.7465   15.4500 H   0  0  0  0  0  0  0  0  0  0  0  0
   -7.2716  -26.0572   17.7664 H   0  0  0  0  0  0  0  0  0  0  0  0
   -8.7969  -25.2944   16.8044 H   0  0  0  0  0  0  0  0  0  0  0  0
   -7.3298  -26.0800   16.3625 H   0  0  0  0  0  0  0  0  0  0  0  0
   -6.1797  -24.2855   21.1892 H   0  0  0  0  0  0  0  0  0  0  0  0
   -8.2792  -23.4219   22.9399 H   0  0  0  0  0  0  0  0  0  0  0  0
  -10.3380  -22.7595   21.5043 H   0  0  0  0  0  0  0  0  0  0  0  0
   -2.7687  -21.0160   14.8109 H   0  0  0  0  0  0  0  0  0  0  0  0
   -3.2439  -21.7572   15.1801 H   0  0  0  0  0  0  0  0  0  0  0  0
   -0.3267  -19.3005   14.0802 H   0  0  0  0  0  0  0  0  0  0  0  0
    0.1894  -21.0730   13.9744 H   0  0  0  0  0  0  0  0  0  0  0  0
  1  2  1  0
  2  3  1  0
  2  4  1  0
  4  5  2  0
  4  6  1  0
  2  7  1  0
  7  8  2  0
  8  9  1  0
  9 10  1  0
 10 11  1  0
 11 12  2  0
 11 13  1  0
 13 14  1  0
 13 15  1  0
 13 16  1  0
 16 17  1  0
 17 18  2  0
 18 19  1  0
 19 20  1  0
 10 21  1  0
 21 22  1  0
 22  7  1  0
 20 16  2  0
  1 23  1  0
  1 24  1  0
  1 25  1  0
  3 26  1  0
  3 27  1  0
  3 28  1  0
  6 29  1  0
  8 30  1  0
  9 31  1  0
  9 32  1  0
 14 33  1  0
 14 34  1  0
 14 35  1  0
 15 36  1  0
 15 37  1  0
 15 38  1  0
 17 39  1  0
 18 40  1  0
 19 41  1  0
 21 42  1  0
 21 43  1  0
 22 44  1  0
 22 45  1  0
M  END
>  <Energy>  (1734) 
2680.1827895404631

>  <compound_id>  (1734) 
36151

>  <target_id>  (1734) 
1

>  <reference_id>  (1734) 
85

>  <inspiration_ids>  (1734) 
[85, 96]

>  <energy_score>  (1734) 
2563.6657699711586

>  <distance_score>  (1734) 
8.091249995627345

>  <path>  (1734) 
/opt/xchem-fragalysis-2/maxwin/BulkDock/SCRATCH/511013/C36151-P85/C36151-P85.minimised.mol

>  <scratch_subdir>  (1734) 
/opt/xchem-fragalysis-2/maxwin/BulkDock/SCRATCH/511013/C36151-P85

>  <fragmenstein_runtime>  (1734) 
16.373831272125244

>  <fragmenstein_outcome>  (1734) 
too moved

>  <fragmenstein_mode>  (1734) 
expansion

>  <fragmenstein_error>  (1734) 


$$$$
C36151-P96
     RDKit          3D

 45 46  0  0  0  0  0  0  0  0999 V2000
    2.8907  -18.3231   12.1630 C   0  0  0  0  0  0  0  0  0  0  0  0
    1.5609  -18.8727   11.5604 C   0  0  0  0  0  0  0  0  0  0  0  0
    2.0226  -20.2173   10.9327 C   0  0  0  0  0  0  0  0  0  0  0  0
    1.2481  -18.0579   10.2881 C   0  0  0  0  0  0  0  0  0  0  0  0
    2.0458  -17.8062    9.3889 O   0  0  0  0  0  0  0  0  0  0  0  0
   -0.0323  -17.6653   10.1444 O   0  0  0  0  0  0  0  0  0  0  0  0
    0.2476  -18.8688   12.5127 C   0  0  0  0  0  0  0  0  0  0  0  0
   -0.2342  -18.4988   13.7343 C   0  0  0  0  0  0  0  0  0  0  0  0
   -2.2119  -18.9548   14.2289 C   0  0  0  0  0  0  0  0  0  0  0  0
   -3.0867  -20.8147   14.5780 N   0  0  0  0  0  0  0  0  0  0  0  0
   -2.8503  -21.8887   16.3804 C   0  0  0  0  0  0  0  0  0  0  0  0
   -1.9099  -22.5781   16.2784 O   0  0  0  0  0  0  0  0  0  0  0  0
   -3.5376  -22.0391   18.4699 C   0  0  0  0  0  0  0  0  0  0  0  0
   -1.8958  -23.3063   18.3476 C   0  0  0  0  0  0  0  0  0  0  0  0
   -3.8001  -20.3940   19.4181 C   0  0  0  0  0  0  0  0  0  0  0  0
   -3.7987  -23.1769   20.3067 C   0  0  0  0  0  0  0  0  0  0  0  0
   -2.9765  -24.4057   21.1487 C   0  0  0  0  0  0  0  0  0  0  0  0
   -3.6612  -24.7956   22.2728 C   0  0  0  0  0  0  0  0  0  0  0  0
   -4.7391  -24.0083   22.2686 N   0  0  0  0  0  0  0  0  0  0  0  0
   -4.8852  -23.1759   21.2252 N   0  0  0  0  0  0  0  0  0  0  0  0
   -2.2947  -20.7071   13.3596 C   0  0  0  0  0  0  0  0  0  0  0  0
   -0.8860  -19.7323   12.3078 C   0  0  0  0  0  0  0  0  0  0  0  0
    3.0090  -17.2488   12.0157 H   0  0  0  0  0  0  0  0  0  0  0  0
    3.7808  -18.7511   11.6843 H   0  0  0  0  0  0  0  0  0  0  0  0
    2.9748  -18.5693   13.2275 H   0  0  0  0  0  0  0  0  0  0  0  0
    2.8909  -20.0813   10.2713 H   0  0  0  0  0  0  0  0  0  0  0  0
    1.2657  -20.6497   10.2699 H   0  0  0  0  0  0  0  0  0  0  0  0
    2.3525  -20.9246   11.7004 H   0  0  0  0  0  0  0  0  0  0  0  0
   -0.1071  -17.3730    9.2162 H   0  0  0  0  0  0  0  0  0  0  0  0
    0.5135  -18.3193   14.5359 H   0  0  0  0  0  0  0  0  0  0  0  0
   -2.4700  -18.3903   15.0492 H   0  0  0  0  0  0  0  0  0  0  0  0
   -2.7844  -18.4200   13.4955 H   0  0  0  0  0  0  0  0  0  0  0  0
   -1.7865  -24.1464   19.0628 H   0  0  0  0  0  0  0  0  0  0  0  0
   -0.9316  -22.9385   18.1401 H   0  0  0  0  0  0  0  0  0  0  0  0
   -2.0537  -24.1806   17.7272 H   0  0  0  0  0  0  0  0  0  0  0  0
   -4.6694  -20.4053   20.0973 H   0  0  0  0  0  0  0  0  0  0  0  0
   -4.0760  -19.5907   18.7072 H   0  0  0  0  0  0  0  0  0  0  0  0
   -2.9698  -20.0930   20.0643 H   0  0  0  0  0  0  0  0  0  0  0  0
   -2.0471  -24.8747   20.8378 H   0  0  0  0  0  0  0  0  0  0  0  0
   -3.4416  -25.5280   23.0291 H   0  0  0  0  0  0  0  0  0  0  0  0
   -5.4633  -23.9777   22.9719 H   0  0  0  0  0  0  0  0  0  0  0  0
   -3.3095  -20.7794   12.8687 H   0  0  0  0  0  0  0  0  0  0  0  0
   -1.3281  -20.8270   13.5101 H   0  0  0  0  0  0  0  0  0  0  0  0
   -0.6967  -19.9960   11.2776 H   0  0  0  0  0  0  0  0  0  0  0  0
   -0.0364  -20.2542   12.7952 H   0  0  0  0  0  0  0  0  0  0  0  0
  1  2  1  0
  2  3  1  0
  2  4  1  0
  4  5  2  0
  4  6  1  0
  2  7  1  0
  7  8  2  0
  8  9  1  0
  9 10  1  0
 10 11  1  0
 11 12  2  0
 11 13  1  0
 13 14  1  0
 13 15  1  0
 13 16  1  0
 16 17  1  0
 17 18  2  0
 18 19  1  0
 19 20  1  0
 10 21  1  0
 21 22  1  0
 22  7  1  0
 20 16  2  0
  1 23  1  0
  1 24  1  0
  1 25  1  0
  3 26  1  0
  3 27  1  0
  3 28  1  0
  6 29  1  0
  8 30  1  0
  9 31  1  0
  9 32  1  0
 14 33  1  0
 14 34  1  0
 14 35  1  0
 15 36  1  0
 15 37  1  0
 15 38  1  0
 17 39  1  0
 18 40  1  0
 19 41  1  0
 21 42  1  0
 21 43  1  0
 22 44  1  0
 22 45  1  0
M  END
>  <Energy>  (1735) 
1418.4068551594455

>  <compound_id>  (1735) 
36151

>  <target_id>  (1735) 
1

>  <reference_id>  (1735) 
96

>  <inspiration_ids>  (1735) 
[85, 96]

>  <energy_score>  (1735) 
1301.8898355901117

>  <distance_score>  (1735) 
7.993586839741956

>  <path>  (1735) 
/opt/xchem-fragalysis-2/maxwin/BulkDock/SCRATCH/511013/C36151-P96/C36151-P96.minimised.mol

>  <scratch_subdir>  (1735) 
/opt/xchem-fragalysis-2/maxwin/BulkDock/SCRATCH/511013/C36151-P96

>  <fragmenstein_runtime>  (1735) 
17.435829877853394

>  <fragmenstein_outcome>  (1735) 
too moved

>  <fragmenstein_mode>  (1735) 
expansion

>  <fragmenstein_error>  (1735) 


$$$$
C25073-P85
     RDKit          2D

  0  0  0  0  0  0  0  0  0  0999 V2000
M  END
>  <compound_id>  (1736) 
25073

>  <target_id>  (1736) 
1

>  <reference_id>  (1736) 
85

>  <inspiration_ids>  (1736) 
[85, 96]

>  <energy_score>  (1736) 
nan

>  <distance_score>  (1736) 
nan

>  <path>  (1736) 
/opt/xchem-fragalysis-2/maxwin/BulkDock/SCRATCH/511013/C25073-P85/C25073-P85.minimised.mol

>  <scratch_subdir>  (1736) 
/opt/xchem-fragalysis-2/maxwin/BulkDock/SCRATCH/511013/C25073-P85

>  <fragmenstein_runtime>  (1736) 
0.20560169219970703

>  <fragmenstein_outcome>  (1736) 
too distant

>  <fragmenstein_mode>  (1736) 
expansion

>  <fragmenstein_error>  (1736) 
DistanceError: hit1

$$$$
C36156-P85
     RDKit          3D

 33 34  0  0  0  0  0  0  0  0999 V2000
   -7.0819  -14.9783   18.5272 O   0  0  0  0  0  0  0  0  0  0  0  0
   -5.9260  -15.1175   18.3716 C   0  0  0  0  0  0  0  0  0  0  0  0
   -4.8997  -15.5892   19.2945 N   0  0  0  0  0  0  0  0  0  0  0  0
   -4.9751  -15.9365   20.7111 C   0  0  0  0  0  0  0  0  0  0  0  0
   -5.9256  -17.0217   21.1891 C   0  0  0  0  0  0  0  0  0  0  0  0
   -6.4516  -18.1671   20.5358 C   0  0  0  0  0  0  0  0  0  0  0  0
   -7.2277  -18.8113   21.4760 C   0  0  0  0  0  0  0  0  0  0  0  0
   -7.1333  -18.0641   22.6071 N   0  0  0  0  0  0  0  0  0  0  0  0
   -6.3290  -17.0026   22.4787 N   0  0  0  0  0  0  0  0  0  0  0  0
   -5.0701  -14.8320   17.1674 N   0  0  0  0  0  0  0  0  0  0  0  0
   -5.4610  -14.3911   15.7700 C   0  0  0  0  0  0  0  0  0  0  0  0
   -4.4835  -13.9665   14.7061 C   0  0  0  0  0  0  0  0  0  0  0  0
   -3.4128  -13.2152   14.9874 C   0  0  0  0  0  0  0  0  0  0  0  0
   -2.5838  -12.4881   13.9510 C   0  0  0  0  0  0  0  0  0  0  0  0
   -1.3471  -13.1198   13.7003 O   0  0  0  0  0  0  0  0  0  0  0  0
   -3.2259  -13.0007   16.4487 C   0  0  0  0  0  0  0  0  0  0  0  0
   -4.5250  -13.3880   17.2372 C   0  0  0  0  0  0  0  0  0  0  0  0
   -4.0196  -15.6623   18.8016 H   0  0  0  0  0  0  0  0  0  0  0  0
   -3.9594  -16.1937   21.0294 H   0  0  0  0  0  0  0  0  0  0  0  0
   -5.2477  -15.0033   21.2194 H   0  0  0  0  0  0  0  0  0  0  0  0
   -6.2880  -18.4579   19.5068 H   0  0  0  0  0  0  0  0  0  0  0  0
   -7.8418  -19.6966   21.4325 H   0  0  0  0  0  0  0  0  0  0  0  0
   -7.5800  -18.2139   23.5037 H   0  0  0  0  0  0  0  0  0  0  0  0
   -6.3520  -13.7413   15.7935 H   0  0  0  0  0  0  0  0  0  0  0  0
   -5.8872  -15.3250   15.3767 H   0  0  0  0  0  0  0  0  0  0  0  0
   -4.7558  -14.1715   13.6739 H   0  0  0  0  0  0  0  0  0  0  0  0
   -2.3874  -11.4644   14.2862 H   0  0  0  0  0  0  0  0  0  0  0  0
   -3.1260  -12.4098   13.0015 H   0  0  0  0  0  0  0  0  0  0  0  0
   -1.6239  -13.9873   13.3281 H   0  0  0  0  0  0  0  0  0  0  0  0
   -3.0172  -11.9429   16.6482 H   0  0  0  0  0  0  0  0  0  0  0  0
   -2.3722  -13.5743   16.8201 H   0  0  0  0  0  0  0  0  0  0  0  0
   -4.2302  -13.2677   18.2916 H   0  0  0  0  0  0  0  0  0  0  0  0
   -5.3226  -12.6272   17.1514 H   0  0  0  0  0  0  0  0  0  0  0  0
  1  2  2  0
  2  3  1  0
  3  4  1  0
  4  5  1  0
  5  6  1  0
  6  7  2  0
  7  8  1  0
  8  9  1  0
  2 10  1  0
 10 11  1  0
 11 12  1  0
 12 13  2  0
 13 14  1  0
 14 15  1  0
 13 16  1  0
 16 17  1  0
  9  5  2  0
 17 10  1  0
  3 18  1  0
  4 19  1  0
  4 20  1  0
  6 21  1  0
  7 22  1  0
  8 23  1  0
 11 24  1  0
 11 25  1  0
 12 26  1  0
 14 27  1  0
 14 28  1  0
 15 29  1  0
 16 30  1  0
 16 31  1  0
 17 32  1  0
 17 33  1  0
M  END
>  <Energy>  (1737) 
24.366199393043129

>  <compound_id>  (1737) 
36156

>  <target_id>  (1737) 
1

>  <reference_id>  (1737) 
85

>  <inspiration_ids>  (1737) 
[85, 96]

>  <energy_score>  (1737) 
58.64955594573905

>  <distance_score>  (1737) 
10.429558187490303

>  <path>  (1737) 
/opt/xchem-fragalysis-2/maxwin/BulkDock/SCRATCH/511013/C36156-P85/C36156-P85.minimised.mol

>  <scratch_subdir>  (1737) 
/opt/xchem-fragalysis-2/maxwin/BulkDock/SCRATCH/511013/C36156-P85

>  <fragmenstein_runtime>  (1737) 
12.185023546218872

>  <fragmenstein_outcome>  (1737) 
too moved

>  <fragmenstein_mode>  (1737) 
expansion

>  <fragmenstein_error>  (1737) 


$$$$
C36156-P96
     RDKit          3D

 33 34  0  0  0  0  0  0  0  0999 V2000
   -1.2053  -22.1939   16.4823 O   0  0  0  0  0  0  0  0  0  0  0  0
   -0.3149  -22.3481   17.1601 C   0  0  0  0  0  0  0  0  0  0  0  0
   -0.4431  -23.4537   18.5978 N   0  0  0  0  0  0  0  0  0  0  0  0
   -1.8524  -24.3405   19.2867 C   0  0  0  0  0  0  0  0  0  0  0  0
   -3.2793  -23.6600   20.7346 C   0  0  0  0  0  0  0  0  0  0  0  0
   -2.9620  -24.4160   22.3797 C   0  0  0  0  0  0  0  0  0  0  0  0
   -4.0388  -24.2145   23.1652 C   0  0  0  0  0  0  0  0  0  0  0  0
   -4.9669  -23.6976   22.3660 N   0  0  0  0  0  0  0  0  0  0  0  0
   -4.6404  -23.4960   21.0704 N   0  0  0  0  0  0  0  0  0  0  0  0
    1.3851  -21.3354   16.9888 N   0  0  0  0  0  0  0  0  0  0  0  0
    1.7122  -20.1291   16.0188 C   0  0  0  0  0  0  0  0  0  0  0  0
    2.9209  -19.2491   16.1361 C   0  0  0  0  0  0  0  0  0  0  0  0
    3.8107  -19.5723   15.1996 C   0  0  0  0  0  0  0  0  0  0  0  0
    4.6297  -18.6164   14.3854 C   0  0  0  0  0  0  0  0  0  0  0  0
    4.0359  -18.4386   13.0984 O   0  0  0  0  0  0  0  0  0  0  0  0
    3.7316  -21.0242   14.9065 C   0  0  0  0  0  0  0  0  0  0  0  0
    2.7938  -21.9143   15.9395 C   0  0  0  0  0  0  0  0  0  0  0  0
    0.4224  -23.4014   19.1389 H   0  0  0  0  0  0  0  0  0  0  0  0
   -2.1420  -24.4601   18.2571 H   0  0  0  0  0  0  0  0  0  0  0  0
   -1.2343  -25.1858   19.6836 H   0  0  0  0  0  0  0  0  0  0  0  0
   -2.0152  -24.9037   22.5974 H   0  0  0  0  0  0  0  0  0  0  0  0
   -4.1245  -24.2021   24.2169 H   0  0  0  0  0  0  0  0  0  0  0  0
   -5.8798  -23.3999   22.6753 H   0  0  0  0  0  0  0  0  0  0  0  0
    0.9431  -19.3609   16.1639 H   0  0  0  0  0  0  0  0  0  0  0  0
    1.4433  -20.4196   14.9879 H   0  0  0  0  0  0  0  0  0  0  0  0
    2.7917  -18.2348   16.4964 H   0  0  0  0  0  0  0  0  0  0  0  0
    5.6478  -18.9947   14.2535 H   0  0  0  0  0  0  0  0  0  0  0  0
    4.6948  -17.6344   14.8654 H   0  0  0  0  0  0  0  0  0  0  0  0
    3.0975  -18.1942   13.2467 H   0  0  0  0  0  0  0  0  0  0  0  0
    4.7332  -21.4721   14.9173 H   0  0  0  0  0  0  0  0  0  0  0  0
    3.3446  -21.1616   13.8864 H   0  0  0  0  0  0  0  0  0  0  0  0
    2.4327  -22.5819   15.1407 H   0  0  0  0  0  0  0  0  0  0  0  0
    3.5226  -22.3571   16.6243 H   0  0  0  0  0  0  0  0  0  0  0  0
  1  2  2  0
  2  3  1  0
  3  4  1  0
  4  5  1  0
  5  6  1  0
  6  7  2  0
  7  8  1  0
  8  9  1  0
  2 10  1  0
 10 11  1  0
 11 12  1  0
 12 13  2  0
 13 14  1  0
 14 15  1  0
 13 16  1  0
 16 17  1  0
  9  5  2  0
 17 10  1  0
  3 18  1  0
  4 19  1  0
  4 20  1  0
  6 21  1  0
  7 22  1  0
  8 23  1  0
 11 24  1  0
 11 25  1  0
 12 26  1  0
 14 27  1  0
 14 28  1  0
 15 29  1  0
 16 30  1  0
 16 31  1  0
 17 32  1  0
 17 33  1  0
M  END
>  <Energy>  (1738) 
527.71231804558624

>  <compound_id>  (1738) 
36156

>  <target_id>  (1738) 
1

>  <reference_id>  (1738) 
96

>  <inspiration_ids>  (1738) 
[85, 96]

>  <energy_score>  (1738) 
561.9956745982695

>  <distance_score>  (1738) 
8.579482623858047

>  <path>  (1738) 
/opt/xchem-fragalysis-2/maxwin/BulkDock/SCRATCH/511013/C36156-P96/C36156-P96.minimised.mol

>  <scratch_subdir>  (1738) 
/opt/xchem-fragalysis-2/maxwin/BulkDock/SCRATCH/511013/C36156-P96

>  <fragmenstein_runtime>  (1738) 
10.63598108291626

>  <fragmenstein_outcome>  (1738) 
too moved

>  <fragmenstein_mode>  (1738) 
expansion

>  <fragmenstein_error>  (1738) 


$$$$
C36160-P85
     RDKit          3D

 36 38  0  0  0  0  0  0  0  0999 V2000
   -0.4607  -18.5101   17.8333 O   0  0  0  0  0  0  0  0  0  0  0  0
   -1.2431  -18.2468   17.0033 C   0  0  0  0  0  0  0  0  0  0  0  0
   -0.9049  -18.4648   15.1648 N   0  0  0  0  0  0  0  0  0  0  0  0
    0.6786  -18.9732   14.2666 C   0  0  0  0  0  0  0  0  0  0  0  0
    0.6733  -19.4347   12.9374 C   0  0  0  0  0  0  0  0  0  0  0  0
    1.7392  -19.7411   12.0863 C   0  0  0  0  0  0  0  0  0  0  0  0
    2.9974  -19.6931   12.6039 C   0  0  0  0  0  0  0  0  0  0  0  0
    3.1487  -19.3826   13.9609 C   0  0  0  0  0  0  0  0  0  0  0  0
    4.5193  -19.1634   14.3942 C   0  0  0  0  0  0  0  0  0  0  0  0
    5.6682  -19.8992   13.9908 C   0  0  0  0  0  0  0  0  0  0  0  0
    6.7406  -19.1453   14.3924 C   0  0  0  0  0  0  0  0  0  0  0  0
    6.2080  -18.0459   14.9951 N   0  0  0  0  0  0  0  0  0  0  0  0
    4.8761  -18.0841   15.1029 N   0  0  0  0  0  0  0  0  0  0  0  0
    2.0138  -19.1003   14.7983 C   0  0  0  0  0  0  0  0  0  0  0  0
   -3.0688  -17.5910   17.1524 N   0  0  0  0  0  0  0  0  0  0  0  0
   -4.1108  -18.4302   17.2114 C   0  0  0  0  0  0  0  0  0  0  0  0
   -4.9190  -19.3194   18.0506 C   0  0  0  0  0  0  0  0  0  0  0  0
   -5.5856  -19.2280   19.1638 C   0  0  0  0  0  0  0  0  0  0  0  0
   -5.3866  -17.9027   19.4720 C   0  0  0  0  0  0  0  0  0  0  0  0
   -4.0428  -17.0672   18.6566 C   0  0  0  0  0  0  0  0  0  0  0  0
   -1.7416  -18.2580   14.6401 H   0  0  0  0  0  0  0  0  0  0  0  0
   -0.2791  -19.6299   12.5755 H   0  0  0  0  0  0  0  0  0  0  0  0
    1.5642  -20.0396   11.0592 H   0  0  0  0  0  0  0  0  0  0  0  0
    3.8447  -19.8746   11.9536 H   0  0  0  0  0  0  0  0  0  0  0  0
    5.6946  -20.8152   13.4184 H   0  0  0  0  0  0  0  0  0  0  0  0
    7.8062  -19.2631   14.2689 H   0  0  0  0  0  0  0  0  0  0  0  0
    6.6868  -17.2064   15.3123 H   0  0  0  0  0  0  0  0  0  0  0  0
    2.2332  -18.8941   15.8392 H   0  0  0  0  0  0  0  0  0  0  0  0
   -4.0028  -18.6875   16.2282 H   0  0  0  0  0  0  0  0  0  0  0  0
   -4.6439  -17.5325   16.9763 H   0  0  0  0  0  0  0  0  0  0  0  0
   -5.0880  -20.2386   17.6388 H   0  0  0  0  0  0  0  0  0  0  0  0
   -6.1738  -19.9118   19.7258 H   0  0  0  0  0  0  0  0  0  0  0  0
   -6.3667  -17.4984   19.2609 H   0  0  0  0  0  0  0  0  0  0  0  0
   -5.3321  -17.8760   20.5592 H   0  0  0  0  0  0  0  0  0  0  0  0
   -3.7387  -16.8402   19.7520 H   0  0  0  0  0  0  0  0  0  0  0  0
   -3.0349  -16.5076   18.9114 H   0  0  0  0  0  0  0  0  0  0  0  0
  1  2  2  0
  2  3  1  0
  3  4  1  0
  4  5  2  0
  5  6  1  0
  6  7  2  0
  7  8  1  0
  8  9  1  0
  9 10  1  0
 10 11  2  0
 11 12  1  0
 12 13  1  0
  8 14  2  0
  2 15  1  0
 15 16  1  0
 16 17  1  0
 17 18  2  0
 18 19  1  0
 19 20  1  0
 14  4  1  0
 20 15  1  0
 13  9  2  0
  3 21  1  0
  5 22  1  0
  6 23  1  0
  7 24  1  0
 10 25  1  0
 11 26  1  0
 12 27  1  0
 14 28  1  0
 16 29  1  0
 16 30  1  0
 17 31  1  0
 18 32  1  0
 19 33  1  0
 19 34  1  0
 20 35  1  0
 20 36  1  0
M  END
>  <Energy>  (1739) 
528.44239908835698

>  <compound_id>  (1739) 
36160

>  <target_id>  (1739) 
1

>  <reference_id>  (1739) 
85

>  <inspiration_ids>  (1739) 
[85, 96]

>  <energy_score>  (1739) 
523.0542553411804

>  <distance_score>  (1739) 
10.423423499091946

>  <path>  (1739) 
/opt/xchem-fragalysis-2/maxwin/BulkDock/SCRATCH/511013/C36160-P85/C36160-P85.minimised.mol

>  <scratch_subdir>  (1739) 
/opt/xchem-fragalysis-2/maxwin/BulkDock/SCRATCH/511013/C36160-P85

>  <fragmenstein_runtime>  (1739) 
16.61946177482605

>  <fragmenstein_outcome>  (1739) 
too moved

>  <fragmenstein_mode>  (1739) 
expansion

>  <fragmenstein_error>  (1739) 


$$$$
C36160-P96
     RDKit          3D

 36 38  0  0  0  0  0  0  0  0999 V2000
   -1.9074  -14.5455   18.3303 O   0  0  0  0  0  0  0  0  0  0  0  0
   -2.7216  -15.0066   17.5979 C   0  0  0  0  0  0  0  0  0  0  0  0
   -3.0889  -14.4676   15.9831 N   0  0  0  0  0  0  0  0  0  0  0  0
   -2.5893  -13.3267   15.2317 C   0  0  0  0  0  0  0  0  0  0  0  0
   -1.6862  -12.4098   15.7963 C   0  0  0  0  0  0  0  0  0  0  0  0
   -0.9795  -11.4967   15.0039 C   0  0  0  0  0  0  0  0  0  0  0  0
   -1.1976  -11.4548   13.6348 C   0  0  0  0  0  0  0  0  0  0  0  0
   -2.1532  -12.2896   13.0748 C   0  0  0  0  0  0  0  0  0  0  0  0
   -2.4548  -12.2397   11.6644 C   0  0  0  0  0  0  0  0  0  0  0  0
   -2.3099  -13.2764   10.7229 C   0  0  0  0  0  0  0  0  0  0  0  0
   -3.2159  -12.9530    9.7493 C   0  0  0  0  0  0  0  0  0  0  0  0
   -3.5374  -11.6552    9.9626 N   0  0  0  0  0  0  0  0  0  0  0  0
   -3.0918  -11.1881   11.1345 N   0  0  0  0  0  0  0  0  0  0  0  0
   -2.8780  -13.1840   13.8835 C   0  0  0  0  0  0  0  0  0  0  0  0
   -3.8540  -16.1974   17.8686 N   0  0  0  0  0  0  0  0  0  0  0  0
   -3.5687  -17.7545   17.6030 C   0  0  0  0  0  0  0  0  0  0  0  0
   -4.4399  -18.9266   18.2605 C   0  0  0  0  0  0  0  0  0  0  0  0
   -5.5293  -18.7998   18.9959 C   0  0  0  0  0  0  0  0  0  0  0  0
   -5.7044  -17.4083   19.2113 C   0  0  0  0  0  0  0  0  0  0  0  0
   -4.1608  -16.8354   19.0407 C   0  0  0  0  0  0  0  0  0  0  0  0
   -3.7689  -15.1000   15.5590 H   0  0  0  0  0  0  0  0  0  0  0  0
   -1.4730  -12.4477   16.8637 H   0  0  0  0  0  0  0  0  0  0  0  0
   -0.2586  -10.8273   15.4652 H   0  0  0  0  0  0  0  0  0  0  0  0
   -0.6535  -10.7572   13.0159 H   0  0  0  0  0  0  0  0  0  0  0  0
   -1.7968  -14.2177   10.8366 H   0  0  0  0  0  0  0  0  0  0  0  0
   -3.6223  -13.5060    8.9225 H   0  0  0  0  0  0  0  0  0  0  0  0
   -4.1133  -11.0496    9.3898 H   0  0  0  0  0  0  0  0  0  0  0  0
   -3.6214  -13.8188   13.4227 H   0  0  0  0  0  0  0  0  0  0  0  0
   -2.4907  -17.8903   17.7779 H   0  0  0  0  0  0  0  0  0  0  0  0
   -3.9742  -17.9061   16.5932 H   0  0  0  0  0  0  0  0  0  0  0  0
   -4.0775  -19.9112   18.2369 H   0  0  0  0  0  0  0  0  0  0  0  0
   -6.0722  -19.5545   19.5262 H   0  0  0  0  0  0  0  0  0  0  0  0
   -6.4011  -17.1001   18.4465 H   0  0  0  0  0  0  0  0  0  0  0  0
   -6.1533  -17.2111   20.1877 H   0  0  0  0  0  0  0  0  0  0  0  0
   -4.0720  -15.9923   19.7384 H   0  0  0  0  0  0  0  0  0  0  0  0
   -3.2328  -17.3124   19.4487 H   0  0  0  0  0  0  0  0  0  0  0  0
  1  2  2  0
  2  3  1  0
  3  4  1  0
  4  5  2  0
  5  6  1  0
  6  7  2  0
  7  8  1  0
  8  9  1  0
  9 10  1  0
 10 11  2  0
 11 12  1  0
 12 13  1  0
  8 14  2  0
  2 15  1  0
 15 16  1  0
 16 17  1  0
 17 18  2  0
 18 19  1  0
 19 20  1  0
 14  4  1  0
 20 15  1  0
 13  9  2  0
  3 21  1  0
  5 22  1  0
  6 23  1  0
  7 24  1  0
 10 25  1  0
 11 26  1  0
 12 27  1  0
 14 28  1  0
 16 29  1  0
 16 30  1  0
 17 31  1  0
 18 32  1  0
 19 33  1  0
 19 34  1  0
 20 35  1  0
 20 36  1  0
M  END
>  <Energy>  (1740) 
181.88626278141891

>  <compound_id>  (1740) 
36160

>  <target_id>  (1740) 
1

>  <reference_id>  (1740) 
96

>  <inspiration_ids>  (1740) 
[85, 96]

>  <energy_score>  (1740) 
176.4981190342495

>  <distance_score>  (1740) 
11.06042676171427

>  <path>  (1740) 
/opt/xchem-fragalysis-2/maxwin/BulkDock/SCRATCH/511013/C36160-P96/C36160-P96.minimised.mol

>  <scratch_subdir>  (1740) 
/opt/xchem-fragalysis-2/maxwin/BulkDock/SCRATCH/511013/C36160-P96

>  <fragmenstein_runtime>  (1740) 
16.861379861831665

>  <fragmenstein_outcome>  (1740) 
too moved

>  <fragmenstein_mode>  (1740) 
expansion

>  <fragmenstein_error>  (1740) 


$$$$
C36161-P85
     RDKit          3D

 40 42  0  0  0  0  0  0  0  0999 V2000
   -3.0231  -22.9453   13.8121 N   0  0  0  0  0  0  0  0  0  0  0  0
   -3.9502  -22.1174   15.1697 C   0  0  0  0  0  0  0  0  0  0  0  0
   -3.8856  -22.5152   17.4664 C   0  0  0  0  0  0  0  0  0  0  0  0
   -4.1008  -21.9525   19.5586 C   0  0  0  0  0  0  0  0  0  0  0  0
   -5.3007  -21.9261   21.0131 C   0  0  0  0  0  0  0  0  0  0  0  0
   -5.3157  -20.8294   21.8762 C   0  0  0  0  0  0  0  0  0  0  0  0
   -4.5826  -20.0649   21.0917 N   0  0  0  0  0  0  0  0  0  0  0  0
   -4.9656  -20.4879   19.8825 N   0  0  0  0  0  0  0  0  0  0  0  0
   -2.8183  -21.4248   15.1978 C   0  0  0  0  0  0  0  0  0  0  0  0
   -2.1169  -21.9936   16.5665 O   0  0  0  0  0  0  0  0  0  0  0  0
   -1.6915  -19.9185   14.1453 N   0  0  0  0  0  0  0  0  0  0  0  0
    0.2197  -19.0567   14.3827 C   0  0  0  0  0  0  0  0  0  0  0  0
    1.8170  -19.5549   13.6272 C   0  0  0  0  0  0  0  0  0  0  0  0
    1.9902  -19.1625   12.3607 C   0  0  0  0  0  0  0  0  0  0  0  0
    3.1381  -18.9067   11.4716 C   0  0  0  0  0  0  0  0  0  0  0  0
    3.0310  -18.0222   10.3810 C   0  0  0  0  0  0  0  0  0  0  0  0
    4.0438  -17.7366    9.5173 N   0  0  0  0  0  0  0  0  0  0  0  0
    5.1800  -18.4074    9.7642 C   0  0  0  0  0  0  0  0  0  0  0  0
    5.3122  -19.2670   10.8450 C   0  0  0  0  0  0  0  0  0  0  0  0
    4.3143  -19.5187   11.7277 N   0  0  0  0  0  0  0  0  0  0  0  0
    0.6320  -18.9111   11.8879 C   0  0  0  0  0  0  0  0  0  0  0  0
   -0.3868  -20.0410   12.8015 C   0  0  0  0  0  0  0  0  0  0  0  0
   -3.5086  -23.8434   13.6845 H   0  0  0  0  0  0  0  0  0  0  0  0
   -3.4927  -22.5085   12.9988 H   0  0  0  0  0  0  0  0  0  0  0  0
   -3.8933  -23.1614   15.1781 H   0  0  0  0  0  0  0  0  0  0  0  0
   -3.3964  -21.7428   17.9534 H   0  0  0  0  0  0  0  0  0  0  0  0
   -2.9523  -23.1121   17.7561 H   0  0  0  0  0  0  0  0  0  0  0  0
   -5.6748  -22.9109   21.3576 H   0  0  0  0  0  0  0  0  0  0  0  0
   -5.6951  -20.5818   22.8454 H   0  0  0  0  0  0  0  0  0  0  0  0
   -4.2349  -19.1139   21.1961 H   0  0  0  0  0  0  0  0  0  0  0  0
    0.5110  -18.0735   14.3708 H   0  0  0  0  0  0  0  0  0  0  0  0
    0.9695  -19.2861   15.3040 H   0  0  0  0  0  0  0  0  0  0  0  0
    2.6324  -19.8009   14.2996 H   0  0  0  0  0  0  0  0  0  0  0  0
    2.1085  -17.4903   10.1712 H   0  0  0  0  0  0  0  0  0  0  0  0
    5.9944  -18.2394    9.0716 H   0  0  0  0  0  0  0  0  0  0  0  0
    6.2407  -19.7930   11.0367 H   0  0  0  0  0  0  0  0  0  0  0  0
    0.3418  -17.8706   11.7574 H   0  0  0  0  0  0  0  0  0  0  0  0
    0.6994  -19.3019   10.8595 H   0  0  0  0  0  0  0  0  0  0  0  0
    0.0990  -20.6606   12.0637 H   0  0  0  0  0  0  0  0  0  0  0  0
    0.2658  -20.6422   13.4465 H   0  0  0  0  0  0  0  0  0  0  0  0
  1  2  1  0
  2  3  1  0
  3  4  1  0
  4  5  1  0
  5  6  2  0
  6  7  1  0
  7  8  1  0
  2  9  1  0
  9 10  2  0
  9 11  1  0
 11 12  1  0
 12 13  1  0
 13 14  2  0
 14 15  1  0
 15 16  2  0
 16 17  1  0
 17 18  2  0
 18 19  1  0
 19 20  2  0
 14 21  1  0
 21 22  1  0
  8  4  2  0
 22 11  1  0
 20 15  1  0
  1 23  1  0
  1 24  1  0
  2 25  1  0
  3 26  1  0
  3 27  1  0
  5 28  1  0
  6 29  1  0
  7 30  1  0
 12 31  1  0
 12 32  1  0
 13 33  1  0
 16 34  1  0
 18 35  1  0
 19 36  1  0
 21 37  1  0
 21 38  1  0
 22 39  1  0
 22 40  1  0
M  END
>  <Energy>  (1741) 
1792.9545110083918

>  <compound_id>  (1741) 
36161

>  <target_id>  (1741) 
1

>  <reference_id>  (1741) 
85

>  <inspiration_ids>  (1741) 
[85, 96]

>  <energy_score>  (1741) 
1637.8431411448998

>  <distance_score>  (1741) 
7.802309476832825

>  <path>  (1741) 
/opt/xchem-fragalysis-2/maxwin/BulkDock/SCRATCH/511013/C36161-P85/C36161-P85.minimised.mol

>  <scratch_subdir>  (1741) 
/opt/xchem-fragalysis-2/maxwin/BulkDock/SCRATCH/511013/C36161-P85

>  <fragmenstein_runtime>  (1741) 
10.198989391326904

>  <fragmenstein_outcome>  (1741) 
too moved

>  <fragmenstein_mode>  (1741) 
expansion

>  <fragmenstein_error>  (1741) 


$$$$
C36161-P96
     RDKit          3D

 40 42  0  0  0  0  0  0  0  0999 V2000
   -5.1261  -22.1338   16.8093 N   0  0  0  0  0  0  0  0  0  0  0  0
   -3.8832  -21.8681   17.5944 C   0  0  0  0  0  0  0  0  0  0  0  0
   -4.1970  -19.9888   18.4425 C   0  0  0  0  0  0  0  0  0  0  0  0
   -5.4302  -19.4361   19.3827 C   0  0  0  0  0  0  0  0  0  0  0  0
   -5.4296  -19.3346   20.8149 C   0  0  0  0  0  0  0  0  0  0  0  0
   -6.6362  -18.7779   21.1591 C   0  0  0  0  0  0  0  0  0  0  0  0
   -7.2514  -18.5007   19.9757 N   0  0  0  0  0  0  0  0  0  0  0  0
   -6.5478  -18.8851   18.8915 N   0  0  0  0  0  0  0  0  0  0  0  0
   -2.8838  -21.7791   16.1871 C   0  0  0  0  0  0  0  0  0  0  0  0
   -1.8562  -22.4332   16.3970 O   0  0  0  0  0  0  0  0  0  0  0  0
   -2.8918  -20.6893   14.3585 N   0  0  0  0  0  0  0  0  0  0  0  0
   -1.5504  -20.4139   13.0378 C   0  0  0  0  0  0  0  0  0  0  0  0
   -0.5741  -19.6043   11.8038 C   0  0  0  0  0  0  0  0  0  0  0  0
    0.3225  -18.7508   12.2029 C   0  0  0  0  0  0  0  0  0  0  0  0
    1.4319  -18.4493   11.2631 C   0  0  0  0  0  0  0  0  0  0  0  0
    1.1530  -18.0477    9.9416 C   0  0  0  0  0  0  0  0  0  0  0  0
    2.0931  -17.8917    8.9669 N   0  0  0  0  0  0  0  0  0  0  0  0
    3.3401  -18.2139    9.3556 C   0  0  0  0  0  0  0  0  0  0  0  0
    3.6365  -18.6169   10.6504 C   0  0  0  0  0  0  0  0  0  0  0  0
    2.7059  -18.7280   11.6262 N   0  0  0  0  0  0  0  0  0  0  0  0
   -0.1321  -18.5190   13.7068 C   0  0  0  0  0  0  0  0  0  0  0  0
   -2.1767  -18.7991   14.2796 C   0  0  0  0  0  0  0  0  0  0  0  0
   -5.8025  -21.4035   17.1179 H   0  0  0  0  0  0  0  0  0  0  0  0
   -5.6806  -22.9165   17.1413 H   0  0  0  0  0  0  0  0  0  0  0  0
   -3.4966  -22.0091   18.6188 H   0  0  0  0  0  0  0  0  0  0  0  0
   -3.9487  -19.1171   17.8287 H   0  0  0  0  0  0  0  0  0  0  0  0
   -3.6167  -20.0788   19.3846 H   0  0  0  0  0  0  0  0  0  0  0  0
   -4.6318  -19.5993   21.4874 H   0  0  0  0  0  0  0  0  0  0  0  0
   -7.0730  -18.5028   22.1073 H   0  0  0  0  0  0  0  0  0  0  0  0
   -8.1414  -18.0382   19.8208 H   0  0  0  0  0  0  0  0  0  0  0  0
   -0.4903  -20.5735   13.3677 H   0  0  0  0  0  0  0  0  0  0  0  0
   -1.8373  -19.4883   12.8034 H   0  0  0  0  0  0  0  0  0  0  0  0
   -0.3108  -20.0430   10.8422 H   0  0  0  0  0  0  0  0  0  0  0  0
    0.1334  -17.8439    9.6267 H   0  0  0  0  0  0  0  0  0  0  0  0
    4.1085  -18.1464    8.5957 H   0  0  0  0  0  0  0  0  0  0  0  0
    4.6471  -18.8759   10.9455 H   0  0  0  0  0  0  0  0  0  0  0  0
    0.7070  -19.2879   13.9643 H   0  0  0  0  0  0  0  0  0  0  0  0
    0.4158  -18.0271   14.5333 H   0  0  0  0  0  0  0  0  0  0  0  0
   -2.2385  -18.3718   15.1831 H   0  0  0  0  0  0  0  0  0  0  0  0
   -2.8769  -18.1637   13.7415 H   0  0  0  0  0  0  0  0  0  0  0  0
  1  2  1  0
  2  3  1  0
  3  4  1  0
  4  5  1  0
  5  6  2  0
  6  7  1  0
  7  8  1  0
  2  9  1  0
  9 10  2  0
  9 11  1  0
 11 12  1  0
 12 13  1  0
 13 14  2  0
 14 15  1  0
 15 16  2  0
 16 17  1  0
 17 18  2  0
 18 19  1  0
 19 20  2  0
 14 21  1  0
 21 22  1  0
  8  4  2  0
 22 11  1  0
 20 15  1  0
  1 23  1  0
  1 24  1  0
  2 25  1  0
  3 26  1  0
  3 27  1  0
  5 28  1  0
  6 29  1  0
  7 30  1  0
 12 31  1  0
 12 32  1  0
 13 33  1  0
 16 34  1  0
 18 35  1  0
 19 36  1  0
 21 37  1  0
 21 38  1  0
 22 39  1  0
 22 40  1  0
M  END
>  <Energy>  (1742) 
1065.0261106509531

>  <compound_id>  (1742) 
36161

>  <target_id>  (1742) 
1

>  <reference_id>  (1742) 
96

>  <inspiration_ids>  (1742) 
[85, 96]

>  <energy_score>  (1742) 
909.9147407874116

>  <distance_score>  (1742) 
8.116832890442929

>  <path>  (1742) 
/opt/xchem-fragalysis-2/maxwin/BulkDock/SCRATCH/511013/C36161-P96/C36161-P96.minimised.mol

>  <scratch_subdir>  (1742) 
/opt/xchem-fragalysis-2/maxwin/BulkDock/SCRATCH/511013/C36161-P96

>  <fragmenstein_runtime>  (1742) 
12.644810438156128

>  <fragmenstein_outcome>  (1742) 
too moved

>  <fragmenstein_mode>  (1742) 
expansion

>  <fragmenstein_error>  (1742) 


$$$$
C36165-P85
     RDKit          3D

 43 45  0  0  0  0  0  0  0  0999 V2000
   -0.8464  -18.6545   15.7304 O   0  0  0  0  0  0  0  0  0  0  0  0
   -0.6211  -18.9215   16.8995 C   0  0  0  0  0  0  0  0  0  0  0  0
   -1.4646  -19.2433   17.8859 N   0  0  0  0  0  0  0  0  0  0  0  0
   -3.5564  -19.6678   17.8780 C   0  0  0  0  0  0  0  0  0  0  0  0
   -3.5419  -21.8538   18.4671 C   0  0  0  0  0  0  0  0  0  0  0  0
   -2.8975  -23.1219   18.9322 C   0  0  0  0  0  0  0  0  0  0  0  0
   -1.5973  -23.3653   19.7327 C   0  0  0  0  0  0  0  0  0  0  0  0
   -1.9619  -23.4615   21.1514 N   0  0  0  0  0  0  0  0  0  0  0  0
   -2.7790  -22.3088   21.5108 C   0  0  0  0  0  0  0  0  0  0  0  0
   -3.8409  -21.9367   20.4009 C   0  0  0  0  0  0  0  0  0  0  0  0
    1.2979  -19.1425   17.5736 C   0  0  0  0  0  0  0  0  0  0  0  0
    2.1189  -17.8407   18.0584 C   0  0  0  0  0  0  0  0  0  0  0  0
    2.9346  -16.9777   17.2610 C   0  0  0  0  0  0  0  0  0  0  0  0
    3.4071  -16.0298   18.1233 C   0  0  0  0  0  0  0  0  0  0  0  0
    2.9015  -16.3633   19.3401 N   0  0  0  0  0  0  0  0  0  0  0  0
    2.0656  -17.4194   19.3242 N   0  0  0  0  0  0  0  0  0  0  0  0
    1.6375  -20.3267   18.5121 C   0  0  0  0  0  0  0  0  0  0  0  0
    3.1151  -20.7782   18.4721 C   0  0  0  0  0  0  0  0  0  0  0  0
    3.9790  -19.9479   17.7123 O   0  0  0  0  0  0  0  0  0  0  0  0
    3.6016  -19.8889   16.3485 C   0  0  0  0  0  0  0  0  0  0  0  0
    2.1019  -19.6993   16.2161 C   0  0  0  0  0  0  0  0  0  0  0  0
   -0.9770  -19.4575   18.6210 H   0  0  0  0  0  0  0  0  0  0  0  0
   -3.9850  -19.0258   17.0512 H   0  0  0  0  0  0  0  0  0  0  0  0
   -4.4000  -19.2167   18.5668 H   0  0  0  0  0  0  0  0  0  0  0  0
   -3.4871  -23.9603   19.2946 H   0  0  0  0  0  0  0  0  0  0  0  0
   -1.1489  -24.3083   19.4005 H   0  0  0  0  0  0  0  0  0  0  0  0
   -0.8272  -22.5988   19.6184 H   0  0  0  0  0  0  0  0  0  0  0  0
   -2.4876  -24.3232   21.2987 H   0  0  0  0  0  0  0  0  0  0  0  0
   -2.1329  -21.4676   21.7787 H   0  0  0  0  0  0  0  0  0  0  0  0
   -3.3215  -22.5438   22.4356 H   0  0  0  0  0  0  0  0  0  0  0  0
   -4.5153  -22.7957   20.5311 H   0  0  0  0  0  0  0  0  0  0  0  0
   -4.3731  -21.0307   20.7485 H   0  0  0  0  0  0  0  0  0  0  0  0
    3.1419  -17.0472   16.2018 H   0  0  0  0  0  0  0  0  0  0  0  0
    4.0685  -15.1870   17.9856 H   0  0  0  0  0  0  0  0  0  0  0  0
    3.0730  -15.9034   20.2273 H   0  0  0  0  0  0  0  0  0  0  0  0
    1.3820  -20.1095   19.5545 H   0  0  0  0  0  0  0  0  0  0  0  0
    1.0583  -21.2175   18.2506 H   0  0  0  0  0  0  0  0  0  0  0  0
    3.5066  -20.8038   19.4952 H   0  0  0  0  0  0  0  0  0  0  0  0
    3.1863  -21.8061   18.0938 H   0  0  0  0  0  0  0  0  0  0  0  0
    3.9207  -20.8099   15.8460 H   0  0  0  0  0  0  0  0  0  0  0  0
    4.1573  -19.0738   15.8761 H   0  0  0  0  0  0  0  0  0  0  0  0
    1.9237  -19.1215   15.3048 H   0  0  0  0  0  0  0  0  0  0  0  0
    1.7072  -20.7020   16.0071 H   0  0  0  0  0  0  0  0  0  0  0  0
  1  2  2  0
  2  3  1  0
  3  4  1  0
  4  5  1  0
  5  6  2  0
  6  7  1  0
  7  8  1  0
  8  9  1  0
  9 10  1  0
  2 11  1  0
 11 12  1  0
 12 13  1  0
 13 14  2  0
 14 15  1  0
 15 16  1  0
 11 17  1  0
 17 18  1  0
 18 19  1  0
 19 20  1  0
 20 21  1  0
 10  5  1  0
 21 11  1  0
 16 12  2  0
  3 22  1  0
  4 23  1  0
  4 24  1  0
  6 25  1  0
  7 26  1  0
  7 27  1  0
  8 28  1  0
  9 29  1  0
  9 30  1  0
 10 31  1  0
 10 32  1  0
 13 33  1  0
 14 34  1  0
 15 35  1  0
 17 36  1  0
 17 37  1  0
 18 38  1  0
 18 39  1  0
 20 40  1  0
 20 41  1  0
 21 42  1  0
 21 43  1  0
M  END
>  <Energy>  (1743) 
582.32305538171795

>  <compound_id>  (1743) 
36165

>  <target_id>  (1743) 
1

>  <reference_id>  (1743) 
85

>  <inspiration_ids>  (1743) 
[85, 96]

>  <energy_score>  (1743) 
512.3909035614683

>  <distance_score>  (1743) 
11.31135861130882

>  <path>  (1743) 
/opt/xchem-fragalysis-2/maxwin/BulkDock/SCRATCH/511013/C36165-P85/C36165-P85.minimised.mol

>  <scratch_subdir>  (1743) 
/opt/xchem-fragalysis-2/maxwin/BulkDock/SCRATCH/511013/C36165-P85

>  <fragmenstein_runtime>  (1743) 
15.92414903640747

>  <fragmenstein_outcome>  (1743) 
too moved

>  <fragmenstein_mode>  (1743) 
expansion

>  <fragmenstein_error>  (1743) 


$$$$
C36165-P96
     RDKit          3D

 43 45  0  0  0  0  0  0  0  0999 V2000
   -2.6333  -20.5086   13.1469 O   0  0  0  0  0  0  0  0  0  0  0  0
   -1.9358  -19.5775   13.3696 C   0  0  0  0  0  0  0  0  0  0  0  0
   -2.3413  -18.3769   14.4366 N   0  0  0  0  0  0  0  0  0  0  0  0
   -3.9132  -18.0917   15.5921 C   0  0  0  0  0  0  0  0  0  0  0  0
   -3.9793  -17.8825   17.4454 C   0  0  0  0  0  0  0  0  0  0  0  0
   -5.0676  -18.2998   18.1568 C   0  0  0  0  0  0  0  0  0  0  0  0
   -5.3084  -18.2871   19.6424 C   0  0  0  0  0  0  0  0  0  0  0  0
   -4.0707  -18.2413   20.3928 N   0  0  0  0  0  0  0  0  0  0  0  0
   -3.3048  -17.1043   19.8947 C   0  0  0  0  0  0  0  0  0  0  0  0
   -2.9607  -17.2014   18.3742 C   0  0  0  0  0  0  0  0  0  0  0  0
   -0.0120  -19.2868   12.6280 C   0  0  0  0  0  0  0  0  0  0  0  0
   -0.0185  -18.5475   11.0775 C   0  0  0  0  0  0  0  0  0  0  0  0
   -0.1856  -17.2433   10.5337 C   0  0  0  0  0  0  0  0  0  0  0  0
    0.0915  -17.3056    9.1853 C   0  0  0  0  0  0  0  0  0  0  0  0
    0.3397  -18.6013    8.9322 N   0  0  0  0  0  0  0  0  0  0  0  0
    0.2696  -19.3534   10.0181 N   0  0  0  0  0  0  0  0  0  0  0  0
    1.5650  -20.0552   11.9948 C   0  0  0  0  0  0  0  0  0  0  0  0
    2.7470  -19.1333   11.5816 C   0  0  0  0  0  0  0  0  0  0  0  0
    3.1705  -18.2591   12.5884 O   0  0  0  0  0  0  0  0  0  0  0  0
    2.6929  -18.7359   13.8221 C   0  0  0  0  0  0  0  0  0  0  0  0
    1.1671  -19.0619   13.9400 C   0  0  0  0  0  0  0  0  0  0  0  0
   -1.7131  -17.7385   14.3920 H   0  0  0  0  0  0  0  0  0  0  0  0
   -4.7811  -18.6348   15.8042 H   0  0  0  0  0  0  0  0  0  0  0  0
   -4.4143  -17.1999   15.1306 H   0  0  0  0  0  0  0  0  0  0  0  0
   -5.9234  -18.7041   17.6646 H   0  0  0  0  0  0  0  0  0  0  0  0
   -5.9686  -17.4527   19.9049 H   0  0  0  0  0  0  0  0  0  0  0  0
   -5.8415  -19.2005   19.9258 H   0  0  0  0  0  0  0  0  0  0  0  0
   -4.2800  -18.0973   21.3802 H   0  0  0  0  0  0  0  0  0  0  0  0
   -3.8658  -16.1786   20.0780 H   0  0  0  0  0  0  0  0  0  0  0  0
   -2.3777  -16.9903   20.4656 H   0  0  0  0  0  0  0  0  0  0  0  0
   -2.0029  -17.6987   18.2580 H   0  0  0  0  0  0  0  0  0  0  0  0
   -2.8470  -16.1549   18.0788 H   0  0  0  0  0  0  0  0  0  0  0  0
   -0.4371  -16.3155   11.0121 H   0  0  0  0  0  0  0  0  0  0  0  0
    0.1159  -16.5704    8.4037 H   0  0  0  0  0  0  0  0  0  0  0  0
    0.5023  -19.0600    8.0434 H   0  0  0  0  0  0  0  0  0  0  0  0
    1.5064  -20.6301   11.0590 H   0  0  0  0  0  0  0  0  0  0  0  0
    1.9574  -20.7856   12.7279 H   0  0  0  0  0  0  0  0  0  0  0  0
    3.6012  -19.7775   11.3343 H   0  0  0  0  0  0  0  0  0  0  0  0
    2.5708  -18.5422   10.6815 H   0  0  0  0  0  0  0  0  0  0  0  0
    3.3004  -19.5961   14.1354 H   0  0  0  0  0  0  0  0  0  0  0  0
    2.9025  -17.9569   14.5370 H   0  0  0  0  0  0  0  0  0  0  0  0
    1.2259  -20.0364   14.4623 H   0  0  0  0  0  0  0  0  0  0  0  0
    0.7892  -18.4101   14.7295 H   0  0  0  0  0  0  0  0  0  0  0  0
  1  2  2  0
  2  3  1  0
  3  4  1  0
  4  5  1  0
  5  6  2  0
  6  7  1  0
  7  8  1  0
  8  9  1  0
  9 10  1  0
  2 11  1  0
 11 12  1  0
 12 13  1  0
 13 14  2  0
 14 15  1  0
 15 16  1  0
 11 17  1  0
 17 18  1  0
 18 19  1  0
 19 20  1  0
 20 21  1  0
 10  5  1  0
 21 11  1  0
 16 12  2  0
  3 22  1  0
  4 23  1  0
  4 24  1  0
  6 25  1  0
  7 26  1  0
  7 27  1  0
  8 28  1  0
  9 29  1  0
  9 30  1  0
 10 31  1  0
 10 32  1  0
 13 33  1  0
 14 34  1  0
 15 35  1  0
 17 36  1  0
 17 37  1  0
 18 38  1  0
 18 39  1  0
 20 40  1  0
 20 41  1  0
 21 42  1  0
 21 43  1  0
M  END
>  <Energy>  (1744) 
423.30056484441582

>  <compound_id>  (1744) 
36165

>  <target_id>  (1744) 
1

>  <reference_id>  (1744) 
96

>  <inspiration_ids>  (1744) 
[85, 96]

>  <energy_score>  (1744) 
353.3684130241504

>  <distance_score>  (1744) 
9.853664506757838

>  <path>  (1744) 
/opt/xchem-fragalysis-2/maxwin/BulkDock/SCRATCH/511013/C36165-P96/C36165-P96.minimised.mol

>  <scratch_subdir>  (1744) 
/opt/xchem-fragalysis-2/maxwin/BulkDock/SCRATCH/511013/C36165-P96

>  <fragmenstein_runtime>  (1744) 
15.273444652557373

>  <fragmenstein_outcome>  (1744) 
too moved

>  <fragmenstein_mode>  (1744) 
expansion

>  <fragmenstein_error>  (1744) 


$$$$
C36166-P85
     RDKit          3D

 47 48  0  0  0  0  0  0  0  0999 V2000
   -6.4652  -19.2840   18.8347 C   0  0  0  0  0  0  0  0  0  0  0  0
   -6.0583  -19.5309   20.2636 C   0  0  0  0  0  0  0  0  0  0  0  0
   -7.2206  -19.3368   21.2731 C   0  0  0  0  0  0  0  0  0  0  0  0
   -5.5507  -18.1214   20.4302 C   0  0  0  0  0  0  0  0  0  0  0  0
   -5.3480  -21.1212   20.1546 O   0  0  0  0  0  0  0  0  0  0  0  0
   -3.9883  -21.5573   20.1619 C   0  0  0  0  0  0  0  0  0  0  0  0
   -3.4376  -21.0345   21.0931 O   0  0  0  0  0  0  0  0  0  0  0  0
   -2.8895  -22.6482   18.8623 N   0  0  0  0  0  0  0  0  0  0  0  0
   -2.3979  -24.6614   18.8340 C   0  0  0  0  0  0  0  0  0  0  0  0
   -3.2828  -24.0445   20.3352 C   0  0  0  0  0  0  0  0  0  0  0  0
   -1.9994  -22.1819   20.5576 C   0  0  0  0  0  0  0  0  0  0  0  0
   -0.6901  -22.0518   19.9441 C   0  0  0  0  0  0  0  0  0  0  0  0
   -0.8902  -22.9256   18.7411 C   0  0  0  0  0  0  0  0  0  0  0  0
    0.1565  -22.5803   17.4279 C   0  0  0  0  0  0  0  0  0  0  0  0
    1.2759  -22.2536   17.7232 O   0  0  0  0  0  0  0  0  0  0  0  0
   -0.4484  -22.8052   16.1363 N   0  0  0  0  0  0  0  0  0  0  0  0
    0.0836  -22.6120   14.7656 C   0  0  0  0  0  0  0  0  0  0  0  0
    0.7401  -21.2275   14.4514 C   0  0  0  0  0  0  0  0  0  0  0  0
    0.9984  -20.9171   12.9984 C   0  0  0  0  0  0  0  0  0  0  0  0
    2.0073  -20.0739   12.4561 C   0  0  0  0  0  0  0  0  0  0  0  0
    1.7596  -20.0265   11.1061 C   0  0  0  0  0  0  0  0  0  0  0  0
    0.6695  -20.8220   10.9057 N   0  0  0  0  0  0  0  0  0  0  0  0
    0.1898  -21.3758   12.0353 N   0  0  0  0  0  0  0  0  0  0  0  0
   -5.5327  -19.3322   18.2685 H   0  0  0  0  0  0  0  0  0  0  0  0
   -6.9105  -18.3148   18.5992 H   0  0  0  0  0  0  0  0  0  0  0  0
   -7.2223  -19.9431   18.4532 H   0  0  0  0  0  0  0  0  0  0  0  0
   -7.0036  -19.5617   22.3196 H   0  0  0  0  0  0  0  0  0  0  0  0
   -7.6168  -18.3273   21.3812 H   0  0  0  0  0  0  0  0  0  0  0  0
   -8.0002  -19.9702   20.9172 H   0  0  0  0  0  0  0  0  0  0  0  0
   -4.6828  -17.9151   19.8614 H   0  0  0  0  0  0  0  0  0  0  0  0
   -5.5432  -17.7207   21.4449 H   0  0  0  0  0  0  0  0  0  0  0  0
   -6.3069  -17.4192   20.0729 H   0  0  0  0  0  0  0  0  0  0  0  0
   -1.5226  -25.2257   19.2378 H   0  0  0  0  0  0  0  0  0  0  0  0
   -2.1622  -24.5357   17.7821 H   0  0  0  0  0  0  0  0  0  0  0  0
   -3.0496  -25.0651   20.8906 H   0  0  0  0  0  0  0  0  0  0  0  0
   -4.3889  -24.1708   20.5671 H   0  0  0  0  0  0  0  0  0  0  0  0
   -1.7728  -21.6506   21.5683 H   0  0  0  0  0  0  0  0  0  0  0  0
    0.1292  -21.4116   20.2246 H   0  0  0  0  0  0  0  0  0  0  0  0
   -0.4273  -23.9169   18.8963 H   0  0  0  0  0  0  0  0  0  0  0  0
   -1.4509  -22.9919   16.2640 H   0  0  0  0  0  0  0  0  0  0  0  0
   -0.7621  -22.7984   14.0954 H   0  0  0  0  0  0  0  0  0  0  0  0
    0.8222  -23.4043   14.6015 H   0  0  0  0  0  0  0  0  0  0  0  0
    1.6881  -21.1705   15.0014 H   0  0  0  0  0  0  0  0  0  0  0  0
    0.1213  -20.4152   14.8423 H   0  0  0  0  0  0  0  0  0  0  0  0
    2.7839  -19.5470   12.9912 H   0  0  0  0  0  0  0  0  0  0  0  0
    2.2314  -19.4970   10.2917 H   0  0  0  0  0  0  0  0  0  0  0  0
    0.1528  -20.9608   10.0413 H   0  0  0  0  0  0  0  0  0  0  0  0
  1  2  1  0
  2  3  1  0
  2  4  1  0
  2  5  1  0
  5  6  1  0
  6  7  2  0
  6  8  1  0
  8  9  1  0
  9 10  1  0
 10 11  1  0
 11 12  2  0
 12 13  1  0
 13 14  1  0
 14 15  2  0
 14 16  1  0
 16 17  1  0
 17 18  1  0
 18 19  1  0
 19 20  1  0
 20 21  2  0
 21 22  1  0
 22 23  1  0
 13  8  1  0
 23 19  2  0
  1 24  1  0
  1 25  1  0
  1 26  1  0
  3 27  1  0
  3 28  1  0
  3 29  1  0
  4 30  1  0
  4 31  1  0
  4 32  1  0
  9 33  1  0
  9 34  1  0
 10 35  1  0
 10 36  1  0
 11 37  1  0
 12 38  1  0
 13 39  1  0
 16 40  1  0
 17 41  1  0
 17 42  1  0
 18 43  1  0
 18 44  1  0
 20 45  1  0
 21 46  1  0
 22 47  1  0
M  END
>  <Energy>  (1745) 
1052.171528999151

>  <compound_id>  (1745) 
36166

>  <target_id>  (1745) 
1

>  <reference_id>  (1745) 
85

>  <inspiration_ids>  (1745) 
[85, 96]

>  <energy_score>  (1745) 
997.738079357147

>  <distance_score>  (1745) 
11.946753142717528

>  <path>  (1745) 
/opt/xchem-fragalysis-2/maxwin/BulkDock/SCRATCH/511013/C36166-P85/C36166-P85.minimised.mol

>  <scratch_subdir>  (1745) 
/opt/xchem-fragalysis-2/maxwin/BulkDock/SCRATCH/511013/C36166-P85

>  <fragmenstein_runtime>  (1745) 
23.1132972240448

>  <fragmenstein_outcome>  (1745) 
too moved

>  <fragmenstein_mode>  (1745) 
expansion

>  <fragmenstein_error>  (1745) 


$$$$
C36166-P96
     RDKit          3D

 47 48  0  0  0  0  0  0  0  0999 V2000
  -11.2502  -22.8870   25.3144 C   0  0  0  0  0  0  0  0  0  0  0  0
  -12.0660  -22.2839   24.1300 C   0  0  0  0  0  0  0  0  0  0  0  0
  -12.6578  -20.9526   24.3499 C   0  0  0  0  0  0  0  0  0  0  0  0
  -13.3677  -23.1503   24.1628 C   0  0  0  0  0  0  0  0  0  0  0  0
  -11.1786  -21.9860   22.8205 O   0  0  0  0  0  0  0  0  0  0  0  0
  -10.1993  -20.9113   23.0475 C   0  0  0  0  0  0  0  0  0  0  0  0
  -10.6382  -20.0758   23.7598 O   0  0  0  0  0  0  0  0  0  0  0  0
   -8.8869  -21.0615   22.5079 N   0  0  0  0  0  0  0  0  0  0  0  0
   -8.0919  -21.8852   23.4025 C   0  0  0  0  0  0  0  0  0  0  0  0
   -6.8924  -22.7975   23.5912 C   0  0  0  0  0  0  0  0  0  0  0  0
   -5.7470  -22.0644   23.3414 C   0  0  0  0  0  0  0  0  0  0  0  0
   -5.9600  -20.7410   22.9392 C   0  0  0  0  0  0  0  0  0  0  0  0
   -7.3016  -19.8502   22.6041 C   0  0  0  0  0  0  0  0  0  0  0  0
   -7.3498  -18.3892   21.3965 C   0  0  0  0  0  0  0  0  0  0  0  0
   -8.1559  -17.5593   21.7000 O   0  0  0  0  0  0  0  0  0  0  0  0
   -6.4371  -18.4627   20.2112 N   0  0  0  0  0  0  0  0  0  0  0  0
   -6.1833  -17.4732   19.0987 C   0  0  0  0  0  0  0  0  0  0  0  0
   -5.0776  -17.7767   18.0451 C   0  0  0  0  0  0  0  0  0  0  0  0
   -4.8349  -16.7277   16.9767 C   0  0  0  0  0  0  0  0  0  0  0  0
   -3.5940  -16.2899   16.4230 C   0  0  0  0  0  0  0  0  0  0  0  0
   -3.9269  -15.4052   15.4236 C   0  0  0  0  0  0  0  0  0  0  0  0
   -5.2890  -15.3422   15.4361 N   0  0  0  0  0  0  0  0  0  0  0  0
   -5.8631  -16.1287   16.3610 N   0  0  0  0  0  0  0  0  0  0  0  0
  -10.2602  -23.2132   25.0152 H   0  0  0  0  0  0  0  0  0  0  0  0
  -11.2174  -22.2310   26.1869 H   0  0  0  0  0  0  0  0  0  0  0  0
  -11.6794  -23.7938   25.7566 H   0  0  0  0  0  0  0  0  0  0  0  0
  -13.7095  -20.9054   24.6355 H   0  0  0  0  0  0  0  0  0  0  0  0
  -12.5585  -20.4515   23.4150 H   0  0  0  0  0  0  0  0  0  0  0  0
  -12.0564  -20.3679   25.0268 H   0  0  0  0  0  0  0  0  0  0  0  0
  -14.3083  -22.6190   24.3543 H   0  0  0  0  0  0  0  0  0  0  0  0
  -13.4174  -23.8810   24.9804 H   0  0  0  0  0  0  0  0  0  0  0  0
  -13.4914  -23.6900   23.2524 H   0  0  0  0  0  0  0  0  0  0  0  0
   -8.8774  -22.3112   24.0054 H   0  0  0  0  0  0  0  0  0  0  0  0
   -8.5337  -22.7465   22.9070 H   0  0  0  0  0  0  0  0  0  0  0  0
   -6.5909  -23.5414   22.8559 H   0  0  0  0  0  0  0  0  0  0  0  0
   -6.8480  -23.1376   24.6074 H   0  0  0  0  0  0  0  0  0  0  0  0
   -4.9329  -22.5746   23.8428 H   0  0  0  0  0  0  0  0  0  0  0  0
   -5.2801  -20.1043   23.4357 H   0  0  0  0  0  0  0  0  0  0  0  0
   -6.5256  -19.8325   21.8054 H   0  0  0  0  0  0  0  0  0  0  0  0
   -5.8239  -19.2644   20.3118 H   0  0  0  0  0  0  0  0  0  0  0  0
   -5.9402  -16.5241   19.5783 H   0  0  0  0  0  0  0  0  0  0  0  0
   -7.1298  -17.2880   18.5953 H   0  0  0  0  0  0  0  0  0  0  0  0
   -4.1320  -17.9998   18.5499 H   0  0  0  0  0  0  0  0  0  0  0  0
   -5.3919  -18.6890   17.5529 H   0  0  0  0  0  0  0  0  0  0  0  0
   -2.6001  -16.6002   16.7149 H   0  0  0  0  0  0  0  0  0  0  0  0
   -3.3350  -14.8281   14.7297 H   0  0  0  0  0  0  0  0  0  0  0  0
   -5.8959  -14.7904   14.8399 H   0  0  0  0  0  0  0  0  0  0  0  0
  1  2  1  0
  2  3  1  0
  2  4  1  0
  2  5  1  0
  5  6  1  0
  6  7  2  0
  6  8  1  0
  8  9  1  0
  9 10  1  0
 10 11  1  0
 11 12  2  0
 12 13  1  0
 13 14  1  0
 14 15  2  0
 14 16  1  0
 16 17  1  0
 17 18  1  0
 18 19  1  0
 19 20  1  0
 20 21  2  0
 21 22  1  0
 22 23  1  0
 13  8  1  0
 23 19  2  0
  1 24  1  0
  1 25  1  0
  1 26  1  0
  3 27  1  0
  3 28  1  0
  3 29  1  0
  4 30  1  0
  4 31  1  0
  4 32  1  0
  9 33  1  0
  9 34  1  0
 10 35  1  0
 10 36  1  0
 11 37  1  0
 12 38  1  0
 13 39  1  0
 16 40  1  0
 17 41  1  0
 17 42  1  0
 18 43  1  0
 18 44  1  0
 20 45  1  0
 21 46  1  0
 22 47  1  0
M  END
>  <Energy>  (1746) 
457.82497629954469

>  <compound_id>  (1746) 
36166

>  <target_id>  (1746) 
1

>  <reference_id>  (1746) 
96

>  <inspiration_ids>  (1746) 
[85, 96]

>  <energy_score>  (1746) 
403.39152665754494

>  <distance_score>  (1746) 
12.319713804810174

>  <path>  (1746) 
/opt/xchem-fragalysis-2/maxwin/BulkDock/SCRATCH/511013/C36166-P96/C36166-P96.minimised.mol

>  <scratch_subdir>  (1746) 
/opt/xchem-fragalysis-2/maxwin/BulkDock/SCRATCH/511013/C36166-P96

>  <fragmenstein_runtime>  (1746) 
21.69028353691101

>  <fragmenstein_outcome>  (1746) 
too moved

>  <fragmenstein_mode>  (1746) 
expansion

>  <fragmenstein_error>  (1746) 


$$$$
C12899-P85
     RDKit          3D

 39 41  0  0  0  0  0  0  0  0999 V2000
    0.8769  -20.2802   19.8918 O   0  0  0  0  0  0  0  0  0  0  0  0
    0.6832  -21.3932   19.4806 C   0  0  0  0  0  0  0  0  0  0  0  0
   -0.9713  -22.0771   19.8763 C   0  0  0  0  0  0  0  0  0  0  0  0
   -3.0359  -22.4125   19.8489 C   0  0  0  0  0  0  0  0  0  0  0  0
   -3.6206  -24.3800   20.5018 C   0  0  0  0  0  0  0  0  0  0  0  0
   -4.6532  -24.9097   21.5520 C   0  0  0  0  0  0  0  0  0  0  0  0
   -4.1510  -26.0570   22.2416 C   0  0  0  0  0  0  0  0  0  0  0  0
   -3.0054  -26.5118   21.7711 N   0  0  0  0  0  0  0  0  0  0  0  0
   -2.6235  -25.6453   20.8018 N   0  0  0  0  0  0  0  0  0  0  0  0
    1.5751  -22.2998   18.7240 N   0  0  0  0  0  0  0  0  0  0  0  0
    3.1227  -22.1427   18.3114 C   0  0  0  0  0  0  0  0  0  0  0  0
    3.8511  -21.3163   17.2325 C   0  0  0  0  0  0  0  0  0  0  0  0
    3.2245  -20.6801   16.2419 C   0  0  0  0  0  0  0  0  0  0  0  0
    3.7532  -20.0452   14.9798 C   0  0  0  0  0  0  0  0  0  0  0  0
    2.9435  -19.8418   13.8437 C   0  0  0  0  0  0  0  0  0  0  0  0
    3.4618  -19.3741   12.6307 C   0  0  0  0  0  0  0  0  0  0  0  0
    4.8006  -19.0703   12.5746 C   0  0  0  0  0  0  0  0  0  0  0  0
    5.6294  -19.1886   13.6318 N   0  0  0  0  0  0  0  0  0  0  0  0
    5.0831  -19.6658   14.7942 C   0  0  0  0  0  0  0  0  0  0  0  0
    1.7843  -20.8680   16.4440 C   0  0  0  0  0  0  0  0  0  0  0  0
    1.3955  -22.1100   17.2625 C   0  0  0  0  0  0  0  0  0  0  0  0
   -0.7400  -22.0344   20.9549 H   0  0  0  0  0  0  0  0  0  0  0  0
   -0.6264  -22.8931   19.1868 H   0  0  0  0  0  0  0  0  0  0  0  0
   -3.4051  -22.3600   18.8233 H   0  0  0  0  0  0  0  0  0  0  0  0
   -3.5270  -21.5616   20.4194 H   0  0  0  0  0  0  0  0  0  0  0  0
   -5.5102  -24.3802   21.9048 H   0  0  0  0  0  0  0  0  0  0  0  0
   -4.5692  -26.5648   23.0916 H   0  0  0  0  0  0  0  0  0  0  0  0
   -1.6724  -25.6523   20.4443 H   0  0  0  0  0  0  0  0  0  0  0  0
    3.4880  -23.1729   18.1940 H   0  0  0  0  0  0  0  0  0  0  0  0
    3.5433  -21.7078   19.2279 H   0  0  0  0  0  0  0  0  0  0  0  0
    4.9364  -21.3695   17.2542 H   0  0  0  0  0  0  0  0  0  0  0  0
    1.8760  -20.0403   13.8540 H   0  0  0  0  0  0  0  0  0  0  0  0
    2.8135  -19.2365   11.7726 H   0  0  0  0  0  0  0  0  0  0  0  0
    5.2529  -18.7272   11.6523 H   0  0  0  0  0  0  0  0  0  0  0  0
    5.8015  -19.7492   15.6048 H   0  0  0  0  0  0  0  0  0  0  0  0
    1.3408  -19.9679   16.8671 H   0  0  0  0  0  0  0  0  0  0  0  0
    1.4392  -21.1251   15.4554 H   0  0  0  0  0  0  0  0  0  0  0  0
    1.7551  -23.0260   16.7545 H   0  0  0  0  0  0  0  0  0  0  0  0
    0.3181  -22.2296   17.1384 H   0  0  0  0  0  0  0  0  0  0  0  0
  1  2  2  0
  2  3  1  0
  3  4  1  0
  4  5  1  0
  5  6  2  0
  6  7  1  0
  7  8  2  0
  8  9  1  0
  2 10  1  0
 10 11  1  0
 11 12  1  0
 12 13  2  0
 13 14  1  0
 14 15  2  0
 15 16  1  0
 16 17  2  0
 17 18  1  0
 18 19  2  0
 13 20  1  0
 20 21  1  0
  9  5  1  0
 21 10  1  0
 19 14  1  0
  3 22  1  0
  3 23  1  0
  4 24  1  0
  4 25  1  0
  6 26  1  0
  7 27  1  0
  9 28  1  0
 11 29  1  0
 11 30  1  0
 12 31  1  0
 15 32  1  0
 16 33  1  0
 17 34  1  0
 19 35  1  0
 20 36  1  0
 20 37  1  0
 21 38  1  0
 21 39  1  0
M  END
>  <Energy>  (1747) 
440.10016498278179

>  <compound_id>  (1747) 
12899

>  <target_id>  (1747) 
1

>  <reference_id>  (1747) 
85

>  <inspiration_ids>  (1747) 
[85, 96]

>  <energy_score>  (1747) 
380.5787242674431

>  <distance_score>  (1747) 
9.474527446450299

>  <path>  (1747) 
/opt/xchem-fragalysis-2/maxwin/BulkDock/SCRATCH/511013/C12899-P85/C12899-P85.minimised.mol

>  <scratch_subdir>  (1747) 
/opt/xchem-fragalysis-2/maxwin/BulkDock/SCRATCH/511013/C12899-P85

>  <fragmenstein_runtime>  (1747) 
12.34152865409851

>  <fragmenstein_outcome>  (1747) 
too moved

>  <fragmenstein_mode>  (1747) 
expansion

>  <fragmenstein_error>  (1747) 


$$$$
C12899-P96
     RDKit          3D

 39 41  0  0  0  0  0  0  0  0999 V2000
   -3.8082  -20.3495   17.6540 O   0  0  0  0  0  0  0  0  0  0  0  0
   -3.7912  -21.6744   17.5972 C   0  0  0  0  0  0  0  0  0  0  0  0
   -3.7172  -22.2183   19.4175 C   0  0  0  0  0  0  0  0  0  0  0  0
   -4.4941  -23.2169   21.0224 C   0  0  0  0  0  0  0  0  0  0  0  0
   -4.0932  -24.0969   22.3978 C   0  0  0  0  0  0  0  0  0  0  0  0
   -5.2086  -24.6191   23.0126 C   0  0  0  0  0  0  0  0  0  0  0  0
   -5.7608  -23.5086   23.6725 C   0  0  0  0  0  0  0  0  0  0  0  0
   -4.7170  -23.0802   24.3494 N   0  0  0  0  0  0  0  0  0  0  0  0
   -3.7691  -23.8595   23.7213 N   0  0  0  0  0  0  0  0  0  0  0  0
   -4.0643  -22.2802   15.5728 N   0  0  0  0  0  0  0  0  0  0  0  0
   -4.1608  -21.3086   13.8231 C   0  0  0  0  0  0  0  0  0  0  0  0
   -2.2105  -20.6068   13.4141 C   0  0  0  0  0  0  0  0  0  0  0  0
   -1.3626  -19.7349   12.5308 C   0  0  0  0  0  0  0  0  0  0  0  0
    0.1440  -19.3636   12.2157 C   0  0  0  0  0  0  0  0  0  0  0  0
    0.3641  -18.6879   10.9856 C   0  0  0  0  0  0  0  0  0  0  0  0
    1.6396  -18.4349   10.4679 C   0  0  0  0  0  0  0  0  0  0  0  0
    2.7273  -18.8130   11.2203 C   0  0  0  0  0  0  0  0  0  0  0  0
    2.6225  -19.4025   12.4239 N   0  0  0  0  0  0  0  0  0  0  0  0
    1.3488  -19.6401   12.8911 C   0  0  0  0  0  0  0  0  0  0  0  0
   -2.6694  -20.5676   13.3361 C   0  0  0  0  0  0  0  0  0  0  0  0
   -2.9221  -22.6440   14.0093 C   0  0  0  0  0  0  0  0  0  0  0  0
   -2.8228  -21.5550   19.5414 H   0  0  0  0  0  0  0  0  0  0  0  0
   -4.2266  -21.1404   19.7271 H   0  0  0  0  0  0  0  0  0  0  0  0
   -4.7483  -22.4242   21.6737 H   0  0  0  0  0  0  0  0  0  0  0  0
   -5.5370  -23.5050   21.0354 H   0  0  0  0  0  0  0  0  0  0  0  0
   -5.4699  -25.6232   22.7915 H   0  0  0  0  0  0  0  0  0  0  0  0
   -6.7269  -23.1547   23.9962 H   0  0  0  0  0  0  0  0  0  0  0  0
   -2.9530  -24.1816   24.2318 H   0  0  0  0  0  0  0  0  0  0  0  0
   -4.8335  -20.5766   13.1923 H   0  0  0  0  0  0  0  0  0  0  0  0
   -4.6303  -21.5247   12.6598 H   0  0  0  0  0  0  0  0  0  0  0  0
   -0.9930  -20.7536   13.5154 H   0  0  0  0  0  0  0  0  0  0  0  0
   -0.4615  -18.3144   10.3959 H   0  0  0  0  0  0  0  0  0  0  0  0
    1.7605  -17.9412    9.5130 H   0  0  0  0  0  0  0  0  0  0  0  0
    3.7409  -18.6455   10.8770 H   0  0  0  0  0  0  0  0  0  0  0  0
    1.3536  -20.1238   13.8616 H   0  0  0  0  0  0  0  0  0  0  0  0
   -2.4643  -19.1763   14.0371 H   0  0  0  0  0  0  0  0  0  0  0  0
   -3.5528  -20.7604   12.1713 H   0  0  0  0  0  0  0  0  0  0  0  0
   -3.0949  -23.3157   13.0662 H   0  0  0  0  0  0  0  0  0  0  0  0
   -3.4614  -23.5632   14.3331 H   0  0  0  0  0  0  0  0  0  0  0  0
  1  2  2  0
  2  3  1  0
  3  4  1  0
  4  5  1  0
  5  6  2  0
  6  7  1  0
  7  8  2  0
  8  9  1  0
  2 10  1  0
 10 11  1  0
 11 12  1  0
 12 13  2  0
 13 14  1  0
 14 15  2  0
 15 16  1  0
 16 17  2  0
 17 18  1  0
 18 19  2  0
 13 20  1  0
 20 21  1  0
  9  5  1  0
 21 10  1  0
 19 14  1  0
  3 22  1  0
  3 23  1  0
  4 24  1  0
  4 25  1  0
  6 26  1  0
  7 27  1  0
  9 28  1  0
 11 29  1  0
 11 30  1  0
 12 31  1  0
 15 32  1  0
 16 33  1  0
 17 34  1  0
 19 35  1  0
 20 36  1  0
 20 37  1  0
 21 38  1  0
 21 39  1  0
M  END
>  <Energy>  (1748) 
2084.3342277041993

>  <compound_id>  (1748) 
12899

>  <target_id>  (1748) 
1

>  <reference_id>  (1748) 
96

>  <inspiration_ids>  (1748) 
[85, 96]

>  <energy_score>  (1748) 
2024.812786988888

>  <distance_score>  (1748) 
7.92711105942507

>  <path>  (1748) 
/opt/xchem-fragalysis-2/maxwin/BulkDock/SCRATCH/511013/C12899-P96/C12899-P96.minimised.mol

>  <scratch_subdir>  (1748) 
/opt/xchem-fragalysis-2/maxwin/BulkDock/SCRATCH/511013/C12899-P96

>  <fragmenstein_runtime>  (1748) 
11.094359159469604

>  <fragmenstein_outcome>  (1748) 
too moved

>  <fragmenstein_mode>  (1748) 
expansion

>  <fragmenstein_error>  (1748) 


$$$$
C12908-P85
     RDKit          3D

 37 38  0  0  0  0  0  0  0  0999 V2000
    4.2318  -19.3258   10.8781 C   0  0  0  0  0  0  0  0  0  0  0  0
    3.8857  -20.7029   11.0024 O   0  0  0  0  0  0  0  0  0  0  0  0
    3.8728  -21.2130   12.3558 C   0  0  0  0  0  0  0  0  0  0  0  0
    2.6382  -20.8379   13.1273 C   0  0  0  0  0  0  0  0  0  0  0  0
    1.5663  -20.3291   12.5236 C   0  0  0  0  0  0  0  0  0  0  0  0
    1.2164  -19.0850   13.1498 C   0  0  0  0  0  0  0  0  0  0  0  0
    0.2443  -18.5777   14.2376 N   0  0  0  0  0  0  0  0  0  0  0  0
   -1.5274  -18.9648   14.6155 C   0  0  0  0  0  0  0  0  0  0  0  0
   -1.8999  -19.8432   13.9095 O   0  0  0  0  0  0  0  0  0  0  0  0
   -3.1582  -18.2360   15.7619 C   0  0  0  0  0  0  0  0  0  0  0  0
   -4.3978  -18.4592   17.1558 C   0  0  0  0  0  0  0  0  0  0  0  0
   -5.2845  -18.0696   18.5718 C   0  0  0  0  0  0  0  0  0  0  0  0
   -5.6239  -16.9242   19.2746 C   0  0  0  0  0  0  0  0  0  0  0  0
   -6.4218  -17.3645   20.3584 C   0  0  0  0  0  0  0  0  0  0  0  0
   -6.6032  -18.6858   20.3548 N   0  0  0  0  0  0  0  0  0  0  0  0
   -5.8923  -19.0820   19.2842 N   0  0  0  0  0  0  0  0  0  0  0  0
    1.5767  -19.4468   15.1490 C   0  0  0  0  0  0  0  0  0  0  0  0
    2.5542  -20.6354   14.6125 C   0  0  0  0  0  0  0  0  0  0  0  0
    4.2706  -19.0812    9.8131 H   0  0  0  0  0  0  0  0  0  0  0  0
    5.2200  -19.1451   11.3113 H   0  0  0  0  0  0  0  0  0  0  0  0
    3.4941  -18.6760   11.3503 H   0  0  0  0  0  0  0  0  0  0  0  0
    3.9300  -22.3045   12.2909 H   0  0  0  0  0  0  0  0  0  0  0  0
    4.7744  -20.8638   12.8716 H   0  0  0  0  0  0  0  0  0  0  0  0
    1.4721  -20.3829   11.4403 H   0  0  0  0  0  0  0  0  0  0  0  0
    0.8549  -18.5452   12.2554 H   0  0  0  0  0  0  0  0  0  0  0  0
    2.2321  -18.7061   13.2783 H   0  0  0  0  0  0  0  0  0  0  0  0
   -3.5420  -17.3649   15.1789 H   0  0  0  0  0  0  0  0  0  0  0  0
   -2.8147  -18.0097   16.8331 H   0  0  0  0  0  0  0  0  0  0  0  0
   -4.0353  -19.2956   17.6778 H   0  0  0  0  0  0  0  0  0  0  0  0
   -4.2110  -17.3627   17.3224 H   0  0  0  0  0  0  0  0  0  0  0  0
   -5.3330  -15.9114   19.0359 H   0  0  0  0  0  0  0  0  0  0  0  0
   -6.8783  -16.7690   21.1376 H   0  0  0  0  0  0  0  0  0  0  0  0
   -5.8267  -20.0692   19.0695 H   0  0  0  0  0  0  0  0  0  0  0  0
    2.2995  -18.6151   15.2802 H   0  0  0  0  0  0  0  0  0  0  0  0
    1.3335  -19.6832   16.2028 H   0  0  0  0  0  0  0  0  0  0  0  0
    2.2400  -21.5736   15.0815 H   0  0  0  0  0  0  0  0  0  0  0  0
    3.5550  -20.4233   15.0107 H   0  0  0  0  0  0  0  0  0  0  0  0
  1  2  1  0
  2  3  1  0
  3  4  1  0
  4  5  2  0
  5  6  1  0
  6  7  1  0
  7  8  1  0
  8  9  2  0
  8 10  1  0
 10 11  1  0
 11 12  1  0
 12 13  2  0
 13 14  1  0
 14 15  2  0
 15 16  1  0
  7 17  1  0
 17 18  1  0
 18  4  1  0
 16 12  1  0
  1 19  1  0
  1 20  1  0
  1 21  1  0
  3 22  1  0
  3 23  1  0
  5 24  1  0
  6 25  1  0
  6 26  1  0
 10 27  1  0
 10 28  1  0
 11 29  1  0
 11 30  1  0
 13 31  1  0
 14 32  1  0
 16 33  1  0
 17 34  1  0
 17 35  1  0
 18 36  1  0
 18 37  1  0
M  END
>  <Energy>  (1749) 
586.80078300666764

>  <compound_id>  (1749) 
12908

>  <target_id>  (1749) 
1

>  <reference_id>  (1749) 
85

>  <inspiration_ids>  (1749) 
[85, 96]

>  <energy_score>  (1749) 
547.3615710199238

>  <distance_score>  (1749) 
9.235220035344453

>  <path>  (1749) 
/opt/xchem-fragalysis-2/maxwin/BulkDock/SCRATCH/511013/C12908-P85/C12908-P85.minimised.mol

>  <scratch_subdir>  (1749) 
/opt/xchem-fragalysis-2/maxwin/BulkDock/SCRATCH/511013/C12908-P85

>  <fragmenstein_runtime>  (1749) 
12.927175045013428

>  <fragmenstein_outcome>  (1749) 
too moved

>  <fragmenstein_mode>  (1749) 
expansion

>  <fragmenstein_error>  (1749) 


$$$$
C12908-P96
     RDKit          3D

 37 38  0  0  0  0  0  0  0  0999 V2000
    3.4124  -19.0287   12.1686 C   0  0  0  0  0  0  0  0  0  0  0  0
    4.0194  -18.6187   13.3891 O   0  0  0  0  0  0  0  0  0  0  0  0
    4.4475  -19.6888   14.2492 C   0  0  0  0  0  0  0  0  0  0  0  0
    3.3134  -20.4278   14.9149 C   0  0  0  0  0  0  0  0  0  0  0  0
    3.1114  -21.7429   15.0149 C   0  0  0  0  0  0  0  0  0  0  0  0
    1.6532  -22.2354   14.7979 C   0  0  0  0  0  0  0  0  0  0  0  0
    0.0544  -21.7762   16.0978 N   0  0  0  0  0  0  0  0  0  0  0  0
   -1.7681  -22.4779   16.3552 C   0  0  0  0  0  0  0  0  0  0  0  0
   -2.0205  -23.3502   15.4423 O   0  0  0  0  0  0  0  0  0  0  0  0
   -3.4641  -22.3144   17.5962 C   0  0  0  0  0  0  0  0  0  0  0  0
   -3.6625  -21.9363   19.4045 C   0  0  0  0  0  0  0  0  0  0  0  0
   -4.2073  -23.2956   20.8825 C   0  0  0  0  0  0  0  0  0  0  0  0
   -3.5242  -24.0502   22.1676 C   0  0  0  0  0  0  0  0  0  0  0  0
   -4.4472  -24.7619   22.9000 C   0  0  0  0  0  0  0  0  0  0  0  0
   -5.6034  -24.3704   22.4630 N   0  0  0  0  0  0  0  0  0  0  0  0
   -5.2389  -23.2455   21.9063 N   0  0  0  0  0  0  0  0  0  0  0  0
    0.7669  -20.3238   15.1450 C   0  0  0  0  0  0  0  0  0  0  0  0
    2.1968  -19.7157   15.5329 C   0  0  0  0  0  0  0  0  0  0  0  0
    4.0968  -19.6649   11.6000 H   0  0  0  0  0  0  0  0  0  0  0  0
    2.4766  -19.5599   12.3586 H   0  0  0  0  0  0  0  0  0  0  0  0
    3.1927  -18.1357   11.5774 H   0  0  0  0  0  0  0  0  0  0  0  0
    5.0923  -20.3707   13.6829 H   0  0  0  0  0  0  0  0  0  0  0  0
    5.0648  -19.2319   15.0303 H   0  0  0  0  0  0  0  0  0  0  0  0
    3.8750  -22.4399   14.6796 H   0  0  0  0  0  0  0  0  0  0  0  0
    1.7609  -23.2948   14.5504 H   0  0  0  0  0  0  0  0  0  0  0  0
    1.6150  -21.8230   13.7448 H   0  0  0  0  0  0  0  0  0  0  0  0
   -2.4953  -23.1720   17.8537 H   0  0  0  0  0  0  0  0  0  0  0  0
   -4.3602  -22.3498   16.9750 H   0  0  0  0  0  0  0  0  0  0  0  0
   -4.1467  -20.8968   19.6419 H   0  0  0  0  0  0  0  0  0  0  0  0
   -2.7136  -21.3965   19.5781 H   0  0  0  0  0  0  0  0  0  0  0  0
   -2.4923  -24.3461   22.3071 H   0  0  0  0  0  0  0  0  0  0  0  0
   -4.2274  -25.7035   23.3324 H   0  0  0  0  0  0  0  0  0  0  0  0
   -5.3108  -22.5071   22.5944 H   0  0  0  0  0  0  0  0  0  0  0  0
    0.8011  -20.3255   14.0276 H   0  0  0  0  0  0  0  0  0  0  0  0
    0.4582  -19.4188   15.7669 H   0  0  0  0  0  0  0  0  0  0  0  0
    2.2156  -18.6673   15.2018 H   0  0  0  0  0  0  0  0  0  0  0  0
    2.3397  -19.6990   16.6194 H   0  0  0  0  0  0  0  0  0  0  0  0
  1  2  1  0
  2  3  1  0
  3  4  1  0
  4  5  2  0
  5  6  1  0
  6  7  1  0
  7  8  1  0
  8  9  2  0
  8 10  1  0
 10 11  1  0
 11 12  1  0
 12 13  2  0
 13 14  1  0
 14 15  2  0
 15 16  1  0
  7 17  1  0
 17 18  1  0
 18  4  1  0
 16 12  1  0
  1 19  1  0
  1 20  1  0
  1 21  1  0
  3 22  1  0
  3 23  1  0
  5 24  1  0
  6 25  1  0
  6 26  1  0
 10 27  1  0
 10 28  1  0
 11 29  1  0
 11 30  1  0
 13 31  1  0
 14 32  1  0
 16 33  1  0
 17 34  1  0
 17 35  1  0
 18 36  1  0
 18 37  1  0
M  END
>  <Energy>  (1750) 
881.02624871227795

>  <compound_id>  (1750) 
12908

>  <target_id>  (1750) 
1

>  <reference_id>  (1750) 
96

>  <inspiration_ids>  (1750) 
[85, 96]

>  <energy_score>  (1750) 
841.5870367255234

>  <distance_score>  (1750) 
8.379580626523028

>  <path>  (1750) 
/opt/xchem-fragalysis-2/maxwin/BulkDock/SCRATCH/511013/C12908-P96/C12908-P96.minimised.mol

>  <scratch_subdir>  (1750) 
/opt/xchem-fragalysis-2/maxwin/BulkDock/SCRATCH/511013/C12908-P96

>  <fragmenstein_runtime>  (1750) 
11.857784509658813

>  <fragmenstein_outcome>  (1750) 
too moved

>  <fragmenstein_mode>  (1750) 
expansion

>  <fragmenstein_error>  (1750) 


$$$$
C12910-P85
     RDKit          3D

 47 48  0  0  0  0  0  0  0  0999 V2000
    2.6396  -20.3707    9.5315 C   0  0  0  0  0  0  0  0  0  0  0  0
    2.5760  -19.2450   10.5759 C   0  0  0  0  0  0  0  0  0  0  0  0
    4.0029  -18.9146   11.0562 C   0  0  0  0  0  0  0  0  0  0  0  0
    2.0585  -17.9892    9.8392 C   0  0  0  0  0  0  0  0  0  0  0  0
    1.7107  -19.6846   11.7612 C   0  0  0  0  0  0  0  0  0  0  0  0
    1.8033  -20.6937   12.6212 C   0  0  0  0  0  0  0  0  0  0  0  0
    0.7078  -20.7868   13.8616 C   0  0  0  0  0  0  0  0  0  0  0  0
   -1.2977  -20.5233   13.8414 N   0  0  0  0  0  0  0  0  0  0  0  0
   -2.9612  -21.4925   14.6327 C   0  0  0  0  0  0  0  0  0  0  0  0
   -3.1823  -22.2950   16.7357 C   0  0  0  0  0  0  0  0  0  0  0  0
   -3.5854  -22.1371   18.7990 N   0  0  0  0  0  0  0  0  0  0  0  0
   -4.7879  -20.9762   19.8461 C   0  0  0  0  0  0  0  0  0  0  0  0
   -5.4970  -20.0179   19.4163 O   0  0  0  0  0  0  0  0  0  0  0  0
   -4.9424  -21.4480   21.5279 C   0  0  0  0  0  0  0  0  0  0  0  0
   -6.1602  -22.0318   23.0426 C   0  0  0  0  0  0  0  0  0  0  0  0
   -6.8519  -23.3526   23.1731 C   0  0  0  0  0  0  0  0  0  0  0  0
   -5.9218  -24.3265   22.7359 C   0  0  0  0  0  0  0  0  0  0  0  0
   -5.2162  -24.4026   23.8085 N   0  0  0  0  0  0  0  0  0  0  0  0
   -5.7474  -23.0910   24.4311 N   0  0  0  0  0  0  0  0  0  0  0  0
   -0.6131  -19.3999   13.4248 C   0  0  0  0  0  0  0  0  0  0  0  0
    0.7604  -18.8087   12.4381 C   0  0  0  0  0  0  0  0  0  0  0  0
    3.0718  -21.2859    9.9526 H   0  0  0  0  0  0  0  0  0  0  0  0
    3.2572  -20.0864    8.6716 H   0  0  0  0  0  0  0  0  0  0  0  0
    1.6403  -20.6203    9.1553 H   0  0  0  0  0  0  0  0  0  0  0  0
    4.6450  -18.6066   10.2228 H   0  0  0  0  0  0  0  0  0  0  0  0
    3.9972  -18.1008   11.7898 H   0  0  0  0  0  0  0  0  0  0  0  0
    4.4771  -19.7827   11.5287 H   0  0  0  0  0  0  0  0  0  0  0  0
    1.0631  -18.1466    9.4178 H   0  0  0  0  0  0  0  0  0  0  0  0
    2.0201  -17.1148   10.4961 H   0  0  0  0  0  0  0  0  0  0  0  0
    2.7171  -17.7249    9.0025 H   0  0  0  0  0  0  0  0  0  0  0  0
    2.5730  -21.4555   12.5583 H   0  0  0  0  0  0  0  0  0  0  0  0
    1.1726  -21.4062   14.6450 H   0  0  0  0  0  0  0  0  0  0  0  0
    1.1950  -19.9034   14.3920 H   0  0  0  0  0  0  0  0  0  0  0  0
   -2.9584  -22.5136   14.0434 H   0  0  0  0  0  0  0  0  0  0  0  0
   -3.7155  -21.2793   13.8365 H   0  0  0  0  0  0  0  0  0  0  0  0
   -4.2451  -22.5346   16.4442 H   0  0  0  0  0  0  0  0  0  0  0  0
   -2.2359  -22.9402   16.9278 H   0  0  0  0  0  0  0  0  0  0  0  0
   -3.1313  -22.7008   19.3672 H   0  0  0  0  0  0  0  0  0  0  0  0
   -5.2499  -22.2718   20.9479 H   0  0  0  0  0  0  0  0  0  0  0  0
   -5.4684  -20.4880   21.3364 H   0  0  0  0  0  0  0  0  0  0  0  0
   -7.9482  -23.2693   23.1496 H   0  0  0  0  0  0  0  0  0  0  0  0
   -5.5298  -24.7748   21.8448 H   0  0  0  0  0  0  0  0  0  0  0  0
   -5.3200  -22.6946   25.2656 H   0  0  0  0  0  0  0  0  0  0  0  0
   -0.6107  -19.8162   12.4944 H   0  0  0  0  0  0  0  0  0  0  0  0
   -1.2455  -18.7874   14.0942 H   0  0  0  0  0  0  0  0  0  0  0  0
    0.4582  -17.9927   11.7759 H   0  0  0  0  0  0  0  0  0  0  0  0
    1.3627  -18.5575   13.2792 H   0  0  0  0  0  0  0  0  0  0  0  0
  1  2  1  0
  2  3  1  0
  2  4  1  0
  2  5  1  0
  5  6  2  0
  6  7  1  0
  7  8  1  0
  8  9  1  0
  9 10  1  0
 10 11  1  0
 11 12  1  0
 12 13  2  0
 12 14  1  0
 14 15  1  0
 15 16  2  0
 16 17  1  0
 17 18  2  0
 18 19  1  0
  8 20  1  0
 20 21  1  0
 21  5  1  0
 19 15  1  0
  1 22  1  0
  1 23  1  0
  1 24  1  0
  3 25  1  0
  3 26  1  0
  3 27  1  0
  4 28  1  0
  4 29  1  0
  4 30  1  0
  6 31  1  0
  7 32  1  0
  7 33  1  0
  9 34  1  0
  9 35  1  0
 10 36  1  0
 10 37  1  0
 11 38  1  0
 14 39  1  0
 14 40  1  0
 16 41  1  0
 17 42  1  0
 19 43  1  0
 20 44  1  0
 20 45  1  0
 21 46  1  0
 21 47  1  0
M  END
>  <Energy>  (1751) 
1334.8260923093933

>  <compound_id>  (1751) 
12910

>  <target_id>  (1751) 
1

>  <reference_id>  (1751) 
85

>  <inspiration_ids>  (1751) 
[85, 96]

>  <energy_score>  (1751) 
1229.6287674427817

>  <distance_score>  (1751) 
6.755110219388753

>  <path>  (1751) 
/opt/xchem-fragalysis-2/maxwin/BulkDock/SCRATCH/511013/C12910-P85/C12910-P85.minimised.mol

>  <scratch_subdir>  (1751) 
/opt/xchem-fragalysis-2/maxwin/BulkDock/SCRATCH/511013/C12910-P85

>  <fragmenstein_runtime>  (1751) 
24.282365083694458

>  <fragmenstein_outcome>  (1751) 
too moved

>  <fragmenstein_mode>  (1751) 
expansion

>  <fragmenstein_error>  (1751) 


$$$$
C12910-P96
     RDKit          3D

 47 48  0  0  0  0  0  0  0  0999 V2000
    0.4988  -24.5170   10.1867 C   0  0  0  0  0  0  0  0  0  0  0  0
    1.0399  -25.6323   11.0999 C   0  0  0  0  0  0  0  0  0  0  0  0
    1.8560  -26.5520   10.1765 C   0  0  0  0  0  0  0  0  0  0  0  0
    2.0445  -24.9789   12.0756 C   0  0  0  0  0  0  0  0  0  0  0  0
   -0.0774  -26.4668   11.8661 C   0  0  0  0  0  0  0  0  0  0  0  0
    0.1732  -27.3448   12.8679 C   0  0  0  0  0  0  0  0  0  0  0  0
   -0.8925  -28.0177   13.7581 C   0  0  0  0  0  0  0  0  0  0  0  0
   -2.1038  -27.2030   13.9286 N   0  0  0  0  0  0  0  0  0  0  0  0
   -3.1964  -27.6548   14.8987 C   0  0  0  0  0  0  0  0  0  0  0  0
   -2.9153  -28.3463   16.3208 C   0  0  0  0  0  0  0  0  0  0  0  0
   -3.6820  -27.9870   17.5864 N   0  0  0  0  0  0  0  0  0  0  0  0
   -5.1171  -27.9967   17.8776 C   0  0  0  0  0  0  0  0  0  0  0  0
   -6.0593  -28.2166   17.1611 O   0  0  0  0  0  0  0  0  0  0  0  0
   -5.5511  -27.5168   19.5557 C   0  0  0  0  0  0  0  0  0  0  0  0
   -5.6557  -25.6738   19.9672 C   0  0  0  0  0  0  0  0  0  0  0  0
   -5.2891  -24.2680   21.2147 C   0  0  0  0  0  0  0  0  0  0  0  0
   -6.3041  -23.8023   21.9759 C   0  0  0  0  0  0  0  0  0  0  0  0
   -7.5449  -24.0308   21.2222 N   0  0  0  0  0  0  0  0  0  0  0  0
   -7.2518  -24.7485   19.8201 N   0  0  0  0  0  0  0  0  0  0  0  0
   -2.6072  -26.8584   12.5753 C   0  0  0  0  0  0  0  0  0  0  0  0
   -1.5583  -26.2499   11.5626 C   0  0  0  0  0  0  0  0  0  0  0  0
   -0.1823  -23.8581   10.7190 H   0  0  0  0  0  0  0  0  0  0  0  0
   -0.0369  -24.9715    9.3484 H   0  0  0  0  0  0  0  0  0  0  0  0
    1.3036  -23.9022    9.7677 H   0  0  0  0  0  0  0  0  0  0  0  0
    1.2089  -27.0584    9.4505 H   0  0  0  0  0  0  0  0  0  0  0  0
    2.6166  -25.9981    9.6136 H   0  0  0  0  0  0  0  0  0  0  0  0
    2.3749  -27.3309   10.7476 H   0  0  0  0  0  0  0  0  0  0  0  0
    2.4691  -25.6976   12.7834 H   0  0  0  0  0  0  0  0  0  0  0  0
    1.5845  -24.1676   12.6429 H   0  0  0  0  0  0  0  0  0  0  0  0
    2.8876  -24.5341   11.5323 H   0  0  0  0  0  0  0  0  0  0  0  0
    1.1999  -27.5793   13.1352 H   0  0  0  0  0  0  0  0  0  0  0  0
   -1.1304  -29.0063   13.3473 H   0  0  0  0  0  0  0  0  0  0  0  0
   -0.4328  -28.1786   14.7396 H   0  0  0  0  0  0  0  0  0  0  0  0
   -3.8601  -28.3405   14.3565 H   0  0  0  0  0  0  0  0  0  0  0  0
   -3.7831  -26.7613   15.1184 H   0  0  0  0  0  0  0  0  0  0  0  0
   -3.0143  -29.4310   16.2039 H   0  0  0  0  0  0  0  0  0  0  0  0
   -1.8733  -28.1395   16.5877 H   0  0  0  0  0  0  0  0  0  0  0  0
   -3.1669  -27.8436   18.4550 H   0  0  0  0  0  0  0  0  0  0  0  0
   -6.5018  -28.0134   19.5972 H   0  0  0  0  0  0  0  0  0  0  0  0
   -5.0066  -28.0643   20.3125 H   0  0  0  0  0  0  0  0  0  0  0  0
   -4.3578  -23.6955   21.3121 H   0  0  0  0  0  0  0  0  0  0  0  0
   -6.2723  -23.2411   22.9140 H   0  0  0  0  0  0  0  0  0  0  0  0
   -7.1906  -24.3027   18.9235 H   0  0  0  0  0  0  0  0  0  0  0  0
   -3.0292  -27.7620   12.1146 H   0  0  0  0  0  0  0  0  0  0  0  0
   -3.4348  -26.1442   12.6670 H   0  0  0  0  0  0  0  0  0  0  0  0
   -1.7727  -26.6430   10.5613 H   0  0  0  0  0  0  0  0  0  0  0  0
   -1.7593  -25.1829   11.5260 H   0  0  0  0  0  0  0  0  0  0  0  0
  1  2  1  0
  2  3  1  0
  2  4  1  0
  2  5  1  0
  5  6  2  0
  6  7  1  0
  7  8  1  0
  8  9  1  0
  9 10  1  0
 10 11  1  0
 11 12  1  0
 12 13  2  0
 12 14  1  0
 14 15  1  0
 15 16  2  0
 16 17  1  0
 17 18  2  0
 18 19  1  0
  8 20  1  0
 20 21  1  0
 21  5  1  0
 19 15  1  0
  1 22  1  0
  1 23  1  0
  1 24  1  0
  3 25  1  0
  3 26  1  0
  3 27  1  0
  4 28  1  0
  4 29  1  0
  4 30  1  0
  6 31  1  0
  7 32  1  0
  7 33  1  0
  9 34  1  0
  9 35  1  0
 10 36  1  0
 10 37  1  0
 11 38  1  0
 14 39  1  0
 14 40  1  0
 16 41  1  0
 17 42  1  0
 19 43  1  0
 20 44  1  0
 20 45  1  0
 21 46  1  0
 21 47  1  0
M  END
>  <Energy>  (1752) 
381.81895256660266

>  <compound_id>  (1752) 
12910

>  <target_id>  (1752) 
1

>  <reference_id>  (1752) 
96

>  <inspiration_ids>  (1752) 
[85, 96]

>  <energy_score>  (1752) 
276.62162769998145

>  <distance_score>  (1752) 
10.340835595507256

>  <path>  (1752) 
/opt/xchem-fragalysis-2/maxwin/BulkDock/SCRATCH/511013/C12910-P96/C12910-P96.minimised.mol

>  <scratch_subdir>  (1752) 
/opt/xchem-fragalysis-2/maxwin/BulkDock/SCRATCH/511013/C12910-P96

>  <fragmenstein_runtime>  (1752) 
18.623271703720093

>  <fragmenstein_outcome>  (1752) 
too moved

>  <fragmenstein_mode>  (1752) 
expansion

>  <fragmenstein_error>  (1752) 


$$$$
C12915-P85
     RDKit          3D

 37 39  0  0  0  0  0  0  0  0999 V2000
  -10.3251  -21.6229   11.3183 O   0  0  0  0  0  0  0  0  0  0  0  0
   -9.7224  -21.0773   12.2085 C   0  0  0  0  0  0  0  0  0  0  0  0
  -10.5475  -20.4035   13.3543 C   0  0  0  0  0  0  0  0  0  0  0  0
  -10.7847  -21.1738   14.6573 C   0  0  0  0  0  0  0  0  0  0  0  0
  -10.6847  -22.4946   15.0562 C   0  0  0  0  0  0  0  0  0  0  0  0
  -11.0633  -22.5179   16.4207 C   0  0  0  0  0  0  0  0  0  0  0  0
  -11.3493  -21.2998   16.8812 N   0  0  0  0  0  0  0  0  0  0  0  0
  -11.2487  -20.5231   15.7868 N   0  0  0  0  0  0  0  0  0  0  0  0
   -8.3054  -20.9733   12.4529 N   0  0  0  0  0  0  0  0  0  0  0  0
   -7.1472  -21.5997   11.7492 C   0  0  0  0  0  0  0  0  0  0  0  0
   -7.1630  -21.8105   10.2260 C   0  0  0  0  0  0  0  0  0  0  0  0
   -6.7050  -20.5327    9.6503 C   0  0  0  0  0  0  0  0  0  0  0  0
   -6.8695  -19.4816   10.4614 C   0  0  0  0  0  0  0  0  0  0  0  0
   -6.1690  -18.1923   10.1823 C   0  0  0  0  0  0  0  0  0  0  0  0
   -6.6665  -16.9711   10.6590 C   0  0  0  0  0  0  0  0  0  0  0  0
   -5.9487  -15.7787   10.5141 C   0  0  0  0  0  0  0  0  0  0  0  0
   -4.7134  -15.7857    9.8901 C   0  0  0  0  0  0  0  0  0  0  0  0
   -4.2173  -16.9791    9.3698 C   0  0  0  0  0  0  0  0  0  0  0  0
   -4.9287  -18.1688    9.5212 C   0  0  0  0  0  0  0  0  0  0  0  0
   -7.7145  -19.6424   11.7536 C   0  0  0  0  0  0  0  0  0  0  0  0
  -11.5340  -20.1717   12.9295 H   0  0  0  0  0  0  0  0  0  0  0  0
  -10.0941  -19.4319   13.5747 H   0  0  0  0  0  0  0  0  0  0  0  0
  -10.3812  -23.3341   14.4460 H   0  0  0  0  0  0  0  0  0  0  0  0
  -11.1141  -23.3673   17.0909 H   0  0  0  0  0  0  0  0  0  0  0  0
  -11.4830  -19.5406   15.8804 H   0  0  0  0  0  0  0  0  0  0  0  0
   -7.2129  -22.6272   12.1324 H   0  0  0  0  0  0  0  0  0  0  0  0
   -6.1764  -21.2578   12.1340 H   0  0  0  0  0  0  0  0  0  0  0  0
   -8.1452  -22.0996    9.8424 H   0  0  0  0  0  0  0  0  0  0  0  0
   -6.4456  -22.5975    9.9664 H   0  0  0  0  0  0  0  0  0  0  0  0
   -6.1725  -20.5208    8.7076 H   0  0  0  0  0  0  0  0  0  0  0  0
   -7.6248  -16.9216   11.1692 H   0  0  0  0  0  0  0  0  0  0  0  0
   -6.3463  -14.8516   10.9192 H   0  0  0  0  0  0  0  0  0  0  0  0
   -4.1340  -14.8671    9.8505 H   0  0  0  0  0  0  0  0  0  0  0  0
   -3.2276  -17.0186    8.9234 H   0  0  0  0  0  0  0  0  0  0  0  0
   -4.4627  -19.0848    9.1673 H   0  0  0  0  0  0  0  0  0  0  0  0
   -7.1547  -19.1673   12.5721 H   0  0  0  0  0  0  0  0  0  0  0  0
   -8.6013  -19.0075   11.6117 H   0  0  0  0  0  0  0  0  0  0  0  0
  1  2  2  0
  2  3  1  0
  3  4  1  0
  4  5  2  0
  5  6  1  0
  6  7  2  0
  7  8  1  0
  2  9  1  0
  9 10  1  0
 10 11  1  0
 11 12  1  0
 12 13  2  0
 13 14  1  0
 14 15  2  0
 15 16  1  0
 16 17  2  0
 17 18  1  0
 18 19  2  0
 13 20  1  0
  8  4  1  0
 20  9  1  0
 19 14  1  0
  3 21  1  0
  3 22  1  0
  5 23  1  0
  6 24  1  0
  8 25  1  0
 10 26  1  0
 10 27  1  0
 11 28  1  0
 11 29  1  0
 12 30  1  0
 15 31  1  0
 16 32  1  0
 17 33  1  0
 18 34  1  0
 19 35  1  0
 20 36  1  0
 20 37  1  0
M  END
>  <Energy>  (1753) 
147.43034566175726

>  <compound_id>  (1753) 
12915

>  <target_id>  (1753) 
1

>  <reference_id>  (1753) 
85

>  <inspiration_ids>  (1753) 
[85, 96]

>  <energy_score>  (1753) 
73.98948625014322

>  <distance_score>  (1753) 
11.399089676521124

>  <path>  (1753) 
/opt/xchem-fragalysis-2/maxwin/BulkDock/SCRATCH/511013/C12915-P85/C12915-P85.minimised.mol

>  <scratch_subdir>  (1753) 
/opt/xchem-fragalysis-2/maxwin/BulkDock/SCRATCH/511013/C12915-P85

>  <fragmenstein_runtime>  (1753) 
13.136399030685425

>  <fragmenstein_outcome>  (1753) 
too moved

>  <fragmenstein_mode>  (1753) 
expansion

>  <fragmenstein_error>  (1753) 


$$$$
C12915-P96
     RDKit          3D

 37 39  0  0  0  0  0  0  0  0999 V2000
   -4.3859  -18.7244   16.2057 O   0  0  0  0  0  0  0  0  0  0  0  0
   -3.7744  -17.9238   15.5544 C   0  0  0  0  0  0  0  0  0  0  0  0
   -4.4696  -16.1618   15.9243 C   0  0  0  0  0  0  0  0  0  0  0  0
   -5.0074  -16.2723   17.4549 C   0  0  0  0  0  0  0  0  0  0  0  0
   -5.4996  -15.3226   18.3342 C   0  0  0  0  0  0  0  0  0  0  0  0
   -5.8657  -16.0201   19.5103 C   0  0  0  0  0  0  0  0  0  0  0  0
   -5.6330  -17.3272   19.4142 N   0  0  0  0  0  0  0  0  0  0  0  0
   -5.1166  -17.4570   18.1736 N   0  0  0  0  0  0  0  0  0  0  0  0
   -2.3908  -18.1650   14.1514 N   0  0  0  0  0  0  0  0  0  0  0  0
   -1.8786  -19.4176   13.4866 C   0  0  0  0  0  0  0  0  0  0  0  0
   -0.6001  -19.3228   12.0207 C   0  0  0  0  0  0  0  0  0  0  0  0
    0.8093  -19.3675   12.2409 C   0  0  0  0  0  0  0  0  0  0  0  0
    1.0449  -19.1662   13.5106 C   0  0  0  0  0  0  0  0  0  0  0  0
    2.5344  -19.0391   13.8361 C   0  0  0  0  0  0  0  0  0  0  0  0
    3.4883  -19.6808   13.0123 C   0  0  0  0  0  0  0  0  0  0  0  0
    4.8151  -19.2441   12.9379 C   0  0  0  0  0  0  0  0  0  0  0  0
    5.2437  -18.1957   13.7394 C   0  0  0  0  0  0  0  0  0  0  0  0
    4.3653  -17.6439   14.6652 C   0  0  0  0  0  0  0  0  0  0  0  0
    3.0362  -18.0866   14.7372 C   0  0  0  0  0  0  0  0  0  0  0  0
   -0.2898  -18.2745   14.2922 C   0  0  0  0  0  0  0  0  0  0  0  0
   -5.3415  -16.0628   15.2682 H   0  0  0  0  0  0  0  0  0  0  0  0
   -3.8891  -15.2293   15.8236 H   0  0  0  0  0  0  0  0  0  0  0  0
   -5.5950  -14.2625   18.1452 H   0  0  0  0  0  0  0  0  0  0  0  0
   -6.2921  -15.6220   20.4216 H   0  0  0  0  0  0  0  0  0  0  0  0
   -4.8901  -18.3911   17.8318 H   0  0  0  0  0  0  0  0  0  0  0  0
   -2.4277  -20.3586   13.4479 H   0  0  0  0  0  0  0  0  0  0  0  0
   -2.6008  -18.7684   13.1070 H   0  0  0  0  0  0  0  0  0  0  0  0
   -0.6625  -20.0903   11.3057 H   0  0  0  0  0  0  0  0  0  0  0  0
   -0.7154  -18.4444   11.3532 H   0  0  0  0  0  0  0  0  0  0  0  0
    1.4992  -19.5936   11.4427 H   0  0  0  0  0  0  0  0  0  0  0  0
    3.1860  -20.4931   12.3539 H   0  0  0  0  0  0  0  0  0  0  0  0
    5.5017  -19.7210   12.2451 H   0  0  0  0  0  0  0  0  0  0  0  0
    6.2646  -17.8324   13.6707 H   0  0  0  0  0  0  0  0  0  0  0  0
    4.7020  -16.8446   15.3189 H   0  0  0  0  0  0  0  0  0  0  0  0
    2.3764  -17.5822   15.4338 H   0  0  0  0  0  0  0  0  0  0  0  0
    0.1199  -18.6640   15.4442 H   0  0  0  0  0  0  0  0  0  0  0  0
    0.4148  -17.4737   14.6817 H   0  0  0  0  0  0  0  0  0  0  0  0
  1  2  2  0
  2  3  1  0
  3  4  1  0
  4  5  2  0
  5  6  1  0
  6  7  2  0
  7  8  1  0
  2  9  1  0
  9 10  1  0
 10 11  1  0
 11 12  1  0
 12 13  2  0
 13 14  1  0
 14 15  2  0
 15 16  1  0
 16 17  2  0
 17 18  1  0
 18 19  2  0
 13 20  1  0
  8  4  1  0
 20  9  1  0
 19 14  1  0
  3 21  1  0
  3 22  1  0
  5 23  1  0
  6 24  1  0
  8 25  1  0
 10 26  1  0
 10 27  1  0
 11 28  1  0
 11 29  1  0
 12 30  1  0
 15 31  1  0
 16 32  1  0
 17 33  1  0
 18 34  1  0
 19 35  1  0
 20 36  1  0
 20 37  1  0
M  END
>  <Energy>  (1754) 
660.05205977466801

>  <compound_id>  (1754) 
12915

>  <target_id>  (1754) 
1

>  <reference_id>  (1754) 
96

>  <inspiration_ids>  (1754) 
[85, 96]

>  <energy_score>  (1754) 
586.6112003630569

>  <distance_score>  (1754) 
10.190640153270431

>  <path>  (1754) 
/opt/xchem-fragalysis-2/maxwin/BulkDock/SCRATCH/511013/C12915-P96/C12915-P96.minimised.mol

>  <scratch_subdir>  (1754) 
/opt/xchem-fragalysis-2/maxwin/BulkDock/SCRATCH/511013/C12915-P96

>  <fragmenstein_runtime>  (1754) 
10.120013236999512

>  <fragmenstein_outcome>  (1754) 
too moved

>  <fragmenstein_mode>  (1754) 
expansion

>  <fragmenstein_error>  (1754) 


$$$$
C12910-P85
     RDKit          3D

 47 48  0  0  0  0  0  0  0  0999 V2000
    2.6396  -20.3707    9.5315 C   0  0  0  0  0  0  0  0  0  0  0  0
    2.5760  -19.2450   10.5759 C   0  0  0  0  0  0  0  0  0  0  0  0
    4.0029  -18.9146   11.0562 C   0  0  0  0  0  0  0  0  0  0  0  0
    2.0585  -17.9892    9.8392 C   0  0  0  0  0  0  0  0  0  0  0  0
    1.7107  -19.6846   11.7612 C   0  0  0  0  0  0  0  0  0  0  0  0
    1.8033  -20.6937   12.6212 C   0  0  0  0  0  0  0  0  0  0  0  0
    0.7078  -20.7868   13.8616 C   0  0  0  0  0  0  0  0  0  0  0  0
   -1.2977  -20.5233   13.8414 N   0  0  0  0  0  0  0  0  0  0  0  0
   -2.9612  -21.4925   14.6327 C   0  0  0  0  0  0  0  0  0  0  0  0
   -3.1823  -22.2950   16.7357 C   0  0  0  0  0  0  0  0  0  0  0  0
   -3.5854  -22.1371   18.7990 N   0  0  0  0  0  0  0  0  0  0  0  0
   -4.7879  -20.9762   19.8461 C   0  0  0  0  0  0  0  0  0  0  0  0
   -5.4970  -20.0179   19.4163 O   0  0  0  0  0  0  0  0  0  0  0  0
   -4.9424  -21.4480   21.5279 C   0  0  0  0  0  0  0  0  0  0  0  0
   -6.1602  -22.0318   23.0426 C   0  0  0  0  0  0  0  0  0  0  0  0
   -6.8519  -23.3526   23.1731 C   0  0  0  0  0  0  0  0  0  0  0  0
   -5.9218  -24.3265   22.7359 C   0  0  0  0  0  0  0  0  0  0  0  0
   -5.2162  -24.4026   23.8085 N   0  0  0  0  0  0  0  0  0  0  0  0
   -5.7474  -23.0910   24.4311 N   0  0  0  0  0  0  0  0  0  0  0  0
   -0.6131  -19.3999   13.4248 C   0  0  0  0  0  0  0  0  0  0  0  0
    0.7604  -18.8087   12.4381 C   0  0  0  0  0  0  0  0  0  0  0  0
    3.0718  -21.2859    9.9526 H   0  0  0  0  0  0  0  0  0  0  0  0
    3.2572  -20.0864    8.6716 H   0  0  0  0  0  0  0  0  0  0  0  0
    1.6403  -20.6203    9.1553 H   0  0  0  0  0  0  0  0  0  0  0  0
    4.6450  -18.6066   10.2228 H   0  0  0  0  0  0  0  0  0  0  0  0
    3.9972  -18.1008   11.7898 H   0  0  0  0  0  0  0  0  0  0  0  0
    4.4771  -19.7827   11.5287 H   0  0  0  0  0  0  0  0  0  0  0  0
    1.0631  -18.1466    9.4178 H   0  0  0  0  0  0  0  0  0  0  0  0
    2.0201  -17.1148   10.4961 H   0  0  0  0  0  0  0  0  0  0  0  0
    2.7171  -17.7249    9.0025 H   0  0  0  0  0  0  0  0  0  0  0  0
    2.5730  -21.4555   12.5583 H   0  0  0  0  0  0  0  0  0  0  0  0
    1.1726  -21.4062   14.6450 H   0  0  0  0  0  0  0  0  0  0  0  0
    1.1950  -19.9034   14.3920 H   0  0  0  0  0  0  0  0  0  0  0  0
   -2.9584  -22.5136   14.0434 H   0  0  0  0  0  0  0  0  0  0  0  0
   -3.7155  -21.2793   13.8365 H   0  0  0  0  0  0  0  0  0  0  0  0
   -4.2451  -22.5346   16.4442 H   0  0  0  0  0  0  0  0  0  0  0  0
   -2.2359  -22.9402   16.9278 H   0  0  0  0  0  0  0  0  0  0  0  0
   -3.1313  -22.7008   19.3672 H   0  0  0  0  0  0  0  0  0  0  0  0
   -5.2499  -22.2718   20.9479 H   0  0  0  0  0  0  0  0  0  0  0  0
   -5.4684  -20.4880   21.3364 H   0  0  0  0  0  0  0  0  0  0  0  0
   -7.9482  -23.2693   23.1496 H   0  0  0  0  0  0  0  0  0  0  0  0
   -5.5298  -24.7748   21.8448 H   0  0  0  0  0  0  0  0  0  0  0  0
   -5.3200  -22.6946   25.2656 H   0  0  0  0  0  0  0  0  0  0  0  0
   -0.6107  -19.8162   12.4944 H   0  0  0  0  0  0  0  0  0  0  0  0
   -1.2455  -18.7874   14.0942 H   0  0  0  0  0  0  0  0  0  0  0  0
    0.4582  -17.9927   11.7759 H   0  0  0  0  0  0  0  0  0  0  0  0
    1.3627  -18.5575   13.2792 H   0  0  0  0  0  0  0  0  0  0  0  0
  1  2  1  0
  2  3  1  0
  2  4  1  0
  2  5  1  0
  5  6  2  0
  6  7  1  0
  7  8  1  0
  8  9  1  0
  9 10  1  0
 10 11  1  0
 11 12  1  0
 12 13  2  0
 12 14  1  0
 14 15  1  0
 15 16  2  0
 16 17  1  0
 17 18  2  0
 18 19  1  0
  8 20  1  0
 20 21  1  0
 21  5  1  0
 19 15  1  0
  1 22  1  0
  1 23  1  0
  1 24  1  0
  3 25  1  0
  3 26  1  0
  3 27  1  0
  4 28  1  0
  4 29  1  0
  4 30  1  0
  6 31  1  0
  7 32  1  0
  7 33  1  0
  9 34  1  0
  9 35  1  0
 10 36  1  0
 10 37  1  0
 11 38  1  0
 14 39  1  0
 14 40  1  0
 16 41  1  0
 17 42  1  0
 19 43  1  0
 20 44  1  0
 20 45  1  0
 21 46  1  0
 21 47  1  0
M  END
>  <Energy>  (1755) 
1334.8260923093933

>  <compound_id>  (1755) 
12910

>  <target_id>  (1755) 
1

>  <reference_id>  (1755) 
85

>  <inspiration_ids>  (1755) 
[85, 96]

>  <energy_score>  (1755) 
1229.6287674427817

>  <distance_score>  (1755) 
6.755110219388753

>  <path>  (1755) 
/opt/xchem-fragalysis-2/maxwin/BulkDock/SCRATCH/511013/C12910-P85/C12910-P85.minimised.mol

>  <scratch_subdir>  (1755) 
/opt/xchem-fragalysis-2/maxwin/BulkDock/SCRATCH/511013/C12910-P85

>  <fragmenstein_runtime>  (1755) 
24.56189465522766

>  <fragmenstein_outcome>  (1755) 
too moved

>  <fragmenstein_mode>  (1755) 
expansion

>  <fragmenstein_error>  (1755) 


$$$$
C12910-P96
     RDKit          3D

 47 48  0  0  0  0  0  0  0  0999 V2000
    0.4988  -24.5170   10.1867 C   0  0  0  0  0  0  0  0  0  0  0  0
    1.0399  -25.6323   11.0999 C   0  0  0  0  0  0  0  0  0  0  0  0
    1.8560  -26.5520   10.1765 C   0  0  0  0  0  0  0  0  0  0  0  0
    2.0445  -24.9789   12.0756 C   0  0  0  0  0  0  0  0  0  0  0  0
   -0.0774  -26.4668   11.8661 C   0  0  0  0  0  0  0  0  0  0  0  0
    0.1732  -27.3448   12.8679 C   0  0  0  0  0  0  0  0  0  0  0  0
   -0.8925  -28.0177   13.7581 C   0  0  0  0  0  0  0  0  0  0  0  0
   -2.1038  -27.2030   13.9286 N   0  0  0  0  0  0  0  0  0  0  0  0
   -3.1964  -27.6548   14.8987 C   0  0  0  0  0  0  0  0  0  0  0  0
   -2.9153  -28.3463   16.3208 C   0  0  0  0  0  0  0  0  0  0  0  0
   -3.6820  -27.9870   17.5864 N   0  0  0  0  0  0  0  0  0  0  0  0
   -5.1171  -27.9967   17.8776 C   0  0  0  0  0  0  0  0  0  0  0  0
   -6.0593  -28.2166   17.1611 O   0  0  0  0  0  0  0  0  0  0  0  0
   -5.5511  -27.5168   19.5557 C   0  0  0  0  0  0  0  0  0  0  0  0
   -5.6557  -25.6738   19.9672 C   0  0  0  0  0  0  0  0  0  0  0  0
   -5.2891  -24.2680   21.2147 C   0  0  0  0  0  0  0  0  0  0  0  0
   -6.3041  -23.8023   21.9759 C   0  0  0  0  0  0  0  0  0  0  0  0
   -7.5449  -24.0308   21.2222 N   0  0  0  0  0  0  0  0  0  0  0  0
   -7.2518  -24.7485   19.8201 N   0  0  0  0  0  0  0  0  0  0  0  0
   -2.6072  -26.8584   12.5753 C   0  0  0  0  0  0  0  0  0  0  0  0
   -1.5583  -26.2499   11.5626 C   0  0  0  0  0  0  0  0  0  0  0  0
   -0.1823  -23.8581   10.7190 H   0  0  0  0  0  0  0  0  0  0  0  0
   -0.0369  -24.9715    9.3484 H   0  0  0  0  0  0  0  0  0  0  0  0
    1.3036  -23.9022    9.7677 H   0  0  0  0  0  0  0  0  0  0  0  0
    1.2089  -27.0584    9.4505 H   0  0  0  0  0  0  0  0  0  0  0  0
    2.6166  -25.9981    9.6136 H   0  0  0  0  0  0  0  0  0  0  0  0
    2.3749  -27.3309   10.7476 H   0  0  0  0  0  0  0  0  0  0  0  0
    2.4691  -25.6976   12.7834 H   0  0  0  0  0  0  0  0  0  0  0  0
    1.5845  -24.1676   12.6429 H   0  0  0  0  0  0  0  0  0  0  0  0
    2.8876  -24.5341   11.5323 H   0  0  0  0  0  0  0  0  0  0  0  0
    1.1999  -27.5793   13.1352 H   0  0  0  0  0  0  0  0  0  0  0  0
   -1.1304  -29.0063   13.3473 H   0  0  0  0  0  0  0  0  0  0  0  0
   -0.4328  -28.1786   14.7396 H   0  0  0  0  0  0  0  0  0  0  0  0
   -3.8601  -28.3405   14.3565 H   0  0  0  0  0  0  0  0  0  0  0  0
   -3.7831  -26.7613   15.1184 H   0  0  0  0  0  0  0  0  0  0  0  0
   -3.0143  -29.4310   16.2039 H   0  0  0  0  0  0  0  0  0  0  0  0
   -1.8733  -28.1395   16.5877 H   0  0  0  0  0  0  0  0  0  0  0  0
   -3.1669  -27.8436   18.4550 H   0  0  0  0  0  0  0  0  0  0  0  0
   -6.5018  -28.0134   19.5972 H   0  0  0  0  0  0  0  0  0  0  0  0
   -5.0066  -28.0643   20.3125 H   0  0  0  0  0  0  0  0  0  0  0  0
   -4.3578  -23.6955   21.3121 H   0  0  0  0  0  0  0  0  0  0  0  0
   -6.2723  -23.2411   22.9140 H   0  0  0  0  0  0  0  0  0  0  0  0
   -7.1906  -24.3027   18.9235 H   0  0  0  0  0  0  0  0  0  0  0  0
   -3.0292  -27.7620   12.1146 H   0  0  0  0  0  0  0  0  0  0  0  0
   -3.4348  -26.1442   12.6670 H   0  0  0  0  0  0  0  0  0  0  0  0
   -1.7727  -26.6430   10.5613 H   0  0  0  0  0  0  0  0  0  0  0  0
   -1.7593  -25.1829   11.5260 H   0  0  0  0  0  0  0  0  0  0  0  0
  1  2  1  0
  2  3  1  0
  2  4  1  0
  2  5  1  0
  5  6  2  0
  6  7  1  0
  7  8  1  0
  8  9  1  0
  9 10  1  0
 10 11  1  0
 11 12  1  0
 12 13  2  0
 12 14  1  0
 14 15  1  0
 15 16  2  0
 16 17  1  0
 17 18  2  0
 18 19  1  0
  8 20  1  0
 20 21  1  0
 21  5  1  0
 19 15  1  0
  1 22  1  0
  1 23  1  0
  1 24  1  0
  3 25  1  0
  3 26  1  0
  3 27  1  0
  4 28  1  0
  4 29  1  0
  4 30  1  0
  6 31  1  0
  7 32  1  0
  7 33  1  0
  9 34  1  0
  9 35  1  0
 10 36  1  0
 10 37  1  0
 11 38  1  0
 14 39  1  0
 14 40  1  0
 16 41  1  0
 17 42  1  0
 19 43  1  0
 20 44  1  0
 20 45  1  0
 21 46  1  0
 21 47  1  0
M  END
>  <Energy>  (1756) 
381.81895256660266

>  <compound_id>  (1756) 
12910

>  <target_id>  (1756) 
1

>  <reference_id>  (1756) 
96

>  <inspiration_ids>  (1756) 
[85, 96]

>  <energy_score>  (1756) 
276.62162769998145

>  <distance_score>  (1756) 
10.340835595507256

>  <path>  (1756) 
/opt/xchem-fragalysis-2/maxwin/BulkDock/SCRATCH/511013/C12910-P96/C12910-P96.minimised.mol

>  <scratch_subdir>  (1756) 
/opt/xchem-fragalysis-2/maxwin/BulkDock/SCRATCH/511013/C12910-P96

>  <fragmenstein_runtime>  (1756) 
18.25434398651123

>  <fragmenstein_outcome>  (1756) 
too moved

>  <fragmenstein_mode>  (1756) 
expansion

>  <fragmenstein_error>  (1756) 


$$$$
C12926-P85
     RDKit          3D

 42 44  0  0  0  0  0  0  0  0999 V2000
   -2.1355  -13.6971   22.8211 O   0  0  0  0  0  0  0  0  0  0  0  0
   -1.8419  -14.4691   21.9525 C   0  0  0  0  0  0  0  0  0  0  0  0
   -2.1653  -16.0006   22.1143 C   0  0  0  0  0  0  0  0  0  0  0  0
   -3.1973  -16.6161   23.0694 C   0  0  0  0  0  0  0  0  0  0  0  0
   -4.1749  -17.4312   22.6186 C   0  0  0  0  0  0  0  0  0  0  0  0
   -5.1000  -18.2212   23.4859 C   0  0  0  0  0  0  0  0  0  0  0  0
   -4.5923  -18.4252   24.8416 N   0  0  0  0  0  0  0  0  0  0  0  0
   -4.1727  -17.1280   25.3935 C   0  0  0  0  0  0  0  0  0  0  0  0
   -3.0312  -16.4752   24.5699 C   0  0  0  0  0  0  0  0  0  0  0  0
   -1.1124  -14.2605   20.6911 N   0  0  0  0  0  0  0  0  0  0  0  0
   -0.4422  -13.0768   20.1588 C   0  0  0  0  0  0  0  0  0  0  0  0
   -0.4170  -12.9415   18.6336 C   0  0  0  0  0  0  0  0  0  0  0  0
   -1.6122  -12.7892   17.9281 C   0  0  0  0  0  0  0  0  0  0  0  0
   -1.6356  -12.5963   16.5456 C   0  0  0  0  0  0  0  0  0  0  0  0
   -0.4550  -12.4806   15.8158 C   0  0  0  0  0  0  0  0  0  0  0  0
   -0.5508  -12.3114   14.3754 C   0  0  0  0  0  0  0  0  0  0  0  0
   -1.5166  -12.7382   13.4869 C   0  0  0  0  0  0  0  0  0  0  0  0
   -1.0600  -12.3895   12.2178 C   0  0  0  0  0  0  0  0  0  0  0  0
    0.0731  -11.6952   12.2885 N   0  0  0  0  0  0  0  0  0  0  0  0
    0.2987  -11.5786   13.6038 N   0  0  0  0  0  0  0  0  0  0  0  0
    0.7577  -12.5652   16.5099 C   0  0  0  0  0  0  0  0  0  0  0  0
    0.7754  -12.8191   17.8974 C   0  0  0  0  0  0  0  0  0  0  0  0
   -2.4530  -16.3180   21.1105 H   0  0  0  0  0  0  0  0  0  0  0  0
   -1.2007  -16.4682   22.3499 H   0  0  0  0  0  0  0  0  0  0  0  0
   -4.3042  -17.5951   21.5552 H   0  0  0  0  0  0  0  0  0  0  0  0
   -6.0751  -17.7243   23.5044 H   0  0  0  0  0  0  0  0  0  0  0  0
   -5.2539  -19.2056   23.0304 H   0  0  0  0  0  0  0  0  0  0  0  0
   -3.7729  -19.0278   24.7943 H   0  0  0  0  0  0  0  0  0  0  0  0
   -5.0317  -16.4465   25.4371 H   0  0  0  0  0  0  0  0  0  0  0  0
   -3.8360  -17.2691   26.4266 H   0  0  0  0  0  0  0  0  0  0  0  0
   -2.9703  -15.4146   24.8376 H   0  0  0  0  0  0  0  0  0  0  0  0
   -2.0788  -16.9414   24.8517 H   0  0  0  0  0  0  0  0  0  0  0  0
   -1.1177  -15.1200   20.1588 H   0  0  0  0  0  0  0  0  0  0  0  0
    0.5850  -13.1196   20.5379 H   0  0  0  0  0  0  0  0  0  0  0  0
   -0.9087  -12.1891   20.6005 H   0  0  0  0  0  0  0  0  0  0  0  0
   -2.5539  -12.7700   18.4657 H   0  0  0  0  0  0  0  0  0  0  0  0
   -2.6030  -12.5002   16.0582 H   0  0  0  0  0  0  0  0  0  0  0  0
   -2.4137  -13.2837   13.7226 H   0  0  0  0  0  0  0  0  0  0  0  0
   -1.5197  -12.5936   11.2605 H   0  0  0  0  0  0  0  0  0  0  0  0
    1.0704  -10.9958   13.9054 H   0  0  0  0  0  0  0  0  0  0  0  0
    1.7099  -12.4421   16.0033 H   0  0  0  0  0  0  0  0  0  0  0  0
    1.7359  -12.8818   18.4067 H   0  0  0  0  0  0  0  0  0  0  0  0
  1  2  2  0
  2  3  1  0
  3  4  1  0
  4  5  2  0
  5  6  1  0
  6  7  1  0
  7  8  1  0
  8  9  1  0
  2 10  1  0
 10 11  1  0
 11 12  1  0
 12 13  2  0
 13 14  1  0
 14 15  2  0
 15 16  1  0
 16 17  2  0
 17 18  1  0
 18 19  2  0
 19 20  1  0
 15 21  1  0
 21 22  2  0
  9  4  1  0
 22 12  1  0
 20 16  1  0
  3 23  1  0
  3 24  1  0
  5 25  1  0
  6 26  1  0
  6 27  1  0
  7 28  1  0
  8 29  1  0
  8 30  1  0
  9 31  1  0
  9 32  1  0
 10 33  1  0
 11 34  1  0
 11 35  1  0
 13 36  1  0
 14 37  1  0
 17 38  1  0
 18 39  1  0
 20 40  1  0
 21 41  1  0
 22 42  1  0
M  END
>  <Energy>  (1757) 
47.655651017333419

>  <compound_id>  (1757) 
12926

>  <target_id>  (1757) 
1

>  <reference_id>  (1757) 
85

>  <inspiration_ids>  (1757) 
[85, 96]

>  <energy_score>  (1757) 
-30.873960231263823

>  <distance_score>  (1757) 
10.77459582159229

>  <path>  (1757) 
/opt/xchem-fragalysis-2/maxwin/BulkDock/SCRATCH/511013/C12926-P85/C12926-P85.minimised.mol

>  <scratch_subdir>  (1757) 
/opt/xchem-fragalysis-2/maxwin/BulkDock/SCRATCH/511013/C12926-P85

>  <fragmenstein_runtime>  (1757) 
22.36219096183777

>  <fragmenstein_outcome>  (1757) 
too moved

>  <fragmenstein_mode>  (1757) 
expansion

>  <fragmenstein_error>  (1757) 


$$$$
C12926-P96
     RDKit          3D

 42 44  0  0  0  0  0  0  0  0999 V2000
   -4.1569  -17.1768   13.4880 O   0  0  0  0  0  0  0  0  0  0  0  0
   -3.5036  -17.7382   14.2860 C   0  0  0  0  0  0  0  0  0  0  0  0
   -4.2414  -17.7843   16.1533 C   0  0  0  0  0  0  0  0  0  0  0  0
   -5.0373  -18.2590   17.5212 C   0  0  0  0  0  0  0  0  0  0  0  0
   -5.9402  -17.4501   18.0723 C   0  0  0  0  0  0  0  0  0  0  0  0
   -6.8873  -17.4863   19.2440 C   0  0  0  0  0  0  0  0  0  0  0  0
   -6.5215  -18.4212   20.2568 N   0  0  0  0  0  0  0  0  0  0  0  0
   -5.6987  -19.4216   19.6207 C   0  0  0  0  0  0  0  0  0  0  0  0
   -4.5427  -19.0279   18.6855 C   0  0  0  0  0  0  0  0  0  0  0  0
   -2.0168  -18.6845   14.1081 N   0  0  0  0  0  0  0  0  0  0  0  0
   -0.9503  -19.3002   12.5255 C   0  0  0  0  0  0  0  0  0  0  0  0
    0.1140  -18.6635   11.4516 C   0  0  0  0  0  0  0  0  0  0  0  0
    1.4426  -19.1642   11.4956 C   0  0  0  0  0  0  0  0  0  0  0  0
    2.3848  -18.9562   10.4836 C   0  0  0  0  0  0  0  0  0  0  0  0
    2.0463  -18.2476    9.3410 C   0  0  0  0  0  0  0  0  0  0  0  0
    3.0031  -18.1402    8.2495 C   0  0  0  0  0  0  0  0  0  0  0  0
    4.3784  -18.2621    8.2317 C   0  0  0  0  0  0  0  0  0  0  0  0
    4.7496  -18.1049    6.8904 C   0  0  0  0  0  0  0  0  0  0  0  0
    3.6981  -17.9236    6.0927 N   0  0  0  0  0  0  0  0  0  0  0  0
    2.6490  -18.0027    6.9325 N   0  0  0  0  0  0  0  0  0  0  0  0
    0.7777  -17.6728    9.2915 C   0  0  0  0  0  0  0  0  0  0  0  0
   -0.1464  -17.8405   10.3480 C   0  0  0  0  0  0  0  0  0  0  0  0
   -3.4239  -17.9181   16.8536 H   0  0  0  0  0  0  0  0  0  0  0  0
   -4.6547  -16.7578   16.0757 H   0  0  0  0  0  0  0  0  0  0  0  0
   -5.7323  -16.5563   17.5501 H   0  0  0  0  0  0  0  0  0  0  0  0
   -7.8885  -17.7117   18.8564 H   0  0  0  0  0  0  0  0  0  0  0  0
   -6.9622  -16.5441   19.7792 H   0  0  0  0  0  0  0  0  0  0  0  0
   -7.3371  -18.8458   20.6842 H   0  0  0  0  0  0  0  0  0  0  0  0
   -6.3899  -19.8217   18.8922 H   0  0  0  0  0  0  0  0  0  0  0  0
   -5.3864  -20.1736   20.3429 H   0  0  0  0  0  0  0  0  0  0  0  0
   -4.0948  -19.9177   18.3406 H   0  0  0  0  0  0  0  0  0  0  0  0
   -3.7476  -18.4444   19.1321 H   0  0  0  0  0  0  0  0  0  0  0  0
   -1.6891  -18.9366   14.9622 H   0  0  0  0  0  0  0  0  0  0  0  0
   -0.0946  -19.7081   13.0518 H   0  0  0  0  0  0  0  0  0  0  0  0
   -1.4662  -20.1119   12.2813 H   0  0  0  0  0  0  0  0  0  0  0  0
    1.7665  -19.7777   12.3367 H   0  0  0  0  0  0  0  0  0  0  0  0
    3.3602  -19.4198   10.5966 H   0  0  0  0  0  0  0  0  0  0  0  0
    5.0263  -18.4435    9.0767 H   0  0  0  0  0  0  0  0  0  0  0  0
    5.7439  -18.1183    6.4640 H   0  0  0  0  0  0  0  0  0  0  0  0
    1.7118  -17.9724    6.5438 H   0  0  0  0  0  0  0  0  0  0  0  0
    0.4658  -17.0712    8.4428 H   0  0  0  0  0  0  0  0  0  0  0  0
   -1.0954  -17.3477   10.2105 H   0  0  0  0  0  0  0  0  0  0  0  0
  1  2  2  0
  2  3  1  0
  3  4  1  0
  4  5  2  0
  5  6  1  0
  6  7  1  0
  7  8  1  0
  8  9  1  0
  2 10  1  0
 10 11  1  0
 11 12  1  0
 12 13  2  0
 13 14  1  0
 14 15  2  0
 15 16  1  0
 16 17  2  0
 17 18  1  0
 18 19  2  0
 19 20  1  0
 15 21  1  0
 21 22  2  0
  9  4  1  0
 22 12  1  0
 20 16  1  0
  3 23  1  0
  3 24  1  0
  5 25  1  0
  6 26  1  0
  6 27  1  0
  7 28  1  0
  8 29  1  0
  8 30  1  0
  9 31  1  0
  9 32  1  0
 10 33  1  0
 11 34  1  0
 11 35  1  0
 13 36  1  0
 14 37  1  0
 17 38  1  0
 18 39  1  0
 20 40  1  0
 21 41  1  0
 22 42  1  0
M  END
>  <Energy>  (1758) 
359.8797647872463

>  <compound_id>  (1758) 
12926

>  <target_id>  (1758) 
1

>  <reference_id>  (1758) 
96

>  <inspiration_ids>  (1758) 
[85, 96]

>  <energy_score>  (1758) 
281.3501535386408

>  <distance_score>  (1758) 
8.941843156122385

>  <path>  (1758) 
/opt/xchem-fragalysis-2/maxwin/BulkDock/SCRATCH/511013/C12926-P96/C12926-P96.minimised.mol

>  <scratch_subdir>  (1758) 
/opt/xchem-fragalysis-2/maxwin/BulkDock/SCRATCH/511013/C12926-P96

>  <fragmenstein_runtime>  (1758) 
19.154754638671875

>  <fragmenstein_outcome>  (1758) 
too moved

>  <fragmenstein_mode>  (1758) 
expansion

>  <fragmenstein_error>  (1758) 


$$$$
C12937-P85
     RDKit          3D

 35 37  0  0  0  0  0  0  0  0999 V2000
   -1.4754  -24.4992   18.1061 O   0  0  0  0  0  0  0  0  0  0  0  0
   -1.2675  -23.4124   18.5594 C   0  0  0  0  0  0  0  0  0  0  0  0
   -3.1123  -22.5888   19.3519 C   0  0  0  0  0  0  0  0  0  0  0  0
   -3.9415  -24.2677   20.4816 C   0  0  0  0  0  0  0  0  0  0  0  0
   -3.4623  -25.5880   21.6577 C   0  0  0  0  0  0  0  0  0  0  0  0
   -2.5111  -26.5864   21.7519 C   0  0  0  0  0  0  0  0  0  0  0  0
   -2.8496  -27.3009   22.9254 C   0  0  0  0  0  0  0  0  0  0  0  0
   -3.9553  -26.8424   23.5135 N   0  0  0  0  0  0  0  0  0  0  0  0
   -4.3232  -25.8366   22.7091 N   0  0  0  0  0  0  0  0  0  0  0  0
    0.2336  -22.7299   18.7083 N   0  0  0  0  0  0  0  0  0  0  0  0
    1.6349  -23.3055   18.4465 C   0  0  0  0  0  0  0  0  0  0  0  0
    2.8688  -22.3056   18.3175 C   0  0  0  0  0  0  0  0  0  0  0  0
    2.9649  -21.6949   17.1234 C   0  0  0  0  0  0  0  0  0  0  0  0
    3.6918  -20.6363   16.4786 C   0  0  0  0  0  0  0  0  0  0  0  0
    4.3736  -20.9245   15.3097 N   0  0  0  0  0  0  0  0  0  0  0  0
    4.4328  -19.8032   14.5993 N   0  0  0  0  0  0  0  0  0  0  0  0
    3.7218  -18.9180   15.3112 N   0  0  0  0  0  0  0  0  0  0  0  0
    3.3515  -19.3325   16.5482 N   0  0  0  0  0  0  0  0  0  0  0  0
    1.7656  -22.0681   16.3716 C   0  0  0  0  0  0  0  0  0  0  0  0
    0.5975  -21.9218   17.4432 C   0  0  0  0  0  0  0  0  0  0  0  0
   -3.6234  -22.3533   18.4365 H   0  0  0  0  0  0  0  0  0  0  0  0
   -2.8961  -21.9319   20.1527 H   0  0  0  0  0  0  0  0  0  0  0  0
   -4.9384  -24.7305   20.5088 H   0  0  0  0  0  0  0  0  0  0  0  0
   -4.8672  -23.8610   21.0940 H   0  0  0  0  0  0  0  0  0  0  0  0
   -1.6672  -26.7526   21.0981 H   0  0  0  0  0  0  0  0  0  0  0  0
   -2.3284  -28.1411   23.3649 H   0  0  0  0  0  0  0  0  0  0  0  0
   -5.1596  -25.3148   22.9283 H   0  0  0  0  0  0  0  0  0  0  0  0
    1.8323  -23.8558   19.3788 H   0  0  0  0  0  0  0  0  0  0  0  0
    1.6018  -24.1224   17.7096 H   0  0  0  0  0  0  0  0  0  0  0  0
    3.5370  -22.1311   19.1500 H   0  0  0  0  0  0  0  0  0  0  0  0
    3.4496  -18.0149   14.9251 H   0  0  0  0  0  0  0  0  0  0  0  0
    1.8903  -23.0770   15.9607 H   0  0  0  0  0  0  0  0  0  0  0  0
    1.6116  -21.3782   15.5394 H   0  0  0  0  0  0  0  0  0  0  0  0
   -0.2275  -22.2136   16.8577 H   0  0  0  0  0  0  0  0  0  0  0  0
    0.7586  -20.8815   17.7441 H   0  0  0  0  0  0  0  0  0  0  0  0
  1  2  2  0
  2  3  1  0
  3  4  1  0
  4  5  1  0
  5  6  2  0
  6  7  1  0
  7  8  2  0
  8  9  1  0
  2 10  1  0
 10 11  1  0
 11 12  1  0
 12 13  2  0
 13 14  1  0
 14 15  1  0
 15 16  2  0
 16 17  1  0
 17 18  1  0
 13 19  1  0
 19 20  1  0
  9  5  1  0
 20 10  1  0
 18 14  2  0
  3 21  1  0
  3 22  1  0
  4 23  1  0
  4 24  1  0
  6 25  1  0
  7 26  1  0
  9 27  1  0
 11 28  1  0
 11 29  1  0
 12 30  1  0
 17 31  1  0
 19 32  1  0
 19 33  1  0
 20 34  1  0
 20 35  1  0
M  END
>  <Energy>  (1759) 
491.83306635801341

>  <compound_id>  (1759) 
12937

>  <target_id>  (1759) 
1

>  <reference_id>  (1759) 
85

>  <inspiration_ids>  (1759) 
[85, 96]

>  <energy_score>  (1759) 
454.2482067495282

>  <distance_score>  (1759) 
10.05798775941047

>  <path>  (1759) 
/opt/xchem-fragalysis-2/maxwin/BulkDock/SCRATCH/511013/C12937-P85/C12937-P85.minimised.mol

>  <scratch_subdir>  (1759) 
/opt/xchem-fragalysis-2/maxwin/BulkDock/SCRATCH/511013/C12937-P85

>  <fragmenstein_runtime>  (1759) 
9.4412522315979

>  <fragmenstein_outcome>  (1759) 
too moved

>  <fragmenstein_mode>  (1759) 
expansion

>  <fragmenstein_error>  (1759) 


$$$$
C12937-P96
     RDKit          3D

 35 37  0  0  0  0  0  0  0  0999 V2000
    5.6418  -25.7690   17.5457 O   0  0  0  0  0  0  0  0  0  0  0  0
    5.2962  -24.6516   17.8541 C   0  0  0  0  0  0  0  0  0  0  0  0
    4.2975  -24.5787   19.1108 C   0  0  0  0  0  0  0  0  0  0  0  0
    3.4722  -25.8537   19.5272 C   0  0  0  0  0  0  0  0  0  0  0  0
    2.2841  -25.6924   20.4878 C   0  0  0  0  0  0  0  0  0  0  0  0
    0.9138  -25.7512   20.2789 C   0  0  0  0  0  0  0  0  0  0  0  0
    0.3274  -25.7888   21.5610 C   0  0  0  0  0  0  0  0  0  0  0  0
    1.2378  -25.6873   22.5296 N   0  0  0  0  0  0  0  0  0  0  0  0
    2.4076  -25.6402   21.8589 N   0  0  0  0  0  0  0  0  0  0  0  0
    5.7046  -23.3209   17.2966 N   0  0  0  0  0  0  0  0  0  0  0  0
    6.7684  -22.9637   16.2443 C   0  0  0  0  0  0  0  0  0  0  0  0
    6.9024  -21.6108   15.5378 C   0  0  0  0  0  0  0  0  0  0  0  0
    5.8367  -20.9294   15.0954 C   0  0  0  0  0  0  0  0  0  0  0  0
    5.7554  -19.7609   14.2547 C   0  0  0  0  0  0  0  0  0  0  0  0
    4.7933  -19.6854   13.2650 N   0  0  0  0  0  0  0  0  0  0  0  0
    4.9332  -18.5081   12.6676 N   0  0  0  0  0  0  0  0  0  0  0  0
    5.9250  -17.9126   13.3378 N   0  0  0  0  0  0  0  0  0  0  0  0
    6.5399  -18.6674   14.2753 N   0  0  0  0  0  0  0  0  0  0  0  0
    4.5615  -21.4961   15.5695 C   0  0  0  0  0  0  0  0  0  0  0  0
    4.7716  -22.9172   16.1732 C   0  0  0  0  0  0  0  0  0  0  0  0
    4.8834  -24.2344   19.9697 H   0  0  0  0  0  0  0  0  0  0  0  0
    3.5393  -23.8573   18.8782 H   0  0  0  0  0  0  0  0  0  0  0  0
    3.0959  -26.3317   18.6135 H   0  0  0  0  0  0  0  0  0  0  0  0
    4.1709  -26.5768   19.9680 H   0  0  0  0  0  0  0  0  0  0  0  0
    0.4088  -25.8314   19.3275 H   0  0  0  0  0  0  0  0  0  0  0  0
   -0.7169  -25.8735   21.8274 H   0  0  0  0  0  0  0  0  0  0  0  0
    3.2647  -25.6222   22.4012 H   0  0  0  0  0  0  0  0  0  0  0  0
    7.6876  -23.0542   16.8425 H   0  0  0  0  0  0  0  0  0  0  0  0
    6.8684  -23.7919   15.5229 H   0  0  0  0  0  0  0  0  0  0  0  0
    7.9036  -21.2880   15.2643 H   0  0  0  0  0  0  0  0  0  0  0  0
    6.1900  -16.9476   13.1484 H   0  0  0  0  0  0  0  0  0  0  0  0
    3.8200  -21.5802   14.7656 H   0  0  0  0  0  0  0  0  0  0  0  0
    4.1415  -20.8252   16.3293 H   0  0  0  0  0  0  0  0  0  0  0  0
    3.8688  -22.9277   16.7500 H   0  0  0  0  0  0  0  0  0  0  0  0
    4.6828  -23.7147   15.4170 H   0  0  0  0  0  0  0  0  0  0  0  0
  1  2  2  0
  2  3  1  0
  3  4  1  0
  4  5  1  0
  5  6  2  0
  6  7  1  0
  7  8  2  0
  8  9  1  0
  2 10  1  0
 10 11  1  0
 11 12  1  0
 12 13  2  0
 13 14  1  0
 14 15  1  0
 15 16  2  0
 16 17  1  0
 17 18  1  0
 13 19  1  0
 19 20  1  0
  9  5  1  0
 20 10  1  0
 18 14  2  0
  3 21  1  0
  3 22  1  0
  4 23  1  0
  4 24  1  0
  6 25  1  0
  7 26  1  0
  9 27  1  0
 11 28  1  0
 11 29  1  0
 12 30  1  0
 17 31  1  0
 19 32  1  0
 19 33  1  0
 20 34  1  0
 20 35  1  0
M  END
>  <Energy>  (1760) 
95.469722420138154

>  <compound_id>  (1760) 
12937

>  <target_id>  (1760) 
1

>  <reference_id>  (1760) 
96

>  <inspiration_ids>  (1760) 
[85, 96]

>  <energy_score>  (1760) 
57.88486281166183

>  <distance_score>  (1760) 
11.011462971373955

>  <path>  (1760) 
/opt/xchem-fragalysis-2/maxwin/BulkDock/SCRATCH/511013/C12937-P96/C12937-P96.minimised.mol

>  <scratch_subdir>  (1760) 
/opt/xchem-fragalysis-2/maxwin/BulkDock/SCRATCH/511013/C12937-P96

>  <fragmenstein_runtime>  (1760) 
11.324509143829346

>  <fragmenstein_outcome>  (1760) 
too moved

>  <fragmenstein_mode>  (1760) 
expansion

>  <fragmenstein_error>  (1760) 


$$$$
C29473-P146
     RDKit          3D

 41 44  0  0  0  0  0  0  0  0999 V2000
   -8.0165  -19.7423   12.0573 C   0  0  0  0  0  0  0  0  0  0  0  0
   -8.1211  -21.2237   12.5888 C   0  0  0  0  0  0  0  0  0  0  0  0
   -6.8057  -21.8609   13.1033 C   0  0  0  0  0  0  0  0  0  0  0  0
   -5.4337  -21.0081   12.8915 C   0  0  0  0  0  0  0  0  0  0  0  0
   -5.4469  -19.5282   12.6052 C   0  0  0  0  0  0  0  0  0  0  0  0
   -6.7300  -18.9234   12.1743 C   0  0  0  0  0  0  0  0  0  0  0  0
   -4.1303  -18.7059   12.4736 C   0  0  0  0  0  0  0  0  0  0  0  0
   -2.8901  -19.5204   12.3798 N   0  0  0  0  0  0  0  0  0  0  0  0
   -1.6623  -18.8152   11.8098 C   0  0  0  0  0  0  0  0  0  0  0  0
   -0.7892  -17.8594   12.7112 C   0  0  0  0  0  0  0  0  0  0  0  0
    0.6439  -17.7148   12.3317 N   0  0  0  0  0  0  0  0  0  0  0  0
    1.7369  -17.9820   13.1312 C   0  0  0  0  0  0  0  0  0  0  0  0
    2.8479  -17.9750   12.3187 C   0  0  0  0  0  0  0  0  0  0  0  0
    2.3408  -17.6359   11.0502 C   0  0  0  0  0  0  0  0  0  0  0  0
    1.0196  -17.4080   11.0623 N   0  0  0  0  0  0  0  0  0  0  0  0
   -3.2243  -20.7041   11.5406 C   0  0  0  0  0  0  0  0  0  0  0  0
   -4.1307  -21.7221   12.2911 C   0  0  0  0  0  0  0  0  0  0  0  0
   -4.3420  -22.9533   11.4552 N   0  0  0  0  0  0  0  0  0  0  0  0
   -4.0753  -23.1213   10.1097 C   0  0  0  0  0  0  0  0  0  0  0  0
   -4.3022  -24.4451    9.8086 C   0  0  0  0  0  0  0  0  0  0  0  0
   -4.6371  -25.0349   11.0291 C   0  0  0  0  0  0  0  0  0  0  0  0
   -4.5897  -24.1638   12.0301 N   0  0  0  0  0  0  0  0  0  0  0  0
   -8.8771  -19.2747   11.6057 H   0  0  0  0  0  0  0  0  0  0  0  0
   -9.0139  -21.8290   12.5040 H   0  0  0  0  0  0  0  0  0  0  0  0
   -6.8259  -22.9332   13.1746 H   0  0  0  0  0  0  0  0  0  0  0  0
   -6.7561  -17.8864   11.8432 H   0  0  0  0  0  0  0  0  0  0  0  0
   -4.2257  -18.0890   11.5711 H   0  0  0  0  0  0  0  0  0  0  0  0
   -4.0590  -18.0408   13.3407 H   0  0  0  0  0  0  0  0  0  0  0  0
   -0.9671  -19.6056   11.4963 H   0  0  0  0  0  0  0  0  0  0  0  0
   -1.9427  -18.2851   10.8905 H   0  0  0  0  0  0  0  0  0  0  0  0
   -1.2073  -16.8472   12.7169 H   0  0  0  0  0  0  0  0  0  0  0  0
   -0.7867  -18.2390   13.7393 H   0  0  0  0  0  0  0  0  0  0  0  0
    1.6173  -18.1832   14.1861 H   0  0  0  0  0  0  0  0  0  0  0  0
    3.8691  -18.1763   12.6035 H   0  0  0  0  0  0  0  0  0  0  0  0
    2.8813  -17.5157   10.1204 H   0  0  0  0  0  0  0  0  0  0  0  0
   -3.6745  -20.3724   10.5946 H   0  0  0  0  0  0  0  0  0  0  0  0
   -2.2982  -21.2331   11.2774 H   0  0  0  0  0  0  0  0  0  0  0  0
   -3.4817  -22.0429   13.1020 H   0  0  0  0  0  0  0  0  0  0  0  0
   -3.7856  -22.2985    9.4750 H   0  0  0  0  0  0  0  0  0  0  0  0
   -4.2216  -24.9141    8.8395 H   0  0  0  0  0  0  0  0  0  0  0  0
   -4.8799  -26.0673   11.2424 H   0  0  0  0  0  0  0  0  0  0  0  0
  1  2  2  0
  2  3  1  0
  3  4  2  0
  4  5  1  0
  5  6  2  0
  5  7  1  0
  7  8  1  0
  8  9  1  0
  9 10  1  0
 10 11  1  0
 11 12  1  0
 12 13  2  0
 13 14  1  0
 14 15  2  0
  8 16  1  0
 16 17  1  0
 17 18  1  0
 18 19  1  0
 19 20  2  0
 20 21  1  0
 21 22  2  0
  6  1  1  0
 15 11  1  0
 22 18  1  0
 17  4  1  0
  1 23  1  0
  2 24  1  0
  3 25  1  0
  6 26  1  0
  7 27  1  0
  7 28  1  0
  9 29  1  0
  9 30  1  0
 10 31  1  0
 10 32  1  0
 12 33  1  0
 13 34  1  0
 14 35  1  0
 16 36  1  0
 16 37  1  0
 17 38  1  0
 19 39  1  0
 20 40  1  0
 21 41  1  0
M  END
>  <Energy>  (1761) 
182.30179640894355

>  <compound_id>  (1761) 
29473

>  <target_id>  (1761) 
1

>  <reference_id>  (1761) 
146

>  <inspiration_ids>  (1761) 
[146, 112]

>  <energy_score>  (1761) 
28.135223153978473

>  <distance_score>  (1761) 
16.002139476369138

>  <path>  (1761) 
/opt/xchem-fragalysis-2/maxwin/BulkDock/SCRATCH/511013/C29473-P146/C29473-P146.minimised.mol

>  <scratch_subdir>  (1761) 
/opt/xchem-fragalysis-2/maxwin/BulkDock/SCRATCH/511013/C29473-P146

>  <fragmenstein_runtime>  (1761) 
9.023722410202026

>  <fragmenstein_outcome>  (1761) 
too moved

>  <fragmenstein_mode>  (1761) 
expansion

>  <fragmenstein_error>  (1761) 


$$$$
C29473-P112
     RDKit          3D

 41 44  0  0  0  0  0  0  0  0999 V2000
   -4.9330  -14.4742   17.1293 C   0  0  0  0  0  0  0  0  0  0  0  0
   -5.2314  -15.6886   16.5071 C   0  0  0  0  0  0  0  0  0  0  0  0
   -4.1909  -16.5429   16.1485 C   0  0  0  0  0  0  0  0  0  0  0  0
   -2.8429  -16.1777   16.3935 C   0  0  0  0  0  0  0  0  0  0  0  0
   -2.5451  -14.9564   17.0467 C   0  0  0  0  0  0  0  0  0  0  0  0
   -3.6061  -14.1145   17.4075 C   0  0  0  0  0  0  0  0  0  0  0  0
   -1.0981  -14.6200   17.4360 C   0  0  0  0  0  0  0  0  0  0  0  0
   -0.1363  -14.8616   16.3600 N   0  0  0  0  0  0  0  0  0  0  0  0
    1.2713  -14.0115   16.4786 C   0  0  0  0  0  0  0  0  0  0  0  0
    2.0555  -12.6798   15.1257 C   0  0  0  0  0  0  0  0  0  0  0  0
    3.7404  -11.5958   15.2618 N   0  0  0  0  0  0  0  0  0  0  0  0
    4.9728  -11.7854   14.3624 C   0  0  0  0  0  0  0  0  0  0  0  0
    5.3777  -10.7528   13.6575 C   0  0  0  0  0  0  0  0  0  0  0  0
    4.4582   -9.8866   13.8646 C   0  0  0  0  0  0  0  0  0  0  0  0
    3.5739  -10.3769   14.6683 N   0  0  0  0  0  0  0  0  0  0  0  0
   -0.3459  -16.1630   15.6388 C   0  0  0  0  0  0  0  0  0  0  0  0
   -1.6314  -17.0581   16.0826 C   0  0  0  0  0  0  0  0  0  0  0  0
   -1.9987  -18.2328   15.2679 N   0  0  0  0  0  0  0  0  0  0  0  0
   -2.3412  -18.2821   13.9371 C   0  0  0  0  0  0  0  0  0  0  0  0
   -2.8103  -19.5548   13.6920 C   0  0  0  0  0  0  0  0  0  0  0  0
   -2.7168  -20.2149   14.9270 C   0  0  0  0  0  0  0  0  0  0  0  0
   -2.2673  -19.4145   15.8962 N   0  0  0  0  0  0  0  0  0  0  0  0
   -5.7413  -13.8063   17.4169 H   0  0  0  0  0  0  0  0  0  0  0  0
   -6.2622  -15.9686   16.3122 H   0  0  0  0  0  0  0  0  0  0  0  0
   -4.4434  -17.4969   15.6928 H   0  0  0  0  0  0  0  0  0  0  0  0
   -3.4098  -13.1764   17.9204 H   0  0  0  0  0  0  0  0  0  0  0  0
   -0.8301  -15.2129   18.3190 H   0  0  0  0  0  0  0  0  0  0  0  0
   -1.0681  -13.5690   17.7397 H   0  0  0  0  0  0  0  0  0  0  0  0
    1.2399  -13.6444   17.4963 H   0  0  0  0  0  0  0  0  0  0  0  0
    2.0031  -14.8089   16.7631 H   0  0  0  0  0  0  0  0  0  0  0  0
    1.8086  -12.1639   15.9152 H   0  0  0  0  0  0  0  0  0  0  0  0
    1.5275  -12.2571   14.2411 H   0  0  0  0  0  0  0  0  0  0  0  0
    5.4936  -12.6553   14.0953 H   0  0  0  0  0  0  0  0  0  0  0  0
    5.9922  -10.8457   12.8612 H   0  0  0  0  0  0  0  0  0  0  0  0
    4.3166   -8.8696   13.5460 H   0  0  0  0  0  0  0  0  0  0  0  0
    0.5456  -16.7888   15.7598 H   0  0  0  0  0  0  0  0  0  0  0  0
   -0.4454  -15.9332   14.5719 H   0  0  0  0  0  0  0  0  0  0  0  0
   -1.3407  -17.4942   17.0519 H   0  0  0  0  0  0  0  0  0  0  0  0
   -2.2341  -17.4153   13.2997 H   0  0  0  0  0  0  0  0  0  0  0  0
   -3.1580  -19.9596   12.7523 H   0  0  0  0  0  0  0  0  0  0  0  0
   -2.9566  -21.2430   15.1642 H   0  0  0  0  0  0  0  0  0  0  0  0
  1  2  2  0
  2  3  1  0
  3  4  2  0
  4  5  1  0
  5  6  2  0
  5  7  1  0
  7  8  1  0
  8  9  1  0
  9 10  1  0
 10 11  1  0
 11 12  1  0
 12 13  2  0
 13 14  1  0
 14 15  2  0
  8 16  1  0
 16 17  1  0
 17 18  1  0
 18 19  1  0
 19 20  2  0
 20 21  1  0
 21 22  2  0
  6  1  1  0
 15 11  1  0
 22 18  1  0
 17  4  1  0
  1 23  1  0
  2 24  1  0
  3 25  1  0
  6 26  1  0
  7 27  1  0
  7 28  1  0
  9 29  1  0
  9 30  1  0
 10 31  1  0
 10 32  1  0
 12 33  1  0
 13 34  1  0
 14 35  1  0
 16 36  1  0
 16 37  1  0
 17 38  1  0
 19 39  1  0
 20 40  1  0
 21 41  1  0
M  END
>  <Energy>  (1762) 
410.95881084245309

>  <compound_id>  (1762) 
29473

>  <target_id>  (1762) 
1

>  <reference_id>  (1762) 
112

>  <inspiration_ids>  (1762) 
[146, 112]

>  <energy_score>  (1762) 
256.79223758748833

>  <distance_score>  (1762) 
15.116934210275463

>  <path>  (1762) 
/opt/xchem-fragalysis-2/maxwin/BulkDock/SCRATCH/511013/C29473-P112/C29473-P112.minimised.mol

>  <scratch_subdir>  (1762) 
/opt/xchem-fragalysis-2/maxwin/BulkDock/SCRATCH/511013/C29473-P112

>  <fragmenstein_runtime>  (1762) 
8.302348852157593

>  <fragmenstein_outcome>  (1762) 
too moved

>  <fragmenstein_mode>  (1762) 
expansion

>  <fragmenstein_error>  (1762) 


$$$$
C29492-P146
     RDKit          3D

 39 41  0  0  0  0  0  0  0  0999 V2000
    1.2483  -12.9434   13.4625 C   0  0  0  0  0  0  0  0  0  0  0  0
    2.2429  -12.9560   15.1588 C   0  0  0  0  0  0  0  0  0  0  0  0
    1.4591  -14.1305   16.6105 C   0  0  0  0  0  0  0  0  0  0  0  0
    0.0171  -13.9237   17.2921 N   0  0  0  0  0  0  0  0  0  0  0  0
   -0.7943  -12.8723   17.8170 C   0  0  0  0  0  0  0  0  0  0  0  0
   -2.0909  -13.1479   17.8594 C   0  0  0  0  0  0  0  0  0  0  0  0
   -2.0078  -14.3513   17.2523 C   0  0  0  0  0  0  0  0  0  0  0  0
   -0.8125  -14.9027   17.4304 N   0  0  0  0  0  0  0  0  0  0  0  0
    3.6685  -11.5657   15.8112 C   0  0  0  0  0  0  0  0  0  0  0  0
    3.9579  -11.5392   16.9371 O   0  0  0  0  0  0  0  0  0  0  0  0
    4.1329  -10.5016   14.3800 N   0  0  0  0  0  0  0  0  0  0  0  0
    5.2168   -9.3882   14.5322 C   0  0  0  0  0  0  0  0  0  0  0  0
    5.2050   -8.3268   16.1877 C   0  0  0  0  0  0  0  0  0  0  0  0
    5.8405   -6.9450   15.5837 C   0  0  0  0  0  0  0  0  0  0  0  0
    6.2228   -5.5609   16.0997 C   0  0  0  0  0  0  0  0  0  0  0  0
    8.1109   -4.1816   15.6229 Cl  0  0  0  0  0  0  0  0  0  0  0  0
    4.9653   -4.7762   15.8655 C   0  0  0  0  0  0  0  0  0  0  0  0
    3.7647   -5.1952   15.1971 C   0  0  0  0  0  0  0  0  0  0  0  0
    3.7084   -6.3822   14.4778 C   0  0  0  0  0  0  0  0  0  0  0  0
    4.7909   -7.2278   14.6258 C   0  0  0  0  0  0  0  0  0  0  0  0
    5.0988   -8.8802   14.0798 C   0  0  0  0  0  0  0  0  0  0  0  0
    0.1488  -13.0259   13.3240 H   0  0  0  0  0  0  0  0  0  0  0  0
    1.3276  -12.0231   12.8959 H   0  0  0  0  0  0  0  0  0  0  0  0
    1.4610  -13.8275   12.8416 H   0  0  0  0  0  0  0  0  0  0  0  0
    1.6210  -12.5057   15.7233 H   0  0  0  0  0  0  0  0  0  0  0  0
    1.8778  -15.1100   16.4204 H   0  0  0  0  0  0  0  0  0  0  0  0
    2.0191  -14.1734   17.5798 H   0  0  0  0  0  0  0  0  0  0  0  0
   -0.5964  -11.8815   18.1143 H   0  0  0  0  0  0  0  0  0  0  0  0
   -2.8587  -12.4265   18.1082 H   0  0  0  0  0  0  0  0  0  0  0  0
   -2.8429  -14.9181   16.8596 H   0  0  0  0  0  0  0  0  0  0  0  0
    5.7731  -10.4842   14.4655 H   0  0  0  0  0  0  0  0  0  0  0  0
    6.6044   -9.4418   14.6388 H   0  0  0  0  0  0  0  0  0  0  0  0
    4.1454   -8.2352   16.4997 H   0  0  0  0  0  0  0  0  0  0  0  0
    5.7096   -8.6813   17.0784 H   0  0  0  0  0  0  0  0  0  0  0  0
    4.9125   -3.6937   15.9273 H   0  0  0  0  0  0  0  0  0  0  0  0
    2.9559   -4.4721   15.0812 H   0  0  0  0  0  0  0  0  0  0  0  0
    2.8570   -6.5696   13.8377 H   0  0  0  0  0  0  0  0  0  0  0  0
    4.4785   -8.6047   13.0644 H   0  0  0  0  0  0  0  0  0  0  0  0
    6.0061   -8.8177   13.1073 H   0  0  0  0  0  0  0  0  0  0  0  0
  1  2  1  0
  2  3  1  0
  3  4  1  0
  4  5  1  0
  5  6  2  0
  6  7  1  0
  7  8  2  0
  2  9  1  0
  9 10  2  0
  9 11  1  0
 11 12  1  0
 12 13  1  0
 13 14  1  0
 14 15  2  0
 15 16  1  0
 15 17  1  0
 17 18  2  0
 18 19  1  0
 19 20  2  0
 20 21  1  0
  8  4  1  0
 21 11  1  0
 20 14  1  0
  1 22  1  0
  1 23  1  0
  1 24  1  0
  2 25  1  0
  3 26  1  0
  3 27  1  0
  5 28  1  0
  6 29  1  0
  7 30  1  0
 12 31  1  0
 12 32  1  0
 13 33  1  0
 13 34  1  0
 17 35  1  0
 18 36  1  0
 19 37  1  0
 21 38  1  0
 21 39  1  0
M  END
>  <Energy>  (1763) 
1342.0822649825986

>  <compound_id>  (1763) 
29492

>  <target_id>  (1763) 
1

>  <reference_id>  (1763) 
146

>  <inspiration_ids>  (1763) 
[146, 112]

>  <energy_score>  (1763) 
1298.9327375507926

>  <distance_score>  (1763) 
12.382005681890073

>  <path>  (1763) 
/opt/xchem-fragalysis-2/maxwin/BulkDock/SCRATCH/511013/C29492-P146/C29492-P146.minimised.mol

>  <scratch_subdir>  (1763) 
/opt/xchem-fragalysis-2/maxwin/BulkDock/SCRATCH/511013/C29492-P146

>  <fragmenstein_runtime>  (1763) 
14.27321982383728

>  <fragmenstein_outcome>  (1763) 
too moved

>  <fragmenstein_mode>  (1763) 
expansion

>  <fragmenstein_error>  (1763) 


$$$$
C29492-P112
     RDKit          3D

 39 41  0  0  0  0  0  0  0  0999 V2000
    2.3338  -16.6174   17.3949 C   0  0  0  0  0  0  0  0  0  0  0  0
    0.9769  -17.0860   18.3027 C   0  0  0  0  0  0  0  0  0  0  0  0
   -0.8373  -18.0004   17.5749 C   0  0  0  0  0  0  0  0  0  0  0  0
   -2.8004  -17.8888   17.2367 N   0  0  0  0  0  0  0  0  0  0  0  0
   -4.0074  -18.9341   17.4642 C   0  0  0  0  0  0  0  0  0  0  0  0
   -5.1704  -18.5014   16.9210 C   0  0  0  0  0  0  0  0  0  0  0  0
   -4.8520  -17.2289   16.5219 C   0  0  0  0  0  0  0  0  0  0  0  0
   -3.6260  -16.7845   16.8127 N   0  0  0  0  0  0  0  0  0  0  0  0
    1.8796  -16.7036   19.9178 C   0  0  0  0  0  0  0  0  0  0  0  0
    1.5231  -17.2755   20.8599 O   0  0  0  0  0  0  0  0  0  0  0  0
    3.1861  -15.6153   19.6574 N   0  0  0  0  0  0  0  0  0  0  0  0
    4.0869  -15.0160   20.4263 C   0  0  0  0  0  0  0  0  0  0  0  0
    4.5593  -13.1779   20.1385 C   0  0  0  0  0  0  0  0  0  0  0  0
    5.9812  -13.1397   20.4878 C   0  0  0  0  0  0  0  0  0  0  0  0
    7.0208  -12.2061   20.4328 C   0  0  0  0  0  0  0  0  0  0  0  0
    6.8739  -10.6161   19.7714 Cl  0  0  0  0  0  0  0  0  0  0  0  0
    8.2642  -12.5947   20.9317 C   0  0  0  0  0  0  0  0  0  0  0  0
    8.4261  -13.8788   21.4859 C   0  0  0  0  0  0  0  0  0  0  0  0
    7.3548  -14.7939   21.5533 C   0  0  0  0  0  0  0  0  0  0  0  0
    6.1342  -14.4067   21.0249 C   0  0  0  0  0  0  0  0  0  0  0  0
    4.5658  -15.2689   21.0487 C   0  0  0  0  0  0  0  0  0  0  0  0
    3.2329  -17.0143   17.8847 H   0  0  0  0  0  0  0  0  0  0  0  0
    2.5021  -17.0056   16.3885 H   0  0  0  0  0  0  0  0  0  0  0  0
    2.3975  -15.5256   17.3638 H   0  0  0  0  0  0  0  0  0  0  0  0
    1.4183  -18.1302   18.4173 H   0  0  0  0  0  0  0  0  0  0  0  0
   -0.7863  -18.3219   16.5564 H   0  0  0  0  0  0  0  0  0  0  0  0
   -0.7042  -19.0589   17.8381 H   0  0  0  0  0  0  0  0  0  0  0  0
   -3.8311  -19.8405   18.0268 H   0  0  0  0  0  0  0  0  0  0  0  0
   -6.1204  -19.0135   16.8844 H   0  0  0  0  0  0  0  0  0  0  0  0
   -5.5641  -16.5664   16.0662 H   0  0  0  0  0  0  0  0  0  0  0  0
    3.0618  -14.4360   20.7375 H   0  0  0  0  0  0  0  0  0  0  0  0
    4.5968  -15.0392   19.3008 H   0  0  0  0  0  0  0  0  0  0  0  0
    4.0360  -12.5963   20.9003 H   0  0  0  0  0  0  0  0  0  0  0  0
    4.3587  -12.9013   19.1109 H   0  0  0  0  0  0  0  0  0  0  0  0
    9.1107  -11.9131   20.9035 H   0  0  0  0  0  0  0  0  0  0  0  0
    9.3983  -14.1675   21.8826 H   0  0  0  0  0  0  0  0  0  0  0  0
    7.4938  -15.7709   22.0062 H   0  0  0  0  0  0  0  0  0  0  0  0
    4.1447  -15.2108   22.2026 H   0  0  0  0  0  0  0  0  0  0  0  0
    5.0164  -16.3860   21.1876 H   0  0  0  0  0  0  0  0  0  0  0  0
  1  2  1  0
  2  3  1  0
  3  4  1  0
  4  5  1  0
  5  6  2  0
  6  7  1  0
  7  8  2  0
  2  9  1  0
  9 10  2  0
  9 11  1  0
 11 12  1  0
 12 13  1  0
 13 14  1  0
 14 15  2  0
 15 16  1  0
 15 17  1  0
 17 18  2  0
 18 19  1  0
 19 20  2  0
 20 21  1  0
  8  4  1  0
 21 11  1  0
 20 14  1  0
  1 22  1  0
  1 23  1  0
  1 24  1  0
  2 25  1  0
  3 26  1  0
  3 27  1  0
  5 28  1  0
  6 29  1  0
  7 30  1  0
 12 31  1  0
 12 32  1  0
 13 33  1  0
 13 34  1  0
 17 35  1  0
 18 36  1  0
 19 37  1  0
 21 38  1  0
 21 39  1  0
M  END
>  <Energy>  (1764) 
1182.7920470619604

>  <compound_id>  (1764) 
29492

>  <target_id>  (1764) 
1

>  <reference_id>  (1764) 
112

>  <inspiration_ids>  (1764) 
[146, 112]

>  <energy_score>  (1764) 
1139.642519630159

>  <distance_score>  (1764) 
13.586756548003198

>  <path>  (1764) 
/opt/xchem-fragalysis-2/maxwin/BulkDock/SCRATCH/511013/C29492-P112/C29492-P112.minimised.mol

>  <scratch_subdir>  (1764) 
/opt/xchem-fragalysis-2/maxwin/BulkDock/SCRATCH/511013/C29492-P112

>  <fragmenstein_runtime>  (1764) 
14.763950109481812

>  <fragmenstein_outcome>  (1764) 
too moved

>  <fragmenstein_mode>  (1764) 
expansion

>  <fragmenstein_error>  (1764) 


$$$$
C29493-P146
     RDKit          3D

 44 46  0  0  0  0  0  0  0  0999 V2000
    5.2695   -8.3370   13.5053 C   0  0  0  0  0  0  0  0  0  0  0  0
    5.4943   -8.0040   12.0117 C   0  0  0  0  0  0  0  0  0  0  0  0
    4.7231   -6.7868   11.4803 C   0  0  0  0  0  0  0  0  0  0  0  0
    7.0447   -7.7359   11.9692 C   0  0  0  0  0  0  0  0  0  0  0  0
    7.7782   -8.7223   11.7665 O   0  0  0  0  0  0  0  0  0  0  0  0
    7.8195   -6.5169   12.1658 N   0  0  0  0  0  0  0  0  0  0  0  0
    8.2334   -5.4593   10.4497 C   0  0  0  0  0  0  0  0  0  0  0  0
   10.4099   -4.9190   10.6049 C   0  0  0  0  0  0  0  0  0  0  0  0
   11.2050   -4.3487   12.3406 C   0  0  0  0  0  0  0  0  0  0  0  0
   10.5008   -4.7189   13.8127 C   0  0  0  0  0  0  0  0  0  0  0  0
   10.8081   -3.9450   14.9833 C   0  0  0  0  0  0  0  0  0  0  0  0
   11.1624   -2.6366   14.8831 C   0  0  0  0  0  0  0  0  0  0  0  0
   11.5778   -2.2021   13.6630 C   0  0  0  0  0  0  0  0  0  0  0  0
   11.9877   -3.1285   12.6321 C   0  0  0  0  0  0  0  0  0  0  0  0
   13.8220   -2.5861   12.6121 S   0  0  0  0  0  0  0  0  0  0  0  0
   14.2360   -2.3207   14.2651 N   0  0  0  0  0  0  0  0  0  0  0  0
   14.7589   -3.6048   12.2368 O   0  0  0  0  0  0  0  0  0  0  0  0
   13.9337   -1.2181   12.1397 O   0  0  0  0  0  0  0  0  0  0  0  0
    8.6093   -5.6616   13.9485 C   0  0  0  0  0  0  0  0  0  0  0  0
    4.9899   -9.2384   11.1803 N   0  0  0  0  0  0  0  0  0  0  0  0
    3.8131   -9.3603   10.4327 C   0  0  0  0  0  0  0  0  0  0  0  0
    3.7338  -10.6414    9.9366 C   0  0  0  0  0  0  0  0  0  0  0  0
    4.9278  -11.2271   10.3561 C   0  0  0  0  0  0  0  0  0  0  0  0
    5.6442  -10.4323   11.1620 N   0  0  0  0  0  0  0  0  0  0  0  0
    6.2142   -8.4818   14.0454 H   0  0  0  0  0  0  0  0  0  0  0  0
    4.7511   -7.5365   14.0346 H   0  0  0  0  0  0  0  0  0  0  0  0
    4.7359   -9.2762   13.6602 H   0  0  0  0  0  0  0  0  0  0  0  0
    4.8493   -5.8898   12.0767 H   0  0  0  0  0  0  0  0  0  0  0  0
    3.6424   -6.9348   11.4582 H   0  0  0  0  0  0  0  0  0  0  0  0
    5.0417   -6.5460   10.4589 H   0  0  0  0  0  0  0  0  0  0  0  0
    7.4898   -4.6649   10.1842 H   0  0  0  0  0  0  0  0  0  0  0  0
    8.0988   -6.2120    9.6251 H   0  0  0  0  0  0  0  0  0  0  0  0
   10.7089   -4.4194    9.7022 H   0  0  0  0  0  0  0  0  0  0  0  0
   11.1241   -5.7675   10.4678 H   0  0  0  0  0  0  0  0  0  0  0  0
   10.7683   -4.2983   15.9952 H   0  0  0  0  0  0  0  0  0  0  0  0
   11.2199   -1.9876   15.7484 H   0  0  0  0  0  0  0  0  0  0  0  0
   11.9310   -1.1658   13.6329 H   0  0  0  0  0  0  0  0  0  0  0  0
   14.3668   -1.3112   14.3661 H   0  0  0  0  0  0  0  0  0  0  0  0
   15.0969   -2.8250   14.4679 H   0  0  0  0  0  0  0  0  0  0  0  0
    8.5682   -6.6044   14.6306 H   0  0  0  0  0  0  0  0  0  0  0  0
    8.4879   -4.7570   14.6244 H   0  0  0  0  0  0  0  0  0  0  0  0
    3.1193   -8.5428   10.3238 H   0  0  0  0  0  0  0  0  0  0  0  0
    2.9491  -11.0636    9.3279 H   0  0  0  0  0  0  0  0  0  0  0  0
    5.2994  -12.2227   10.1535 H   0  0  0  0  0  0  0  0  0  0  0  0
  1  2  1  0
  2  3  1  0
  2  4  1  0
  4  5  2  0
  4  6  1  0
  6  7  1  0
  7  8  1  0
  8  9  1  0
  9 10  2  0
 10 11  1  0
 11 12  2  0
 12 13  1  0
 13 14  2  0
 14 15  1  0
 15 16  1  0
 15 17  2  0
 15 18  2  0
 10 19  1  0
  2 20  1  0
 20 21  1  0
 21 22  2  0
 22 23  1  0
 23 24  2  0
 19  6  1  0
 24 20  1  0
 14  9  1  0
  1 25  1  0
  1 26  1  0
  1 27  1  0
  3 28  1  0
  3 29  1  0
  3 30  1  0
  7 31  1  0
  7 32  1  0
  8 33  1  0
  8 34  1  0
 11 35  1  0
 12 36  1  0
 13 37  1  0
 16 38  1  0
 16 39  1  0
 19 40  1  0
 19 41  1  0
 21 42  1  0
 22 43  1  0
 23 44  1  0
M  END
>  <Energy>  (1765) 
710.82556511250334

>  <compound_id>  (1765) 
29493

>  <target_id>  (1765) 
1

>  <reference_id>  (1765) 
146

>  <inspiration_ids>  (1765) 
[146, 112]

>  <energy_score>  (1765) 
658.3175253429893

>  <distance_score>  (1765) 
12.86787701807174

>  <path>  (1765) 
/opt/xchem-fragalysis-2/maxwin/BulkDock/SCRATCH/511013/C29493-P146/C29493-P146.minimised.mol

>  <scratch_subdir>  (1765) 
/opt/xchem-fragalysis-2/maxwin/BulkDock/SCRATCH/511013/C29493-P146

>  <fragmenstein_runtime>  (1765) 
15.51087760925293

>  <fragmenstein_outcome>  (1765) 
too moved

>  <fragmenstein_mode>  (1765) 
expansion

>  <fragmenstein_error>  (1765) 


$$$$
C29493-P112
     RDKit          3D

 44 46  0  0  0  0  0  0  0  0999 V2000
   -0.4843   -4.0066   19.7352 C   0  0  0  0  0  0  0  0  0  0  0  0
   -0.2766   -4.7080   18.3689 C   0  0  0  0  0  0  0  0  0  0  0  0
   -0.9464   -3.8825   17.2592 C   0  0  0  0  0  0  0  0  0  0  0  0
    1.3139   -4.7217   18.0881 C   0  0  0  0  0  0  0  0  0  0  0  0
    1.8883   -5.7331   17.7150 O   0  0  0  0  0  0  0  0  0  0  0  0
    2.0263   -3.5128   18.4055 N   0  0  0  0  0  0  0  0  0  0  0  0
    2.4369   -2.3946   17.7249 C   0  0  0  0  0  0  0  0  0  0  0  0
    3.5248   -0.9817   18.1129 C   0  0  0  0  0  0  0  0  0  0  0  0
    4.1768   -0.8407   16.7761 C   0  0  0  0  0  0  0  0  0  0  0  0
    3.5101   -1.7768   15.9536 C   0  0  0  0  0  0  0  0  0  0  0  0
    3.9121   -2.0354   14.6519 C   0  0  0  0  0  0  0  0  0  0  0  0
    5.0211   -1.3261   14.1667 C   0  0  0  0  0  0  0  0  0  0  0  0
    5.6951   -0.3728   14.9611 C   0  0  0  0  0  0  0  0  0  0  0  0
    5.2797   -0.1175   16.2812 C   0  0  0  0  0  0  0  0  0  0  0  0
    6.2278    1.0432   17.2367 S   0  0  0  0  0  0  0  0  0  0  0  0
    7.8647    0.8060   16.8134 N   0  0  0  0  0  0  0  0  0  0  0  0
    6.1722    0.6665   18.6304 O   0  0  0  0  0  0  0  0  0  0  0  0
    5.8982    2.3711   16.7787 O   0  0  0  0  0  0  0  0  0  0  0  0
    2.1266   -2.4691   16.7973 C   0  0  0  0  0  0  0  0  0  0  0  0
   -1.0295   -6.0537   18.4813 N   0  0  0  0  0  0  0  0  0  0  0  0
   -2.3852   -6.2047   18.8026 C   0  0  0  0  0  0  0  0  0  0  0  0
   -2.6803   -7.5465   18.7972 C   0  0  0  0  0  0  0  0  0  0  0  0
   -1.4606   -8.1493   18.4882 C   0  0  0  0  0  0  0  0  0  0  0  0
   -0.4759   -7.2648   18.2826 N   0  0  0  0  0  0  0  0  0  0  0  0
   -0.0569   -2.9985   19.7519 H   0  0  0  0  0  0  0  0  0  0  0  0
   -1.5428   -3.8907   19.9907 H   0  0  0  0  0  0  0  0  0  0  0  0
   -0.0086   -4.5791   20.5403 H   0  0  0  0  0  0  0  0  0  0  0  0
   -0.6730   -4.2664   16.2700 H   0  0  0  0  0  0  0  0  0  0  0  0
   -0.6446   -2.8328   17.3039 H   0  0  0  0  0  0  0  0  0  0  0  0
   -2.0391   -3.8899   17.3304 H   0  0  0  0  0  0  0  0  0  0  0  0
    3.4596   -2.9066   18.0367 H   0  0  0  0  0  0  0  0  0  0  0  0
    1.8048   -1.8423   18.5496 H   0  0  0  0  0  0  0  0  0  0  0  0
    2.9055   -0.1083   18.3460 H   0  0  0  0  0  0  0  0  0  0  0  0
    4.1981   -1.2516   18.9326 H   0  0  0  0  0  0  0  0  0  0  0  0
    3.3987   -2.7585   14.0256 H   0  0  0  0  0  0  0  0  0  0  0  0
    5.3653   -1.5026   13.1485 H   0  0  0  0  0  0  0  0  0  0  0  0
    6.5476    0.1504   14.5309 H   0  0  0  0  0  0  0  0  0  0  0  0
    8.3861    0.8530   17.6883 H   0  0  0  0  0  0  0  0  0  0  0  0
    8.1369    1.5811   16.1991 H   0  0  0  0  0  0  0  0  0  0  0  0
    1.1445   -1.8759   16.5141 H   0  0  0  0  0  0  0  0  0  0  0  0
    1.9428   -3.3323   16.0506 H   0  0  0  0  0  0  0  0  0  0  0  0
   -3.0038   -5.3433   19.0056 H   0  0  0  0  0  0  0  0  0  0  0  0
   -3.6235   -8.0195   19.0105 H   0  0  0  0  0  0  0  0  0  0  0  0
   -1.2616   -9.2038   18.4055 H   0  0  0  0  0  0  0  0  0  0  0  0
  1  2  1  0
  2  3  1  0
  2  4  1  0
  4  5  2  0
  4  6  1  0
  6  7  1  0
  7  8  1  0
  8  9  1  0
  9 10  2  0
 10 11  1  0
 11 12  2  0
 12 13  1  0
 13 14  2  0
 14 15  1  0
 15 16  1  0
 15 17  2  0
 15 18  2  0
 10 19  1  0
  2 20  1  0
 20 21  1  0
 21 22  2  0
 22 23  1  0
 23 24  2  0
 19  6  1  0
 24 20  1  0
 14  9  1  0
  1 25  1  0
  1 26  1  0
  1 27  1  0
  3 28  1  0
  3 29  1  0
  3 30  1  0
  7 31  1  0
  7 32  1  0
  8 33  1  0
  8 34  1  0
 11 35  1  0
 12 36  1  0
 13 37  1  0
 16 38  1  0
 16 39  1  0
 19 40  1  0
 19 41  1  0
 21 42  1  0
 22 43  1  0
 23 44  1  0
M  END
>  <Energy>  (1766) 
608.11155982204798

>  <compound_id>  (1766) 
29493

>  <target_id>  (1766) 
1

>  <reference_id>  (1766) 
112

>  <inspiration_ids>  (1766) 
[146, 112]

>  <energy_score>  (1766) 
555.6035200525496

>  <distance_score>  (1766) 
14.442249827699934

>  <path>  (1766) 
/opt/xchem-fragalysis-2/maxwin/BulkDock/SCRATCH/511013/C29493-P112/C29493-P112.minimised.mol

>  <scratch_subdir>  (1766) 
/opt/xchem-fragalysis-2/maxwin/BulkDock/SCRATCH/511013/C29493-P112

>  <fragmenstein_runtime>  (1766) 
15.100411653518677

>  <fragmenstein_outcome>  (1766) 
too moved

>  <fragmenstein_mode>  (1766) 
expansion

>  <fragmenstein_error>  (1766) 


$$$$
C29497-P146
     RDKit          3D

 43 45  0  0  0  0  0  0  0  0999 V2000
   10.2847   -4.3060   14.7463 C   0  0  0  0  0  0  0  0  0  0  0  0
    8.8460   -5.3189   14.4297 O   0  0  0  0  0  0  0  0  0  0  0  0
    8.2370   -6.7694   14.9232 C   0  0  0  0  0  0  0  0  0  0  0  0
    6.8302   -6.1195   15.8418 C   0  0  0  0  0  0  0  0  0  0  0  0
    5.5481   -6.2685   15.3530 C   0  0  0  0  0  0  0  0  0  0  0  0
    5.3740   -7.2922   13.9549 C   0  0  0  0  0  0  0  0  0  0  0  0
    6.3145   -8.2852   13.6207 C   0  0  0  0  0  0  0  0  0  0  0  0
    7.7251   -8.0875   14.0390 C   0  0  0  0  0  0  0  0  0  0  0  0
    7.9558   -9.5982   14.3500 C   0  0  0  0  0  0  0  0  0  0  0  0
    6.4921  -10.3308   13.4937 C   0  0  0  0  0  0  0  0  0  0  0  0
    4.8795  -11.2999   13.9132 N   0  0  0  0  0  0  0  0  0  0  0  0
    3.8497  -11.5311   15.4399 C   0  0  0  0  0  0  0  0  0  0  0  0
    3.8933  -11.0144   16.5106 O   0  0  0  0  0  0  0  0  0  0  0  0
    2.1971  -12.8532   15.1641 C   0  0  0  0  0  0  0  0  0  0  0  0
    1.1784  -12.8006   13.4616 C   0  0  0  0  0  0  0  0  0  0  0  0
    1.4576  -14.0706   16.5869 C   0  0  0  0  0  0  0  0  0  0  0  0
    0.0742  -14.0017   17.2316 N   0  0  0  0  0  0  0  0  0  0  0  0
   -0.7441  -14.9258   17.7305 C   0  0  0  0  0  0  0  0  0  0  0  0
   -1.9325  -14.4042   17.2707 C   0  0  0  0  0  0  0  0  0  0  0  0
   -1.8434  -13.1553   17.8034 C   0  0  0  0  0  0  0  0  0  0  0  0
   -0.5633  -12.8932   17.7488 N   0  0  0  0  0  0  0  0  0  0  0  0
    5.9041  -10.2103   13.7379 C   0  0  0  0  0  0  0  0  0  0  0  0
   10.9130   -4.5539   15.6102 H   0  0  0  0  0  0  0  0  0  0  0  0
   10.8994   -4.3720   13.8406 H   0  0  0  0  0  0  0  0  0  0  0  0
    9.8513   -3.3058   14.8500 H   0  0  0  0  0  0  0  0  0  0  0  0
    6.9285   -5.6765   16.8059 H   0  0  0  0  0  0  0  0  0  0  0  0
    4.6612   -5.7675   15.7444 H   0  0  0  0  0  0  0  0  0  0  0  0
    4.4026   -7.4068   13.5355 H   0  0  0  0  0  0  0  0  0  0  0  0
    8.8058  -10.0821   13.8659 H   0  0  0  0  0  0  0  0  0  0  0  0
    7.9819   -9.8606   15.3957 H   0  0  0  0  0  0  0  0  0  0  0  0
    7.1170  -11.4006   13.2217 H   0  0  0  0  0  0  0  0  0  0  0  0
    6.7821  -10.1621   12.2146 H   0  0  0  0  0  0  0  0  0  0  0  0
    2.7560  -13.4275   14.5748 H   0  0  0  0  0  0  0  0  0  0  0  0
    0.0751  -12.7381   13.3655 H   0  0  0  0  0  0  0  0  0  0  0  0
    1.3597  -11.9430   12.8100 H   0  0  0  0  0  0  0  0  0  0  0  0
    1.3006  -13.7433   12.9034 H   0  0  0  0  0  0  0  0  0  0  0  0
    2.0520  -14.1851   17.5324 H   0  0  0  0  0  0  0  0  0  0  0  0
    1.8414  -15.0354   16.3061 H   0  0  0  0  0  0  0  0  0  0  0  0
   -0.3327  -15.8083   18.1839 H   0  0  0  0  0  0  0  0  0  0  0  0
   -2.8448  -14.8977   16.9729 H   0  0  0  0  0  0  0  0  0  0  0  0
   -2.5349  -12.3736   18.0907 H   0  0  0  0  0  0  0  0  0  0  0  0
    4.9327   -9.6787   14.1219 H   0  0  0  0  0  0  0  0  0  0  0  0
    5.1499   -9.9380   12.5732 H   0  0  0  0  0  0  0  0  0  0  0  0
  1  2  1  0
  2  3  1  0
  3  4  2  0
  4  5  1  0
  5  6  2  0
  6  7  1  0
  7  8  2  0
  8  9  1  0
  9 10  1  0
 10 11  1  0
 11 12  1  0
 12 13  2  0
 12 14  1  0
 14 15  1  0
 14 16  1  0
 16 17  1  0
 17 18  1  0
 18 19  2  0
 19 20  1  0
 20 21  2  0
 11 22  1  0
  8  3  1  0
 21 17  1  0
 22  7  1  0
  1 23  1  0
  1 24  1  0
  1 25  1  0
  4 26  1  0
  5 27  1  0
  6 28  1  0
  9 29  1  0
  9 30  1  0
 10 31  1  0
 10 32  1  0
 14 33  1  0
 15 34  1  0
 15 35  1  0
 15 36  1  0
 16 37  1  0
 16 38  1  0
 18 39  1  0
 19 40  1  0
 20 41  1  0
 22 42  1  0
 22 43  1  0
M  END
>  <Energy>  (1767) 
1487.0721525798567

>  <compound_id>  (1767) 
29497

>  <target_id>  (1767) 
1

>  <reference_id>  (1767) 
146

>  <inspiration_ids>  (1767) 
[146, 112]

>  <energy_score>  (1767) 
1425.4523429221524

>  <distance_score>  (1767) 
11.615051859768858

>  <path>  (1767) 
/opt/xchem-fragalysis-2/maxwin/BulkDock/SCRATCH/511013/C29497-P146/C29497-P146.minimised.mol

>  <scratch_subdir>  (1767) 
/opt/xchem-fragalysis-2/maxwin/BulkDock/SCRATCH/511013/C29497-P146

>  <fragmenstein_runtime>  (1767) 
16.971877574920654

>  <fragmenstein_outcome>  (1767) 
too moved

>  <fragmenstein_mode>  (1767) 
expansion

>  <fragmenstein_error>  (1767) 


$$$$
C29497-P112
     RDKit          3D

 43 45  0  0  0  0  0  0  0  0999 V2000
    8.2281   -3.5870   15.3268 C   0  0  0  0  0  0  0  0  0  0  0  0
    7.4296   -5.2341   15.8134 O   0  0  0  0  0  0  0  0  0  0  0  0
    6.1854   -5.9428   15.6353 C   0  0  0  0  0  0  0  0  0  0  0  0
    5.1024   -5.3156   16.2151 C   0  0  0  0  0  0  0  0  0  0  0  0
    3.9997   -5.1883   15.4572 C   0  0  0  0  0  0  0  0  0  0  0  0
    3.9321   -6.2172   14.4836 C   0  0  0  0  0  0  0  0  0  0  0  0
    4.8224   -7.0868   13.7390 C   0  0  0  0  0  0  0  0  0  0  0  0
    5.9847   -7.0201   14.4376 C   0  0  0  0  0  0  0  0  0  0  0  0
    6.4821   -8.3499   14.0403 C   0  0  0  0  0  0  0  0  0  0  0  0
    4.9582   -9.3977   13.5405 C   0  0  0  0  0  0  0  0  0  0  0  0
    3.8375  -10.3469   13.7046 N   0  0  0  0  0  0  0  0  0  0  0  0
    3.5843  -11.2656   15.2775 C   0  0  0  0  0  0  0  0  0  0  0  0
    4.0752  -11.2016   16.2956 O   0  0  0  0  0  0  0  0  0  0  0  0
    1.9517  -12.5527   15.0275 C   0  0  0  0  0  0  0  0  0  0  0  0
    0.8685  -12.5220   13.3906 C   0  0  0  0  0  0  0  0  0  0  0  0
    0.9788  -13.7772   16.4030 C   0  0  0  0  0  0  0  0  0  0  0  0
   -0.6653  -13.4326   17.2368 N   0  0  0  0  0  0  0  0  0  0  0  0
   -2.0572  -13.6448   17.3106 C   0  0  0  0  0  0  0  0  0  0  0  0
   -2.6790  -12.5500   17.9934 C   0  0  0  0  0  0  0  0  0  0  0  0
   -1.7791  -11.6430   18.1889 C   0  0  0  0  0  0  0  0  0  0  0  0
   -0.7112  -12.2769   17.9123 N   0  0  0  0  0  0  0  0  0  0  0  0
    4.8359   -8.8509   13.1137 C   0  0  0  0  0  0  0  0  0  0  0  0
    9.3100   -3.6879   15.1834 H   0  0  0  0  0  0  0  0  0  0  0  0
    7.8532   -3.0713   14.4112 H   0  0  0  0  0  0  0  0  0  0  0  0
    7.8420   -2.7481   15.8771 H   0  0  0  0  0  0  0  0  0  0  0  0
    5.0723   -5.1340   17.2736 H   0  0  0  0  0  0  0  0  0  0  0  0
    3.0840   -4.7973   15.8957 H   0  0  0  0  0  0  0  0  0  0  0  0
    3.2939   -6.8992   15.0620 H   0  0  0  0  0  0  0  0  0  0  0  0
    6.8779   -8.1895   13.0092 H   0  0  0  0  0  0  0  0  0  0  0  0
    6.9901   -9.0596   14.7021 H   0  0  0  0  0  0  0  0  0  0  0  0
    5.6876  -10.3219   12.8729 H   0  0  0  0  0  0  0  0  0  0  0  0
    5.3733  -10.1032   14.3721 H   0  0  0  0  0  0  0  0  0  0  0  0
    1.5763  -12.1020   15.8051 H   0  0  0  0  0  0  0  0  0  0  0  0
    1.0136  -13.4533   12.8188 H   0  0  0  0  0  0  0  0  0  0  0  0
   -0.2339  -12.5370   13.3750 H   0  0  0  0  0  0  0  0  0  0  0  0
    0.9396  -11.6601   12.7208 H   0  0  0  0  0  0  0  0  0  0  0  0
    0.4070  -14.3478   15.7490 H   0  0  0  0  0  0  0  0  0  0  0  0
    1.5463  -14.2492   17.2222 H   0  0  0  0  0  0  0  0  0  0  0  0
   -2.6944  -14.3443   16.8300 H   0  0  0  0  0  0  0  0  0  0  0  0
   -3.6735  -12.1657   18.1884 H   0  0  0  0  0  0  0  0  0  0  0  0
   -1.7718  -10.6063   18.4797 H   0  0  0  0  0  0  0  0  0  0  0  0
    4.0325   -8.4342   12.3031 H   0  0  0  0  0  0  0  0  0  0  0  0
    5.4450   -8.8648   11.9447 H   0  0  0  0  0  0  0  0  0  0  0  0
  1  2  1  0
  2  3  1  0
  3  4  2  0
  4  5  1  0
  5  6  2  0
  6  7  1  0
  7  8  2  0
  8  9  1  0
  9 10  1  0
 10 11  1  0
 11 12  1  0
 12 13  2  0
 12 14  1  0
 14 15  1  0
 14 16  1  0
 16 17  1  0
 17 18  1  0
 18 19  2  0
 19 20  1  0
 20 21  2  0
 11 22  1  0
  8  3  1  0
 21 17  1  0
 22  7  1  0
  1 23  1  0
  1 24  1  0
  1 25  1  0
  4 26  1  0
  5 27  1  0
  6 28  1  0
  9 29  1  0
  9 30  1  0
 10 31  1  0
 10 32  1  0
 14 33  1  0
 15 34  1  0
 15 35  1  0
 15 36  1  0
 16 37  1  0
 16 38  1  0
 18 39  1  0
 19 40  1  0
 20 41  1  0
 22 42  1  0
 22 43  1  0
M  END
>  <Energy>  (1768) 
1478.8895167505862

>  <compound_id>  (1768) 
29497

>  <target_id>  (1768) 
1

>  <reference_id>  (1768) 
112

>  <inspiration_ids>  (1768) 
[146, 112]

>  <energy_score>  (1768) 
1417.2697070928914

>  <distance_score>  (1768) 
12.431450910507495

>  <path>  (1768) 
/opt/xchem-fragalysis-2/maxwin/BulkDock/SCRATCH/511013/C29497-P112/C29497-P112.minimised.mol

>  <scratch_subdir>  (1768) 
/opt/xchem-fragalysis-2/maxwin/BulkDock/SCRATCH/511013/C29497-P112

>  <fragmenstein_runtime>  (1768) 
10.415090322494507

>  <fragmenstein_outcome>  (1768) 
too moved

>  <fragmenstein_mode>  (1768) 
expansion

>  <fragmenstein_error>  (1768) 


$$$$
C29501-P146
     RDKit          3D

 41 43  0  0  0  0  0  0  0  0999 V2000
    5.3435   -9.7993    8.8100 C   0  0  0  0  0  0  0  0  0  0  0  0
    6.1317  -11.1274    8.7862 C   0  0  0  0  0  0  0  0  0  0  0  0
    6.7758  -11.2665    7.3919 C   0  0  0  0  0  0  0  0  0  0  0  0
    7.3267  -11.0566    9.8527 C   0  0  0  0  0  0  0  0  0  0  0  0
    7.5271  -11.9684   10.6599 O   0  0  0  0  0  0  0  0  0  0  0  0
    8.1410   -9.8823    9.9218 N   0  0  0  0  0  0  0  0  0  0  0  0
    9.4201   -9.6629    9.2077 C   0  0  0  0  0  0  0  0  0  0  0  0
   10.6629   -9.0834   10.0322 C   0  0  0  0  0  0  0  0  0  0  0  0
   10.4454   -7.6426   10.7122 C   0  0  0  0  0  0  0  0  0  0  0  0
   11.4938   -6.5401   12.0307 C   0  0  0  0  0  0  0  0  0  0  0  0
   11.5258   -4.9852   11.6648 N   0  0  0  0  0  0  0  0  0  0  0  0
   11.2104   -6.3181   14.0228 C   0  0  0  0  0  0  0  0  0  0  0  0
    9.5455   -7.3680   14.6975 C   0  0  0  0  0  0  0  0  0  0  0  0
    8.2689   -7.8967   13.3892 C   0  0  0  0  0  0  0  0  0  0  0  0
    8.8016   -8.1310   11.5839 C   0  0  0  0  0  0  0  0  0  0  0  0
    7.7038   -8.7893   10.7566 C   0  0  0  0  0  0  0  0  0  0  0  0
    5.1343  -12.2935    8.9475 N   0  0  0  0  0  0  0  0  0  0  0  0
    5.3906  -13.6436    8.7603 C   0  0  0  0  0  0  0  0  0  0  0  0
    4.1913  -14.2713    8.4882 C   0  0  0  0  0  0  0  0  0  0  0  0
    3.2324  -13.2552    8.5904 C   0  0  0  0  0  0  0  0  0  0  0  0
    3.7786  -12.0689    8.8780 N   0  0  0  0  0  0  0  0  0  0  0  0
    4.9090   -9.6165    9.7993 H   0  0  0  0  0  0  0  0  0  0  0  0
    5.9803   -8.9457    8.5584 H   0  0  0  0  0  0  0  0  0  0  0  0
    4.5305   -9.7893    8.0746 H   0  0  0  0  0  0  0  0  0  0  0  0
    6.0174  -11.3724    6.6074 H   0  0  0  0  0  0  0  0  0  0  0  0
    7.4339  -12.1418    7.3431 H   0  0  0  0  0  0  0  0  0  0  0  0
    7.3888  -10.3933    7.1440 H   0  0  0  0  0  0  0  0  0  0  0  0
    9.7122  -10.6185    8.7580 H   0  0  0  0  0  0  0  0  0  0  0  0
    9.1979   -8.9665    8.3902 H   0  0  0  0  0  0  0  0  0  0  0  0
   11.4882   -9.0841    9.3351 H   0  0  0  0  0  0  0  0  0  0  0  0
   10.9045   -9.8048   10.8230 H   0  0  0  0  0  0  0  0  0  0  0  0
   12.3053   -4.5923   12.1862 H   0  0  0  0  0  0  0  0  0  0  0  0
   11.4875   -4.9818   10.6526 H   0  0  0  0  0  0  0  0  0  0  0  0
   11.1066   -5.1502   14.1854 H   0  0  0  0  0  0  0  0  0  0  0  0
    9.6150   -8.2991   15.3007 H   0  0  0  0  0  0  0  0  0  0  0  0
    7.4531   -8.5547   13.7175 H   0  0  0  0  0  0  0  0  0  0  0  0
    6.8974   -9.1351   11.4114 H   0  0  0  0  0  0  0  0  0  0  0  0
    7.2919   -8.0112   10.1060 H   0  0  0  0  0  0  0  0  0  0  0  0
    6.4042  -14.0165    8.7980 H   0  0  0  0  0  0  0  0  0  0  0  0
    4.0375  -15.3195    8.2772 H   0  0  0  0  0  0  0  0  0  0  0  0
    2.1585  -13.3233    8.4780 H   0  0  0  0  0  0  0  0  0  0  0  0
  1  2  1  0
  2  3  1  0
  2  4  1  0
  4  5  2  0
  4  6  1  0
  6  7  1  0
  7  8  1  0
  8  9  1  0
  9 10  2  0
 10 11  1  0
 10 12  1  0
 12 13  2  0
 13 14  1  0
 14 15  2  0
 15 16  1  0
  2 17  1  0
 17 18  1  0
 18 19  2  0
 19 20  1  0
 20 21  2  0
 16  6  1  0
 21 17  1  0
 15  9  1  0
  1 22  1  0
  1 23  1  0
  1 24  1  0
  3 25  1  0
  3 26  1  0
  3 27  1  0
  7 28  1  0
  7 29  1  0
  8 30  1  0
  8 31  1  0
 11 32  1  0
 11 33  1  0
 12 34  1  0
 13 35  1  0
 14 36  1  0
 16 37  1  0
 16 38  1  0
 18 39  1  0
 19 40  1  0
 20 41  1  0
M  END
>  <Energy>  (1769) 
732.24613658896749

>  <compound_id>  (1769) 
29501

>  <target_id>  (1769) 
1

>  <reference_id>  (1769) 
146

>  <inspiration_ids>  (1769) 
[146, 112]

>  <energy_score>  (1769) 
647.3673205971332

>  <distance_score>  (1769) 
13.415161400279356

>  <path>  (1769) 
/opt/xchem-fragalysis-2/maxwin/BulkDock/SCRATCH/511013/C29501-P146/C29501-P146.minimised.mol

>  <scratch_subdir>  (1769) 
/opt/xchem-fragalysis-2/maxwin/BulkDock/SCRATCH/511013/C29501-P146

>  <fragmenstein_runtime>  (1769) 
12.58133864402771

>  <fragmenstein_outcome>  (1769) 
too moved

>  <fragmenstein_mode>  (1769) 
expansion

>  <fragmenstein_error>  (1769) 


$$$$
C29501-P112
     RDKit          3D

 41 43  0  0  0  0  0  0  0  0999 V2000
    1.0054   -7.2850   19.0393 C   0  0  0  0  0  0  0  0  0  0  0  0
   -0.2590   -6.4195   19.0590 C   0  0  0  0  0  0  0  0  0  0  0  0
   -0.3745   -5.7762   20.4567 C   0  0  0  0  0  0  0  0  0  0  0  0
   -0.2264   -5.2634   17.9875 C   0  0  0  0  0  0  0  0  0  0  0  0
   -1.2473   -4.6169   17.7553 O   0  0  0  0  0  0  0  0  0  0  0  0
    0.9344   -5.0717   17.2537 N   0  0  0  0  0  0  0  0  0  0  0  0
    1.9254   -3.7758   18.1428 C   0  0  0  0  0  0  0  0  0  0  0  0
    3.0763   -4.0632   19.4189 C   0  0  0  0  0  0  0  0  0  0  0  0
    3.9850   -5.0313   18.7902 C   0  0  0  0  0  0  0  0  0  0  0  0
    5.0654   -5.7261   19.2765 C   0  0  0  0  0  0  0  0  0  0  0  0
    5.5239   -5.5431   20.5730 N   0  0  0  0  0  0  0  0  0  0  0  0
    5.5128   -6.7824   18.4900 C   0  0  0  0  0  0  0  0  0  0  0  0
    5.0194   -6.9838   17.1853 C   0  0  0  0  0  0  0  0  0  0  0  0
    4.0471   -6.1575   16.6487 C   0  0  0  0  0  0  0  0  0  0  0  0
    3.5166   -5.2191   17.5022 C   0  0  0  0  0  0  0  0  0  0  0  0
    2.1207   -4.2254   17.3318 C   0  0  0  0  0  0  0  0  0  0  0  0
   -1.4838   -7.2538   18.8287 N   0  0  0  0  0  0  0  0  0  0  0  0
   -2.7735   -6.7983   18.8788 C   0  0  0  0  0  0  0  0  0  0  0  0
   -3.5522   -7.8172   18.4180 C   0  0  0  0  0  0  0  0  0  0  0  0
   -2.7070   -8.9217   18.3109 C   0  0  0  0  0  0  0  0  0  0  0  0
   -1.4476   -8.5791   18.5738 N   0  0  0  0  0  0  0  0  0  0  0  0
    0.9720   -8.0445   19.8241 H   0  0  0  0  0  0  0  0  0  0  0  0
    1.8969   -6.6965   19.2490 H   0  0  0  0  0  0  0  0  0  0  0  0
    1.1497   -7.7795   18.0727 H   0  0  0  0  0  0  0  0  0  0  0  0
    0.5358   -5.2352   20.7263 H   0  0  0  0  0  0  0  0  0  0  0  0
   -1.1953   -5.0521   20.5096 H   0  0  0  0  0  0  0  0  0  0  0  0
   -0.5499   -6.5321   21.2306 H   0  0  0  0  0  0  0  0  0  0  0  0
    1.1146   -3.7057   18.9755 H   0  0  0  0  0  0  0  0  0  0  0  0
    1.6235   -2.6094   18.0205 H   0  0  0  0  0  0  0  0  0  0  0  0
    3.5683   -3.1129   19.6483 H   0  0  0  0  0  0  0  0  0  0  0  0
    2.5732   -4.4790   20.2953 H   0  0  0  0  0  0  0  0  0  0  0  0
    6.4251   -5.9964   20.7292 H   0  0  0  0  0  0  0  0  0  0  0  0
    5.5041   -4.5789   20.8867 H   0  0  0  0  0  0  0  0  0  0  0  0
    6.2273   -7.4872   18.9032 H   0  0  0  0  0  0  0  0  0  0  0  0
    5.3363   -7.8346   16.5921 H   0  0  0  0  0  0  0  0  0  0  0  0
    3.6604   -6.3326   15.6555 H   0  0  0  0  0  0  0  0  0  0  0  0
    2.2001   -4.6341   16.2470 H   0  0  0  0  0  0  0  0  0  0  0  0
    2.3664   -3.3134   16.4987 H   0  0  0  0  0  0  0  0  0  0  0  0
   -3.0105   -5.7706   19.1144 H   0  0  0  0  0  0  0  0  0  0  0  0
   -4.5855   -7.6673   18.1962 H   0  0  0  0  0  0  0  0  0  0  0  0
   -2.9163   -9.9428   18.0311 H   0  0  0  0  0  0  0  0  0  0  0  0
  1  2  1  0
  2  3  1  0
  2  4  1  0
  4  5  2  0
  4  6  1  0
  6  7  1  0
  7  8  1  0
  8  9  1  0
  9 10  2  0
 10 11  1  0
 10 12  1  0
 12 13  2  0
 13 14  1  0
 14 15  2  0
 15 16  1  0
  2 17  1  0
 17 18  1  0
 18 19  2  0
 19 20  1  0
 20 21  2  0
 16  6  1  0
 21 17  1  0
 15  9  1  0
  1 22  1  0
  1 23  1  0
  1 24  1  0
  3 25  1  0
  3 26  1  0
  3 27  1  0
  7 28  1  0
  7 29  1  0
  8 30  1  0
  8 31  1  0
 11 32  1  0
 11 33  1  0
 12 34  1  0
 13 35  1  0
 14 36  1  0
 16 37  1  0
 16 38  1  0
 18 39  1  0
 19 40  1  0
 20 41  1  0
M  END
>  <Energy>  (1770) 
614.38491969801078

>  <compound_id>  (1770) 
29501

>  <target_id>  (1770) 
1

>  <reference_id>  (1770) 
112

>  <inspiration_ids>  (1770) 
[146, 112]

>  <energy_score>  (1770) 
529.5061037061854

>  <distance_score>  (1770) 
14.687386979734072

>  <path>  (1770) 
/opt/xchem-fragalysis-2/maxwin/BulkDock/SCRATCH/511013/C29501-P112/C29501-P112.minimised.mol

>  <scratch_subdir>  (1770) 
/opt/xchem-fragalysis-2/maxwin/BulkDock/SCRATCH/511013/C29501-P112

>  <fragmenstein_runtime>  (1770) 
20.000874519348145

>  <fragmenstein_outcome>  (1770) 
too moved

>  <fragmenstein_mode>  (1770) 
expansion

>  <fragmenstein_error>  (1770) 


$$$$
C29502-P146
     RDKit          3D

 46 48  0  0  0  0  0  0  0  0999 V2000
   13.1901   -3.8223   22.9172 C   0  0  0  0  0  0  0  0  0  0  0  0
   12.6887   -5.0983   22.2911 C   0  0  0  0  0  0  0  0  0  0  0  0
   13.1153   -6.1451   22.6963 O   0  0  0  0  0  0  0  0  0  0  0  0
   11.7303   -4.8027   21.2073 N   0  0  0  0  0  0  0  0  0  0  0  0
   11.0530   -5.7250   20.1842 C   0  0  0  0  0  0  0  0  0  0  0  0
   12.4615   -5.1333   19.2886 C   0  0  0  0  0  0  0  0  0  0  0  0
   12.6152   -4.5562   17.8500 C   0  0  0  0  0  0  0  0  0  0  0  0
   11.5347   -4.3545   16.9211 C   0  0  0  0  0  0  0  0  0  0  0  0
   10.2403   -4.8337   17.4383 C   0  0  0  0  0  0  0  0  0  0  0  0
    9.5397   -5.8572   19.1146 C   0  0  0  0  0  0  0  0  0  0  0  0
    7.3837   -6.5980   19.1531 C   0  0  0  0  0  0  0  0  0  0  0  0
    6.5442   -8.1437   18.0255 N   0  0  0  0  0  0  0  0  0  0  0  0
    4.8699   -9.4307   18.2959 C   0  0  0  0  0  0  0  0  0  0  0  0
    4.2796   -9.0392   19.2968 O   0  0  0  0  0  0  0  0  0  0  0  0
    3.8410  -11.5078   17.5956 C   0  0  0  0  0  0  0  0  0  0  0  0
    4.7101  -12.8646   18.8708 C   0  0  0  0  0  0  0  0  0  0  0  0
    2.8957  -13.6445   17.6816 C   0  0  0  0  0  0  0  0  0  0  0  0
    1.6474  -14.8408   16.4127 N   0  0  0  0  0  0  0  0  0  0  0  0
   -0.2850  -14.8892   15.8494 C   0  0  0  0  0  0  0  0  0  0  0  0
   -1.1610  -16.3204   14.7310 C   0  0  0  0  0  0  0  0  0  0  0  0
    0.6535  -17.7785   14.6174 C   0  0  0  0  0  0  0  0  0  0  0  0
    1.9533  -16.6619   15.6522 N   0  0  0  0  0  0  0  0  0  0  0  0
    6.7453   -6.3229   16.9403 C   0  0  0  0  0  0  0  0  0  0  0  0
    8.2287   -4.7799   16.2898 C   0  0  0  0  0  0  0  0  0  0  0  0
   12.4186   -3.4119   23.5715 H   0  0  0  0  0  0  0  0  0  0  0  0
   14.0725   -4.0427   23.5269 H   0  0  0  0  0  0  0  0  0  0  0  0
   13.4972   -3.1121   22.1465 H   0  0  0  0  0  0  0  0  0  0  0  0
   11.6659   -3.7997   21.0841 H   0  0  0  0  0  0  0  0  0  0  0  0
   13.4141   -5.1281   19.8418 H   0  0  0  0  0  0  0  0  0  0  0  0
   13.6233   -4.2594   17.5597 H   0  0  0  0  0  0  0  0  0  0  0  0
   11.6470   -3.9055   15.9462 H   0  0  0  0  0  0  0  0  0  0  0  0
    6.6310   -5.8017   19.3510 H   0  0  0  0  0  0  0  0  0  0  0  0
    7.1906   -7.3313   19.9788 H   0  0  0  0  0  0  0  0  0  0  0  0
    3.8950  -11.5984   16.4947 H   0  0  0  0  0  0  0  0  0  0  0  0
    4.3006  -12.9435   19.8819 H   0  0  0  0  0  0  0  0  0  0  0  0
    5.7475  -12.5195   19.1077 H   0  0  0  0  0  0  0  0  0  0  0  0
    4.7893  -13.9332   18.6544 H   0  0  0  0  0  0  0  0  0  0  0  0
    3.5035  -14.5766   17.8444 H   0  0  0  0  0  0  0  0  0  0  0  0
    1.9308  -13.9050   18.1978 H   0  0  0  0  0  0  0  0  0  0  0  0
   -0.7618  -14.3495   16.6777 H   0  0  0  0  0  0  0  0  0  0  0  0
   -2.3261  -16.7220   14.6882 H   0  0  0  0  0  0  0  0  0  0  0  0
   -0.4930  -18.2667   14.9927 H   0  0  0  0  0  0  0  0  0  0  0  0
    6.1528   -6.4783   16.0364 H   0  0  0  0  0  0  0  0  0  0  0  0
    6.0170   -5.7284   17.5117 H   0  0  0  0  0  0  0  0  0  0  0  0
    8.4940   -4.8865   15.1709 H   0  0  0  0  0  0  0  0  0  0  0  0
    7.9882   -3.7468   15.8564 H   0  0  0  0  0  0  0  0  0  0  0  0
  1  2  1  0
  2  3  2  0
  2  4  1  0
  4  5  1  0
  5  6  2  0
  6  7  1  0
  7  8  2  0
  8  9  1  0
  9 10  2  0
 10 11  1  0
 11 12  1  0
 12 13  1  0
 13 14  2  0
 13 15  1  0
 15 16  1  0
 15 17  1  0
 17 18  1  0
 18 19  1  0
 19 20  2  0
 20 21  1  0
 21 22  2  0
 12 23  1  0
 23 24  1  0
 10  5  1  0
 22 18  1  0
 24  9  1  0
  1 25  1  0
  1 26  1  0
  1 27  1  0
  4 28  1  0
  6 29  1  0
  7 30  1  0
  8 31  1  0
 11 32  1  0
 11 33  1  0
 15 34  1  0
 16 35  1  0
 16 36  1  0
 16 37  1  0
 17 38  1  0
 17 39  1  0
 19 40  1  0
 20 41  1  0
 21 42  1  0
 23 43  1  0
 23 44  1  0
 24 45  1  0
 24 46  1  0
M  END
>  <Energy>  (1771) 
3543.60290214524

>  <compound_id>  (1771) 
29502

>  <target_id>  (1771) 
1

>  <reference_id>  (1771) 
146

>  <inspiration_ids>  (1771) 
[146, 112]

>  <energy_score>  (1771) 
3506.5991585518505

>  <distance_score>  (1771) 
10.02621442586183

>  <path>  (1771) 
/opt/xchem-fragalysis-2/maxwin/BulkDock/SCRATCH/511013/C29502-P146/C29502-P146.minimised.mol

>  <scratch_subdir>  (1771) 
/opt/xchem-fragalysis-2/maxwin/BulkDock/SCRATCH/511013/C29502-P146

>  <fragmenstein_runtime>  (1771) 
16.000007390975952

>  <fragmenstein_outcome>  (1771) 
too moved

>  <fragmenstein_mode>  (1771) 
expansion

>  <fragmenstein_error>  (1771) 


$$$$
C29502-P112
     RDKit          3D

 46 48  0  0  0  0  0  0  0  0999 V2000
   12.0155   -2.9266   14.3315 C   0  0  0  0  0  0  0  0  0  0  0  0
   11.1573   -4.0662   14.7031 C   0  0  0  0  0  0  0  0  0  0  0  0
    9.6082   -3.6629   14.9286 O   0  0  0  0  0  0  0  0  0  0  0  0
   11.1706   -5.1249   14.9615 N   0  0  0  0  0  0  0  0  0  0  0  0
   10.0636   -6.5852   15.4349 C   0  0  0  0  0  0  0  0  0  0  0  0
   10.6643   -5.8472   17.1632 C   0  0  0  0  0  0  0  0  0  0  0  0
    9.4990   -5.9689   18.8215 C   0  0  0  0  0  0  0  0  0  0  0  0
    7.4445   -6.1041   18.2567 C   0  0  0  0  0  0  0  0  0  0  0  0
    6.9419   -5.8965   16.4073 C   0  0  0  0  0  0  0  0  0  0  0  0
    8.1269   -6.4853   14.9844 C   0  0  0  0  0  0  0  0  0  0  0  0
    6.8100   -7.4476   13.6595 C   0  0  0  0  0  0  0  0  0  0  0  0
    5.1575   -8.2513   13.3190 N   0  0  0  0  0  0  0  0  0  0  0  0
    4.5593   -9.8694   13.7848 C   0  0  0  0  0  0  0  0  0  0  0  0
    5.1634  -10.6096   14.4743 O   0  0  0  0  0  0  0  0  0  0  0  0
    2.8336  -10.6047   13.4515 C   0  0  0  0  0  0  0  0  0  0  0  0
    2.5755  -10.3958   11.5410 C   0  0  0  0  0  0  0  0  0  0  0  0
    1.6919  -12.2464   14.3124 C   0  0  0  0  0  0  0  0  0  0  0  0
    1.5560  -13.4030   15.9315 N   0  0  0  0  0  0  0  0  0  0  0  0
    2.2993  -14.8948   16.5257 C   0  0  0  0  0  0  0  0  0  0  0  0
    2.0085  -15.0523   17.8136 C   0  0  0  0  0  0  0  0  0  0  0  0
    0.7475  -14.4977   17.5896 C   0  0  0  0  0  0  0  0  0  0  0  0
    0.4641  -13.5867   16.7827 N   0  0  0  0  0  0  0  0  0  0  0  0
    4.8968   -6.7495   14.1202 C   0  0  0  0  0  0  0  0  0  0  0  0
    5.4386   -5.8597   15.7480 C   0  0  0  0  0  0  0  0  0  0  0  0
   11.9535   -2.1572   15.1051 H   0  0  0  0  0  0  0  0  0  0  0  0
   13.0542   -3.2560   14.2479 H   0  0  0  0  0  0  0  0  0  0  0  0
   11.6911   -2.5200   13.3724 H   0  0  0  0  0  0  0  0  0  0  0  0
   11.5943   -5.9733   15.1458 H   0  0  0  0  0  0  0  0  0  0  0  0
   11.3963   -4.9980   17.1703 H   0  0  0  0  0  0  0  0  0  0  0  0
    9.8312   -5.5241   19.7817 H   0  0  0  0  0  0  0  0  0  0  0  0
    6.6295   -6.0210   18.9958 H   0  0  0  0  0  0  0  0  0  0  0  0
    7.2638   -7.5325   12.6615 H   0  0  0  0  0  0  0  0  0  0  0  0
    6.7962   -8.0724   14.4539 H   0  0  0  0  0  0  0  0  0  0  0  0
    2.9800  -10.0090   14.3734 H   0  0  0  0  0  0  0  0  0  0  0  0
    1.5052  -10.2808   11.3137 H   0  0  0  0  0  0  0  0  0  0  0  0
    2.9011  -11.2206   10.8829 H   0  0  0  0  0  0  0  0  0  0  0  0
    3.2096   -9.5678   11.1805 H   0  0  0  0  0  0  0  0  0  0  0  0
    1.4578  -13.0083   13.5258 H   0  0  0  0  0  0  0  0  0  0  0  0
    0.7318  -11.9470   13.9259 H   0  0  0  0  0  0  0  0  0  0  0  0
    2.9616  -15.5041   15.9319 H   0  0  0  0  0  0  0  0  0  0  0  0
    2.3251  -15.8604   18.4588 H   0  0  0  0  0  0  0  0  0  0  0  0
   -0.2061  -14.9234   17.9184 H   0  0  0  0  0  0  0  0  0  0  0  0
    3.8706   -6.8926   14.4630 H   0  0  0  0  0  0  0  0  0  0  0  0
    4.6069   -6.1259   13.2587 H   0  0  0  0  0  0  0  0  0  0  0  0
    5.1391   -4.8167   15.5854 H   0  0  0  0  0  0  0  0  0  0  0  0
    4.7455   -6.1303   16.5612 H   0  0  0  0  0  0  0  0  0  0  0  0
  1  2  1  0
  2  3  2  0
  2  4  1  0
  4  5  1  0
  5  6  2  0
  6  7  1  0
  7  8  2  0
  8  9  1  0
  9 10  2  0
 10 11  1  0
 11 12  1  0
 12 13  1  0
 13 14  2  0
 13 15  1  0
 15 16  1  0
 15 17  1  0
 17 18  1  0
 18 19  1  0
 19 20  2  0
 20 21  1  0
 21 22  2  0
 12 23  1  0
 23 24  1  0
 10  5  1  0
 22 18  1  0
 24  9  1  0
  1 25  1  0
  1 26  1  0
  1 27  1  0
  4 28  1  0
  6 29  1  0
  7 30  1  0
  8 31  1  0
 11 32  1  0
 11 33  1  0
 15 34  1  0
 16 35  1  0
 16 36  1  0
 16 37  1  0
 17 38  1  0
 17 39  1  0
 19 40  1  0
 20 41  1  0
 21 42  1  0
 23 43  1  0
 23 44  1  0
 24 45  1  0
 24 46  1  0
M  END
>  <Energy>  (1772) 
1923.4147705777391

>  <compound_id>  (1772) 
29502

>  <target_id>  (1772) 
1

>  <reference_id>  (1772) 
112

>  <inspiration_ids>  (1772) 
[146, 112]

>  <energy_score>  (1772) 
1886.4110269844155

>  <distance_score>  (1772) 
11.085904634767644

>  <path>  (1772) 
/opt/xchem-fragalysis-2/maxwin/BulkDock/SCRATCH/511013/C29502-P112/C29502-P112.minimised.mol

>  <scratch_subdir>  (1772) 
/opt/xchem-fragalysis-2/maxwin/BulkDock/SCRATCH/511013/C29502-P112

>  <fragmenstein_runtime>  (1772) 
12.49648928642273

>  <fragmenstein_outcome>  (1772) 
too moved

>  <fragmenstein_mode>  (1772) 
expansion

>  <fragmenstein_error>  (1772) 


$$$$
C36204-P146
     RDKit          3D

 44 47  0  0  0  0  0  0  0  0999 V2000
   -6.9690  -10.4387   18.4279 O   0  0  0  0  0  0  0  0  0  0  0  0
   -6.1173  -11.0968   18.0157 C   0  0  0  0  0  0  0  0  0  0  0  0
   -6.4587  -12.6422   17.7665 C   0  0  0  0  0  0  0  0  0  0  0  0
   -5.6288  -13.7810   18.0211 C   0  0  0  0  0  0  0  0  0  0  0  0
   -6.3351  -14.9040   17.6434 C   0  0  0  0  0  0  0  0  0  0  0  0
   -7.5683  -14.4713   17.2265 N   0  0  0  0  0  0  0  0  0  0  0  0
   -8.6899  -15.3859   16.9068 C   0  0  0  0  0  0  0  0  0  0  0  0
   -8.6156  -16.0207   15.5039 C   0  0  0  0  0  0  0  0  0  0  0  0
   -9.7585  -17.0217   15.2932 C   0  0  0  0  0  0  0  0  0  0  0  0
  -11.0331  -16.4292   15.5278 O   0  0  0  0  0  0  0  0  0  0  0  0
  -11.1531  -15.9036   16.8468 C   0  0  0  0  0  0  0  0  0  0  0  0
  -10.1020  -14.8257   17.1216 C   0  0  0  0  0  0  0  0  0  0  0  0
   -7.6744  -13.1066   17.3104 N   0  0  0  0  0  0  0  0  0  0  0  0
   -4.5833  -10.7482   17.5101 N   0  0  0  0  0  0  0  0  0  0  0  0
   -3.7978   -9.6890   17.5013 C   0  0  0  0  0  0  0  0  0  0  0  0
   -2.6378   -9.4525   19.0091 C   0  0  0  0  0  0  0  0  0  0  0  0
   -1.6656   -8.5016   18.3947 C   0  0  0  0  0  0  0  0  0  0  0  0
   -0.4063   -8.0008   18.6931 C   0  0  0  0  0  0  0  0  0  0  0  0
    0.2326   -7.1820   17.7492 C   0  0  0  0  0  0  0  0  0  0  0  0
   -0.4188   -6.8550   16.5447 C   0  0  0  0  0  0  0  0  0  0  0  0
   -1.7199   -7.3243   16.2771 C   0  0  0  0  0  0  0  0  0  0  0  0
   -2.3073   -8.1455   17.2299 C   0  0  0  0  0  0  0  0  0  0  0  0
   -3.9422   -8.8939   17.3466 C   0  0  0  0  0  0  0  0  0  0  0  0
   -4.6287  -13.7630   18.4304 H   0  0  0  0  0  0  0  0  0  0  0  0
   -6.0787  -15.9537   17.6667 H   0  0  0  0  0  0  0  0  0  0  0  0
   -8.5647  -16.2001   17.6373 H   0  0  0  0  0  0  0  0  0  0  0  0
   -7.6516  -16.5196   15.3545 H   0  0  0  0  0  0  0  0  0  0  0  0
   -8.6882  -15.2243   14.7523 H   0  0  0  0  0  0  0  0  0  0  0  0
   -9.7521  -17.3780   14.2591 H   0  0  0  0  0  0  0  0  0  0  0  0
   -9.6435  -17.8910   15.9503 H   0  0  0  0  0  0  0  0  0  0  0  0
  -11.0774  -16.7232   17.5714 H   0  0  0  0  0  0  0  0  0  0  0  0
  -12.1551  -15.4733   16.9422 H   0  0  0  0  0  0  0  0  0  0  0  0
  -10.2153  -14.4477   18.1441 H   0  0  0  0  0  0  0  0  0  0  0  0
  -10.2641  -13.9813   16.4398 H   0  0  0  0  0  0  0  0  0  0  0  0
   -3.0223  -10.5972   17.5750 H   0  0  0  0  0  0  0  0  0  0  0  0
   -3.2326   -9.9648   16.2838 H   0  0  0  0  0  0  0  0  0  0  0  0
   -3.2367   -9.0201   19.8193 H   0  0  0  0  0  0  0  0  0  0  0  0
   -2.2088  -10.4192   19.2988 H   0  0  0  0  0  0  0  0  0  0  0  0
    0.0970   -8.2736   19.6160 H   0  0  0  0  0  0  0  0  0  0  0  0
    1.2313   -6.8043   17.9496 H   0  0  0  0  0  0  0  0  0  0  0  0
    0.0812   -6.2170   15.8192 H   0  0  0  0  0  0  0  0  0  0  0  0
   -2.2356   -7.0511   15.3627 H   0  0  0  0  0  0  0  0  0  0  0  0
   -4.5753   -8.1750   18.1024 H   0  0  0  0  0  0  0  0  0  0  0  0
   -4.4883   -8.4460   16.3576 H   0  0  0  0  0  0  0  0  0  0  0  0
  1  2  2  0
  2  3  1  0
  3  4  1  0
  4  5  2  0
  5  6  1  0
  6  7  1  0
  7  8  1  0
  8  9  1  0
  9 10  1  0
 10 11  1  0
 11 12  1  0
  6 13  1  0
  2 14  1  0
 14 15  1  0
 15 16  1  0
 16 17  1  0
 17 18  2  0
 18 19  1  0
 19 20  2  0
 20 21  1  0
 21 22  2  0
 22 23  1  0
 13  3  2  0
 23 14  1  0
 12  7  1  0
 22 17  1  0
  4 24  1  0
  5 25  1  0
  7 26  1  0
  8 27  1  0
  8 28  1  0
  9 29  1  0
  9 30  1  0
 11 31  1  0
 11 32  1  0
 12 33  1  0
 12 34  1  0
 15 35  1  0
 15 36  1  0
 16 37  1  0
 16 38  1  0
 18 39  1  0
 19 40  1  0
 20 41  1  0
 21 42  1  0
 23 43  1  0
 23 44  1  0
M  END
>  <Energy>  (1773) 
871.79910000992709

>  <compound_id>  (1773) 
36204

>  <target_id>  (1773) 
1

>  <reference_id>  (1773) 
146

>  <inspiration_ids>  (1773) 
[146, 112]

>  <energy_score>  (1773) 
777.1065645759684

>  <distance_score>  (1773) 
14.570801414345473

>  <path>  (1773) 
/opt/xchem-fragalysis-2/maxwin/BulkDock/SCRATCH/511013/C36204-P146/C36204-P146.minimised.mol

>  <scratch_subdir>  (1773) 
/opt/xchem-fragalysis-2/maxwin/BulkDock/SCRATCH/511013/C36204-P146

>  <fragmenstein_runtime>  (1773) 
14.711126327514648

>  <fragmenstein_outcome>  (1773) 
too moved

>  <fragmenstein_mode>  (1773) 
expansion

>  <fragmenstein_error>  (1773) 


$$$$
C36204-P112
     RDKit          3D

 44 47  0  0  0  0  0  0  0  0999 V2000
   -2.3430  -12.4471   18.2700 O   0  0  0  0  0  0  0  0  0  0  0  0
   -3.3518  -11.9711   18.6975 C   0  0  0  0  0  0  0  0  0  0  0  0
   -4.4628  -13.0974   18.9723 C   0  0  0  0  0  0  0  0  0  0  0  0
   -4.1504  -14.4181   19.4645 C   0  0  0  0  0  0  0  0  0  0  0  0
   -5.1715  -15.2670   19.0899 C   0  0  0  0  0  0  0  0  0  0  0  0
   -6.0517  -14.5137   18.3631 N   0  0  0  0  0  0  0  0  0  0  0  0
   -7.2341  -15.0381   17.6217 C   0  0  0  0  0  0  0  0  0  0  0  0
   -6.8717  -16.0725   16.5338 C   0  0  0  0  0  0  0  0  0  0  0  0
   -8.1101  -16.6159   15.8020 C   0  0  0  0  0  0  0  0  0  0  0  0
   -9.2770  -16.7361   16.6158 O   0  0  0  0  0  0  0  0  0  0  0  0
   -8.9793  -16.8962   17.9935 C   0  0  0  0  0  0  0  0  0  0  0  0
   -8.3181  -15.6330   18.5535 C   0  0  0  0  0  0  0  0  0  0  0  0
   -5.6819  -13.1803   18.3348 N   0  0  0  0  0  0  0  0  0  0  0  0
   -3.7429  -10.5580   18.8987 N   0  0  0  0  0  0  0  0  0  0  0  0
   -3.0385   -9.4640   18.7980 C   0  0  0  0  0  0  0  0  0  0  0  0
   -2.0713   -9.0278   20.4172 C   0  0  0  0  0  0  0  0  0  0  0  0
   -0.9649   -8.1945   19.8692 C   0  0  0  0  0  0  0  0  0  0  0  0
    0.1919   -7.6014   20.3627 C   0  0  0  0  0  0  0  0  0  0  0  0
    1.0541   -6.9498   19.4617 C   0  0  0  0  0  0  0  0  0  0  0  0
    0.7301   -6.8824   18.0946 C   0  0  0  0  0  0  0  0  0  0  0  0
   -0.4577   -7.4628   17.6171 C   0  0  0  0  0  0  0  0  0  0  0  0
   -1.2652   -8.1420   18.5308 C   0  0  0  0  0  0  0  0  0  0  0  0
   -2.8326   -8.8631   18.3288 C   0  0  0  0  0  0  0  0  0  0  0  0
   -3.2237  -14.7081   19.9399 H   0  0  0  0  0  0  0  0  0  0  0  0
   -5.3000  -16.3314   19.2227 H   0  0  0  0  0  0  0  0  0  0  0  0
   -7.6576  -14.1571   17.1199 H   0  0  0  0  0  0  0  0  0  0  0  0
   -6.3471  -16.9169   17.0004 H   0  0  0  0  0  0  0  0  0  0  0  0
   -6.1664  -15.6479   15.8095 H   0  0  0  0  0  0  0  0  0  0  0  0
   -7.8871  -17.5964   15.3670 H   0  0  0  0  0  0  0  0  0  0  0  0
   -8.3703  -15.9488   14.9733 H   0  0  0  0  0  0  0  0  0  0  0  0
   -8.3432  -17.7782   18.1352 H   0  0  0  0  0  0  0  0  0  0  0  0
   -9.9166  -17.0860   18.5265 H   0  0  0  0  0  0  0  0  0  0  0  0
   -9.0904  -14.8644   18.6897 H   0  0  0  0  0  0  0  0  0  0  0  0
   -7.9287  -15.8489   19.5550 H   0  0  0  0  0  0  0  0  0  0  0  0
   -3.9633   -9.1835   19.6129 H   0  0  0  0  0  0  0  0  0  0  0  0
   -2.0749  -10.3087   18.8120 H   0  0  0  0  0  0  0  0  0  0  0  0
   -1.7594   -9.9706   20.8789 H   0  0  0  0  0  0  0  0  0  0  0  0
   -2.7421   -8.4497   21.0638 H   0  0  0  0  0  0  0  0  0  0  0  0
    0.4445   -7.6719   21.4152 H   0  0  0  0  0  0  0  0  0  0  0  0
    1.9718   -6.4959   19.8248 H   0  0  0  0  0  0  0  0  0  0  0  0
    1.3939   -6.3650   17.4068 H   0  0  0  0  0  0  0  0  0  0  0  0
   -0.7298   -7.3827   16.5704 H   0  0  0  0  0  0  0  0  0  0  0  0
   -2.7671   -8.9962   17.1014 H   0  0  0  0  0  0  0  0  0  0  0  0
   -3.5977   -7.8735   18.2653 H   0  0  0  0  0  0  0  0  0  0  0  0
  1  2  2  0
  2  3  1  0
  3  4  1  0
  4  5  2  0
  5  6  1  0
  6  7  1  0
  7  8  1  0
  8  9  1  0
  9 10  1  0
 10 11  1  0
 11 12  1  0
  6 13  1  0
  2 14  1  0
 14 15  1  0
 15 16  1  0
 16 17  1  0
 17 18  2  0
 18 19  1  0
 19 20  2  0
 20 21  1  0
 21 22  2  0
 22 23  1  0
 13  3  2  0
 23 14  1  0
 12  7  1  0
 22 17  1  0
  4 24  1  0
  5 25  1  0
  7 26  1  0
  8 27  1  0
  8 28  1  0
  9 29  1  0
  9 30  1  0
 11 31  1  0
 11 32  1  0
 12 33  1  0
 12 34  1  0
 15 35  1  0
 15 36  1  0
 16 37  1  0
 16 38  1  0
 18 39  1  0
 19 40  1  0
 20 41  1  0
 21 42  1  0
 23 43  1  0
 23 44  1  0
M  END
>  <Energy>  (1774) 
931.71378077947031

>  <compound_id>  (1774) 
36204

>  <target_id>  (1774) 
1

>  <reference_id>  (1774) 
112

>  <inspiration_ids>  (1774) 
[146, 112]

>  <energy_score>  (1774) 
837.0212453455151

>  <distance_score>  (1774) 
14.6714389028469

>  <path>  (1774) 
/opt/xchem-fragalysis-2/maxwin/BulkDock/SCRATCH/511013/C36204-P112/C36204-P112.minimised.mol

>  <scratch_subdir>  (1774) 
/opt/xchem-fragalysis-2/maxwin/BulkDock/SCRATCH/511013/C36204-P112

>  <fragmenstein_runtime>  (1774) 
9.547770738601685

>  <fragmenstein_outcome>  (1774) 
too moved

>  <fragmenstein_mode>  (1774) 
expansion

>  <fragmenstein_error>  (1774) 


$$$$
C36205-P146
     RDKit          3D

 45 48  0  0  0  0  0  0  0  0999 V2000
   -0.4941  -11.9802   11.4960 O   0  0  0  0  0  0  0  0  0  0  0  0
    0.5980  -12.6054   12.1853 S   0  0  0  0  0  0  0  0  0  0  0  0
    1.0850  -13.8986   11.7635 O   0  0  0  0  0  0  0  0  0  0  0  0
   -0.7043  -13.4265   13.7313 C   0  0  0  0  0  0  0  0  0  0  0  0
   -1.0912  -14.3217   15.5839 C   0  0  0  0  0  0  0  0  0  0  0  0
   -2.8091  -14.8288   15.6409 N   0  0  0  0  0  0  0  0  0  0  0  0
   -3.1452  -14.5406   13.8335 N   0  0  0  0  0  0  0  0  0  0  0  0
   -4.3158  -15.6869   12.8601 C   0  0  0  0  0  0  0  0  0  0  0  0
   -4.4919  -17.1636   13.4781 C   0  0  0  0  0  0  0  0  0  0  0  0
   -5.8077  -17.6887   13.9946 C   0  0  0  0  0  0  0  0  0  0  0  0
   -6.7749  -17.5332   12.9596 O   0  0  0  0  0  0  0  0  0  0  0  0
   -7.1419  -16.1809   12.8318 C   0  0  0  0  0  0  0  0  0  0  0  0
   -5.9323  -15.3329   12.4017 C   0  0  0  0  0  0  0  0  0  0  0  0
   -1.2706  -14.5191   13.6937 C   0  0  0  0  0  0  0  0  0  0  0  0
    1.9354  -11.0477   11.3374 N   0  0  0  0  0  0  0  0  0  0  0  0
    3.5355  -10.6816   11.4358 C   0  0  0  0  0  0  0  0  0  0  0  0
    4.3777  -10.7036   10.1416 C   0  0  0  0  0  0  0  0  0  0  0  0
    4.2133   -9.2616    9.6650 C   0  0  0  0  0  0  0  0  0  0  0  0
    5.2992   -8.3708    9.6146 C   0  0  0  0  0  0  0  0  0  0  0  0
    5.0491   -7.0037    9.6847 C   0  0  0  0  0  0  0  0  0  0  0  0
    3.7305   -6.5412    9.8049 C   0  0  0  0  0  0  0  0  0  0  0  0
    2.6344   -7.4296    9.8326 C   0  0  0  0  0  0  0  0  0  0  0  0
    2.8524   -8.8049    9.7576 C   0  0  0  0  0  0  0  0  0  0  0  0
    1.7242   -9.9475    9.9970 C   0  0  0  0  0  0  0  0  0  0  0  0
   -0.6123  -14.2615   16.5753 H   0  0  0  0  0  0  0  0  0  0  0  0
   -3.7292  -15.6519   11.9502 H   0  0  0  0  0  0  0  0  0  0  0  0
   -3.7061  -17.4390   14.1848 H   0  0  0  0  0  0  0  0  0  0  0  0
   -4.5107  -17.7652   12.5717 H   0  0  0  0  0  0  0  0  0  0  0  0
   -6.1531  -17.2864   14.9509 H   0  0  0  0  0  0  0  0  0  0  0  0
   -5.6560  -18.7587   14.1607 H   0  0  0  0  0  0  0  0  0  0  0  0
   -7.9165  -16.1190   12.0575 H   0  0  0  0  0  0  0  0  0  0  0  0
   -7.6295  -15.8275   13.7475 H   0  0  0  0  0  0  0  0  0  0  0  0
   -5.9458  -15.6201   11.3369 H   0  0  0  0  0  0  0  0  0  0  0  0
   -6.1989  -14.2767   12.4947 H   0  0  0  0  0  0  0  0  0  0  0  0
   -1.4992  -15.3841   14.3962 H   0  0  0  0  0  0  0  0  0  0  0  0
    3.4926   -9.6071   11.5393 H   0  0  0  0  0  0  0  0  0  0  0  0
    4.0570  -10.4814   12.3931 H   0  0  0  0  0  0  0  0  0  0  0  0
    5.4240  -10.9346   10.3640 H   0  0  0  0  0  0  0  0  0  0  0  0
    4.0066  -11.4208    9.4038 H   0  0  0  0  0  0  0  0  0  0  0  0
    6.3228   -8.7358    9.6123 H   0  0  0  0  0  0  0  0  0  0  0  0
    5.8755   -6.2987    9.6686 H   0  0  0  0  0  0  0  0  0  0  0  0
    3.5476   -5.4710    9.8787 H   0  0  0  0  0  0  0  0  0  0  0  0
    1.6293   -7.0386    9.9584 H   0  0  0  0  0  0  0  0  0  0  0  0
    1.9652  -10.4530    9.0580 H   0  0  0  0  0  0  0  0  0  0  0  0
    0.7440   -9.5717    9.8598 H   0  0  0  0  0  0  0  0  0  0  0  0
  1  2  2  0
  2  3  2  0
  2  4  1  0
  4  5  1  0
  5  6  2  0
  6  7  1  0
  7  8  1  0
  8  9  1  0
  9 10  1  0
 10 11  1  0
 11 12  1  0
 12 13  1  0
  7 14  1  0
  2 15  1  0
 15 16  1  0
 16 17  1  0
 17 18  1  0
 18 19  2  0
 19 20  1  0
 20 21  2  0
 21 22  1  0
 22 23  2  0
 23 24  1  0
 14  4  2  0
 24 15  1  0
 13  8  1  0
 23 18  1  0
  5 25  1  0
  8 26  1  0
  9 27  1  0
  9 28  1  0
 10 29  1  0
 10 30  1  0
 12 31  1  0
 12 32  1  0
 13 33  1  0
 13 34  1  0
 14 35  1  0
 16 36  1  0
 16 37  1  0
 17 38  1  0
 17 39  1  0
 19 40  1  0
 20 41  1  0
 21 42  1  0
 22 43  1  0
 24 44  1  0
 24 45  1  0
M  END
>  <Energy>  (1775) 
883.78062620407604

>  <compound_id>  (1775) 
36205

>  <target_id>  (1775) 
1

>  <reference_id>  (1775) 
146

>  <inspiration_ids>  (1775) 
[146, 112]

>  <energy_score>  (1775) 
851.5784849492852

>  <distance_score>  (1775) 
13.398308358118696

>  <path>  (1775) 
/opt/xchem-fragalysis-2/maxwin/BulkDock/SCRATCH/511013/C36205-P146/C36205-P146.minimised.mol

>  <scratch_subdir>  (1775) 
/opt/xchem-fragalysis-2/maxwin/BulkDock/SCRATCH/511013/C36205-P146

>  <fragmenstein_runtime>  (1775) 
8.966574668884277

>  <fragmenstein_outcome>  (1775) 
too moved

>  <fragmenstein_mode>  (1775) 
expansion

>  <fragmenstein_error>  (1775) 


$$$$
C36205-P112
     RDKit          3D

 45 48  0  0  0  0  0  0  0  0999 V2000
    0.7122  -10.3025   10.4062 O   0  0  0  0  0  0  0  0  0  0  0  0
    1.4035  -11.3091   11.1792 S   0  0  0  0  0  0  0  0  0  0  0  0
    1.3509  -11.0173   12.5274 O   0  0  0  0  0  0  0  0  0  0  0  0
    0.5471  -13.3404   11.4840 C   0  0  0  0  0  0  0  0  0  0  0  0
    0.7682  -14.9891   11.3395 C   0  0  0  0  0  0  0  0  0  0  0  0
   -0.2504  -15.8663   11.0065 N   0  0  0  0  0  0  0  0  0  0  0  0
   -1.3912  -15.1168   10.9463 N   0  0  0  0  0  0  0  0  0  0  0  0
   -2.7341  -15.6431    9.9321 C   0  0  0  0  0  0  0  0  0  0  0  0
   -4.4222  -15.9013   10.1867 C   0  0  0  0  0  0  0  0  0  0  0  0
   -5.1254  -17.2409    9.9093 C   0  0  0  0  0  0  0  0  0  0  0  0
   -4.6194  -17.8763    8.7623 O   0  0  0  0  0  0  0  0  0  0  0  0
   -3.2554  -18.1804    8.9719 C   0  0  0  0  0  0  0  0  0  0  0  0
   -2.3691  -16.9214    8.9978 C   0  0  0  0  0  0  0  0  0  0  0  0
   -0.7575  -13.7671   11.6672 C   0  0  0  0  0  0  0  0  0  0  0  0
    3.3213  -11.1678   10.5352 N   0  0  0  0  0  0  0  0  0  0  0  0
    3.8480  -11.7678    9.2795 C   0  0  0  0  0  0  0  0  0  0  0  0
    5.4042  -11.5055    9.0642 C   0  0  0  0  0  0  0  0  0  0  0  0
    6.2525  -11.3690   10.3184 C   0  0  0  0  0  0  0  0  0  0  0  0
    7.5240  -11.9280   10.4868 C   0  0  0  0  0  0  0  0  0  0  0  0
    8.1723  -11.8571   11.7281 C   0  0  0  0  0  0  0  0  0  0  0  0
    7.5689  -11.1956   12.7963 C   0  0  0  0  0  0  0  0  0  0  0  0
    6.3630  -10.5271   12.6000 C   0  0  0  0  0  0  0  0  0  0  0  0
    5.7036  -10.6317   11.3663 C   0  0  0  0  0  0  0  0  0  0  0  0
    4.3210  -10.0464   11.1105 C   0  0  0  0  0  0  0  0  0  0  0  0
    1.6208  -15.5197   10.9864 H   0  0  0  0  0  0  0  0  0  0  0  0
   -2.8539  -14.7060    9.4311 H   0  0  0  0  0  0  0  0  0  0  0  0
   -4.7099  -15.7217   11.2268 H   0  0  0  0  0  0  0  0  0  0  0  0
   -4.9067  -15.2182    9.4747 H   0  0  0  0  0  0  0  0  0  0  0  0
   -5.0564  -17.9190   10.7688 H   0  0  0  0  0  0  0  0  0  0  0  0
   -6.1955  -17.0608    9.7548 H   0  0  0  0  0  0  0  0  0  0  0  0
   -2.9347  -18.8061    8.1306 H   0  0  0  0  0  0  0  0  0  0  0  0
   -3.1363  -18.8039    9.8633 H   0  0  0  0  0  0  0  0  0  0  0  0
   -1.3522  -17.2825    9.1850 H   0  0  0  0  0  0  0  0  0  0  0  0
   -2.4165  -16.5620    7.9613 H   0  0  0  0  0  0  0  0  0  0  0  0
   -0.7816  -14.0765   12.6970 H   0  0  0  0  0  0  0  0  0  0  0  0
    3.2934  -11.4071    8.4091 H   0  0  0  0  0  0  0  0  0  0  0  0
    3.7066  -12.8476    9.2983 H   0  0  0  0  0  0  0  0  0  0  0  0
    5.7953  -12.3159    8.4369 H   0  0  0  0  0  0  0  0  0  0  0  0
    5.5281  -10.5827    8.4833 H   0  0  0  0  0  0  0  0  0  0  0  0
    7.9906  -12.4770    9.6721 H   0  0  0  0  0  0  0  0  0  0  0  0
    9.1345  -12.3439   11.8627 H   0  0  0  0  0  0  0  0  0  0  0  0
    8.0505  -11.1587   13.7707 H   0  0  0  0  0  0  0  0  0  0  0  0
    5.9144   -9.9737   13.4232 H   0  0  0  0  0  0  0  0  0  0  0  0
    3.9688   -9.5974   12.0220 H   0  0  0  0  0  0  0  0  0  0  0  0
    4.5427   -9.2382   10.4187 H   0  0  0  0  0  0  0  0  0  0  0  0
  1  2  2  0
  2  3  2  0
  2  4  1  0
  4  5  1  0
  5  6  2  0
  6  7  1  0
  7  8  1  0
  8  9  1  0
  9 10  1  0
 10 11  1  0
 11 12  1  0
 12 13  1  0
  7 14  1  0
  2 15  1  0
 15 16  1  0
 16 17  1  0
 17 18  1  0
 18 19  2  0
 19 20  1  0
 20 21  2  0
 21 22  1  0
 22 23  2  0
 23 24  1  0
 14  4  2  0
 24 15  1  0
 13  8  1  0
 23 18  1  0
  5 25  1  0
  8 26  1  0
  9 27  1  0
  9 28  1  0
 10 29  1  0
 10 30  1  0
 12 31  1  0
 12 32  1  0
 13 33  1  0
 13 34  1  0
 14 35  1  0
 16 36  1  0
 16 37  1  0
 17 38  1  0
 17 39  1  0
 19 40  1  0
 20 41  1  0
 21 42  1  0
 22 43  1  0
 24 44  1  0
 24 45  1  0
M  END
>  <Energy>  (1776) 
362.67117459081686

>  <compound_id>  (1776) 
36205

>  <target_id>  (1776) 
1

>  <reference_id>  (1776) 
112

>  <inspiration_ids>  (1776) 
[146, 112]

>  <energy_score>  (1776) 
330.46903333602086

>  <distance_score>  (1776) 
13.9178438992997

>  <path>  (1776) 
/opt/xchem-fragalysis-2/maxwin/BulkDock/SCRATCH/511013/C36205-P112/C36205-P112.minimised.mol

>  <scratch_subdir>  (1776) 
/opt/xchem-fragalysis-2/maxwin/BulkDock/SCRATCH/511013/C36205-P112

>  <fragmenstein_runtime>  (1776) 
9.528712034225464

>  <fragmenstein_outcome>  (1776) 
too moved

>  <fragmenstein_mode>  (1776) 
expansion

>  <fragmenstein_error>  (1776) 


$$$$
C36206-P146
     RDKit          3D

 46 49  0  0  0  0  0  0  0  0999 V2000
    2.4606  -19.3835   19.7059 O   0  0  0  0  0  0  0  0  0  0  0  0
    1.8857  -18.3553   19.4927 C   0  0  0  0  0  0  0  0  0  0  0  0
    0.4782  -18.1010   19.0650 N   0  0  0  0  0  0  0  0  0  0  0  0
   -0.6095  -18.9901   18.8784 C   0  0  0  0  0  0  0  0  0  0  0  0
   -0.6405  -20.3992   18.7192 C   0  0  0  0  0  0  0  0  0  0  0  0
   -1.9583  -20.7468   18.4452 C   0  0  0  0  0  0  0  0  0  0  0  0
   -2.6876  -19.5943   18.5195 N   0  0  0  0  0  0  0  0  0  0  0  0
   -4.1495  -19.3831   18.4288 C   0  0  0  0  0  0  0  0  0  0  0  0
   -5.0705  -20.5905   18.7292 C   0  0  0  0  0  0  0  0  0  0  0  0
   -6.4869  -20.4085   18.1584 C   0  0  0  0  0  0  0  0  0  0  0  0
   -6.8465  -19.0343   18.1279 O   0  0  0  0  0  0  0  0  0  0  0  0
   -6.0587  -18.2815   17.2051 C   0  0  0  0  0  0  0  0  0  0  0  0
   -4.5966  -18.7333   17.1158 C   0  0  0  0  0  0  0  0  0  0  0  0
   -1.8747  -18.5233   18.7741 N   0  0  0  0  0  0  0  0  0  0  0  0
    2.4961  -17.0545   19.7355 N   0  0  0  0  0  0  0  0  0  0  0  0
    3.3294  -16.5595   18.1776 C   0  0  0  0  0  0  0  0  0  0  0  0
    5.0373  -17.0434   17.8018 C   0  0  0  0  0  0  0  0  0  0  0  0
    5.8413  -16.1157   18.6348 C   0  0  0  0  0  0  0  0  0  0  0  0
    7.1897  -15.7768   18.6816 C   0  0  0  0  0  0  0  0  0  0  0  0
    7.5961  -14.7435   19.5450 C   0  0  0  0  0  0  0  0  0  0  0  0
    6.6512  -14.0739   20.3432 C   0  0  0  0  0  0  0  0  0  0  0  0
    5.2966  -14.4431   20.2997 C   0  0  0  0  0  0  0  0  0  0  0  0
    4.9267  -15.4932   19.4542 C   0  0  0  0  0  0  0  0  0  0  0  0
    3.3458  -16.0451   18.9370 C   0  0  0  0  0  0  0  0  0  0  0  0
    0.3066  -17.1068   19.0618 H   0  0  0  0  0  0  0  0  0  0  0  0
    0.2029  -21.0760   18.7584 H   0  0  0  0  0  0  0  0  0  0  0  0
   -2.4043  -21.7089   18.2361 H   0  0  0  0  0  0  0  0  0  0  0  0
   -4.3387  -18.6510   19.2296 H   0  0  0  0  0  0  0  0  0  0  0  0
   -4.6545  -21.5375   18.3795 H   0  0  0  0  0  0  0  0  0  0  0  0
   -5.1391  -20.6900   19.8207 H   0  0  0  0  0  0  0  0  0  0  0  0
   -7.2096  -20.9302   18.7922 H   0  0  0  0  0  0  0  0  0  0  0  0
   -6.5770  -20.8108   17.1501 H   0  0  0  0  0  0  0  0  0  0  0  0
   -6.5233  -18.2939   16.2172 H   0  0  0  0  0  0  0  0  0  0  0  0
   -6.0944  -17.2418   17.5490 H   0  0  0  0  0  0  0  0  0  0  0  0
   -3.9730  -17.8713   16.8554 H   0  0  0  0  0  0  0  0  0  0  0  0
   -4.4759  -19.4451   16.2927 H   0  0  0  0  0  0  0  0  0  0  0  0
    2.6975  -16.1556   17.2358 H   0  0  0  0  0  0  0  0  0  0  0  0
    3.0411  -17.5778   17.6924 H   0  0  0  0  0  0  0  0  0  0  0  0
    5.1849  -16.8826   16.7302 H   0  0  0  0  0  0  0  0  0  0  0  0
    5.1681  -18.0915   18.0901 H   0  0  0  0  0  0  0  0  0  0  0  0
    7.9135  -16.2824   18.0496 H   0  0  0  0  0  0  0  0  0  0  0  0
    8.6446  -14.4603   19.5937 H   0  0  0  0  0  0  0  0  0  0  0  0
    6.9716  -13.2713   21.0028 H   0  0  0  0  0  0  0  0  0  0  0  0
    4.5638  -13.9194   20.9040 H   0  0  0  0  0  0  0  0  0  0  0  0
    2.7955  -14.9582   18.6243 H   0  0  0  0  0  0  0  0  0  0  0  0
    3.1403  -15.5126   19.9494 H   0  0  0  0  0  0  0  0  0  0  0  0
  1  2  2  0
  2  3  1  0
  3  4  1  0
  4  5  1  0
  5  6  2  0
  6  7  1  0
  7  8  1  0
  8  9  1  0
  9 10  1  0
 10 11  1  0
 11 12  1  0
 12 13  1  0
  7 14  1  0
  2 15  1  0
 15 16  1  0
 16 17  1  0
 17 18  1  0
 18 19  2  0
 19 20  1  0
 20 21  2  0
 21 22  1  0
 22 23  2  0
 23 24  1  0
 14  4  2  0
 24 15  1  0
 13  8  1  0
 23 18  1  0
  3 25  1  0
  5 26  1  0
  6 27  1  0
  8 28  1  0
  9 29  1  0
  9 30  1  0
 10 31  1  0
 10 32  1  0
 12 33  1  0
 12 34  1  0
 13 35  1  0
 13 36  1  0
 16 37  1  0
 16 38  1  0
 17 39  1  0
 17 40  1  0
 19 41  1  0
 20 42  1  0
 21 43  1  0
 22 44  1  0
 24 45  1  0
 24 46  1  0
M  END
>  <Energy>  (1777) 
534.92167079042008

>  <compound_id>  (1777) 
36206

>  <target_id>  (1777) 
1

>  <reference_id>  (1777) 
146

>  <inspiration_ids>  (1777) 
[146, 112]

>  <energy_score>  (1777) 
554.7286435377353

>  <distance_score>  (1777) 
14.23771398247204

>  <path>  (1777) 
/opt/xchem-fragalysis-2/maxwin/BulkDock/SCRATCH/511013/C36206-P146/C36206-P146.minimised.mol

>  <scratch_subdir>  (1777) 
/opt/xchem-fragalysis-2/maxwin/BulkDock/SCRATCH/511013/C36206-P146

>  <fragmenstein_runtime>  (1777) 
17.65181875228882

>  <fragmenstein_outcome>  (1777) 
too moved

>  <fragmenstein_mode>  (1777) 
expansion

>  <fragmenstein_error>  (1777) 


$$$$
C36206-P112
     RDKit          3D

 46 49  0  0  0  0  0  0  0  0999 V2000
    0.9446  -13.1609   13.1339 O   0  0  0  0  0  0  0  0  0  0  0  0
    0.4676  -12.7487   12.1374 C   0  0  0  0  0  0  0  0  0  0  0  0
   -0.3897  -13.3703   11.2106 N   0  0  0  0  0  0  0  0  0  0  0  0
   -0.9475  -14.9114   11.1033 C   0  0  0  0  0  0  0  0  0  0  0  0
   -0.1016  -16.1325   10.7647 C   0  0  0  0  0  0  0  0  0  0  0  0
   -0.7569  -17.0089    9.8431 C   0  0  0  0  0  0  0  0  0  0  0  0
   -2.1156  -16.3882    9.4700 N   0  0  0  0  0  0  0  0  0  0  0  0
   -3.3182  -17.1587    8.9993 C   0  0  0  0  0  0  0  0  0  0  0  0
   -3.1669  -18.0526    7.7603 C   0  0  0  0  0  0  0  0  0  0  0  0
   -4.5242  -18.6748    7.3525 C   0  0  0  0  0  0  0  0  0  0  0  0
   -5.4619  -18.6880    8.4306 O   0  0  0  0  0  0  0  0  0  0  0  0
   -5.8309  -17.3622    8.8360 C   0  0  0  0  0  0  0  0  0  0  0  0
   -4.6380  -16.3887    8.8455 C   0  0  0  0  0  0  0  0  0  0  0  0
   -2.2025  -15.1714   10.4285 N   0  0  0  0  0  0  0  0  0  0  0  0
    0.6620  -11.0603   11.6231 N   0  0  0  0  0  0  0  0  0  0  0  0
    1.6220  -10.3185   10.8100 C   0  0  0  0  0  0  0  0  0  0  0  0
    2.1829   -8.6071   10.2847 C   0  0  0  0  0  0  0  0  0  0  0  0
    3.6288   -8.7020   10.5725 C   0  0  0  0  0  0  0  0  0  0  0  0
    4.6449   -7.7590   10.6871 C   0  0  0  0  0  0  0  0  0  0  0  0
    5.9469   -8.2129   10.9157 C   0  0  0  0  0  0  0  0  0  0  0  0
    6.2065   -9.5915   10.9489 C   0  0  0  0  0  0  0  0  0  0  0  0
    5.1657  -10.5253   10.8084 C   0  0  0  0  0  0  0  0  0  0  0  0
    3.8531  -10.0565   10.7315 C   0  0  0  0  0  0  0  0  0  0  0  0
    2.3016  -10.9520   10.5028 C   0  0  0  0  0  0  0  0  0  0  0  0
   -0.6628  -12.7137   10.5460 H   0  0  0  0  0  0  0  0  0  0  0  0
    0.9294  -16.2542   11.0635 H   0  0  0  0  0  0  0  0  0  0  0  0
   -0.5094  -17.9545    9.3822 H   0  0  0  0  0  0  0  0  0  0  0  0
   -3.4681  -17.9031    9.7783 H   0  0  0  0  0  0  0  0  0  0  0  0
   -2.4546  -18.8579    7.9796 H   0  0  0  0  0  0  0  0  0  0  0  0
   -2.7438  -17.4976    6.9148 H   0  0  0  0  0  0  0  0  0  0  0  0
   -4.3716  -19.7066    7.0192 H   0  0  0  0  0  0  0  0  0  0  0  0
   -4.9590  -18.1257    6.5083 H   0  0  0  0  0  0  0  0  0  0  0  0
   -6.2600  -17.4437    9.8396 H   0  0  0  0  0  0  0  0  0  0  0  0
   -6.6210  -16.9929    8.1729 H   0  0  0  0  0  0  0  0  0  0  0  0
   -4.7958  -15.6319    9.6084 H   0  0  0  0  0  0  0  0  0  0  0  0
   -4.6171  -15.8366    7.8964 H   0  0  0  0  0  0  0  0  0  0  0  0
    1.0714   -9.5841   11.4251 H   0  0  0  0  0  0  0  0  0  0  0  0
    0.7812  -10.0894    9.9679 H   0  0  0  0  0  0  0  0  0  0  0  0
    2.0113   -8.5357    9.2016 H   0  0  0  0  0  0  0  0  0  0  0  0
    1.6593   -7.7890   10.7847 H   0  0  0  0  0  0  0  0  0  0  0  0
    4.4334   -6.6983   10.6047 H   0  0  0  0  0  0  0  0  0  0  0  0
    6.7613   -7.5024   11.0242 H   0  0  0  0  0  0  0  0  0  0  0  0
    7.2251   -9.9470   11.0624 H   0  0  0  0  0  0  0  0  0  0  0  0
    5.3897  -11.5870   10.7924 H   0  0  0  0  0  0  0  0  0  0  0  0
    2.7119  -11.9851   10.5707 H   0  0  0  0  0  0  0  0  0  0  0  0
    2.3684  -10.9378    9.2719 H   0  0  0  0  0  0  0  0  0  0  0  0
  1  2  2  0
  2  3  1  0
  3  4  1  0
  4  5  1  0
  5  6  2  0
  6  7  1  0
  7  8  1  0
  8  9  1  0
  9 10  1  0
 10 11  1  0
 11 12  1  0
 12 13  1  0
  7 14  1  0
  2 15  1  0
 15 16  1  0
 16 17  1  0
 17 18  1  0
 18 19  2  0
 19 20  1  0
 20 21  2  0
 21 22  1  0
 22 23  2  0
 23 24  1  0
 14  4  2  0
 24 15  1  0
 13  8  1  0
 23 18  1  0
  3 25  1  0
  5 26  1  0
  6 27  1  0
  8 28  1  0
  9 29  1  0
  9 30  1  0
 10 31  1  0
 10 32  1  0
 12 33  1  0
 12 34  1  0
 13 35  1  0
 13 36  1  0
 16 37  1  0
 16 38  1  0
 17 39  1  0
 17 40  1  0
 19 41  1  0
 20 42  1  0
 21 43  1  0
 22 44  1  0
 24 45  1  0
 24 46  1  0
M  END
>  <Energy>  (1778) 
743.63660952995667

>  <compound_id>  (1778) 
36206

>  <target_id>  (1778) 
1

>  <reference_id>  (1778) 
112

>  <inspiration_ids>  (1778) 
[146, 112]

>  <energy_score>  (1778) 
763.4435822772732

>  <distance_score>  (1778) 
13.518237299741948

>  <path>  (1778) 
/opt/xchem-fragalysis-2/maxwin/BulkDock/SCRATCH/511013/C36206-P112/C36206-P112.minimised.mol

>  <scratch_subdir>  (1778) 
/opt/xchem-fragalysis-2/maxwin/BulkDock/SCRATCH/511013/C36206-P112

>  <fragmenstein_runtime>  (1778) 
13.229709148406982

>  <fragmenstein_outcome>  (1778) 
too moved

>  <fragmenstein_mode>  (1778) 
expansion

>  <fragmenstein_error>  (1778) 


$$$$
C36208-P146
     RDKit          3D

 58 61  0  0  0  0  0  0  0  0999 V2000
   -5.0618  -16.5337    7.8996 O   0  0  0  0  0  0  0  0  0  0  0  0
   -4.1302  -15.7696    7.8355 C   0  0  0  0  0  0  0  0  0  0  0  0
   -4.6310  -14.3616    7.5176 C   0  0  0  0  0  0  0  0  0  0  0  0
   -6.1149  -14.3285    7.6018 N   0  0  0  0  0  0  0  0  0  0  0  0
   -6.9251  -14.6641    8.6671 C   0  0  0  0  0  0  0  0  0  0  0  0
   -8.1886  -14.8433    8.1600 C   0  0  0  0  0  0  0  0  0  0  0  0
   -8.0729  -14.4637    6.8136 C   0  0  0  0  0  0  0  0  0  0  0  0
   -6.8405  -14.0512    6.4902 N   0  0  0  0  0  0  0  0  0  0  0  0
   -2.6108  -16.0228    8.0123 N   0  0  0  0  0  0  0  0  0  0  0  0
   -2.0778  -15.7503    9.8807 C   0  0  0  0  0  0  0  0  0  0  0  0
   -0.5641  -14.8160   10.9182 C   0  0  0  0  0  0  0  0  0  0  0  0
    0.5700  -13.2822   11.6150 C   0  0  0  0  0  0  0  0  0  0  0  0
    1.6070  -11.6997   11.5414 N   0  0  0  0  0  0  0  0  0  0  0  0
    2.0849  -11.4837   13.2882 C   0  0  0  0  0  0  0  0  0  0  0  0
    3.7403  -10.8165   14.3859 C   0  0  0  0  0  0  0  0  0  0  0  0
    5.0823  -10.8287   13.7061 C   0  0  0  0  0  0  0  0  0  0  0  0
    6.3230  -10.1766   14.1528 C   0  0  0  0  0  0  0  0  0  0  0  0
    6.4040   -8.8074   14.6144 C   0  0  0  0  0  0  0  0  0  0  0  0
    5.2616   -8.0244   14.6355 C   0  0  0  0  0  0  0  0  0  0  0  0
    4.3371   -8.4625   13.6482 C   0  0  0  0  0  0  0  0  0  0  0  0
    4.1643  -10.0795   13.0035 C   0  0  0  0  0  0  0  0  0  0  0  0
    3.1799  -10.7804   11.4331 C   0  0  0  0  0  0  0  0  0  0  0  0
   -1.8449  -17.3579    8.1957 C   0  0  0  0  0  0  0  0  0  0  0  0
   -1.0260  -17.4288    6.8243 C   0  0  0  0  0  0  0  0  0  0  0  0
   -1.8828  -17.4923    5.5501 C   0  0  0  0  0  0  0  0  0  0  0  0
   -2.6617  -18.6781    5.4818 O   0  0  0  0  0  0  0  0  0  0  0  0
   -3.5712  -18.7205    6.5633 C   0  0  0  0  0  0  0  0  0  0  0  0
   -2.8026  -18.6328    7.8757 C   0  0  0  0  0  0  0  0  0  0  0  0
   -4.3719  -14.1034    6.4857 H   0  0  0  0  0  0  0  0  0  0  0  0
   -4.2583  -13.6196    8.2053 H   0  0  0  0  0  0  0  0  0  0  0  0
   -6.5224  -14.8702    9.6453 H   0  0  0  0  0  0  0  0  0  0  0  0
   -9.0606  -15.2021    8.6855 H   0  0  0  0  0  0  0  0  0  0  0  0
   -8.8429  -14.4466    6.0535 H   0  0  0  0  0  0  0  0  0  0  0  0
   -2.9537  -15.5937   10.4777 H   0  0  0  0  0  0  0  0  0  0  0  0
   -1.4050  -16.5506   10.0123 H   0  0  0  0  0  0  0  0  0  0  0  0
   -0.8654  -15.0460   11.9015 H   0  0  0  0  0  0  0  0  0  0  0  0
    0.2232  -15.5964   10.8162 H   0  0  0  0  0  0  0  0  0  0  0  0
    1.1960  -13.8883   12.2687 H   0  0  0  0  0  0  0  0  0  0  0  0
   -0.1753  -12.8197   12.2576 H   0  0  0  0  0  0  0  0  0  0  0  0
    1.5543  -12.3489   13.7589 H   0  0  0  0  0  0  0  0  0  0  0  0
    1.4781  -10.8908   12.5787 H   0  0  0  0  0  0  0  0  0  0  0  0
    3.9819  -11.4969   15.2598 H   0  0  0  0  0  0  0  0  0  0  0  0
    3.6380   -9.9315   15.0453 H   0  0  0  0  0  0  0  0  0  0  0  0
    7.2576  -10.5421   13.6987 H   0  0  0  0  0  0  0  0  0  0  0  0
    7.4025   -8.3906   14.5790 H   0  0  0  0  0  0  0  0  0  0  0  0
    5.2726   -7.0006   14.9643 H   0  0  0  0  0  0  0  0  0  0  0  0
    4.1330   -7.7051   12.8690 H   0  0  0  0  0  0  0  0  0  0  0  0
    2.8850   -9.8950   10.8424 H   0  0  0  0  0  0  0  0  0  0  0  0
    3.8183  -11.3694   10.7666 H   0  0  0  0  0  0  0  0  0  0  0  0
   -1.0023  -17.5692    8.8502 H   0  0  0  0  0  0  0  0  0  0  0  0
   -0.3457  -16.5756    6.7367 H   0  0  0  0  0  0  0  0  0  0  0  0
   -0.3904  -18.3256    6.8543 H   0  0  0  0  0  0  0  0  0  0  0  0
   -2.5265  -16.6126    5.4375 H   0  0  0  0  0  0  0  0  0  0  0  0
   -1.2151  -17.5022    4.6817 H   0  0  0  0  0  0  0  0  0  0  0  0
   -4.0780  -19.6867    6.5083 H   0  0  0  0  0  0  0  0  0  0  0  0
   -4.3347  -17.9655    6.4026 H   0  0  0  0  0  0  0  0  0  0  0  0
   -2.1426  -19.5107    7.8205 H   0  0  0  0  0  0  0  0  0  0  0  0
   -3.5187  -18.8376    8.6418 H   0  0  0  0  0  0  0  0  0  0  0  0
  1  2  2  0
  2  3  1  0
  3  4  1  0
  4  5  1  0
  5  6  2  0
  6  7  1  0
  7  8  2  0
  2  9  1  0
  9 10  1  0
 10 11  1  0
 11 12  1  0
 12 13  1  0
 13 14  1  0
 14 15  1  0
 15 16  1  0
 16 17  2  0
 17 18  1  0
 18 19  2  0
 19 20  1  0
 20 21  2  0
 21 22  1  0
  9 23  1  0
 23 24  1  0
 24 25  1  0
 25 26  1  0
 26 27  1  0
 27 28  1  0
  8  4  1  0
 22 13  1  0
 28 23  1  0
 21 16  1  0
  3 29  1  0
  3 30  1  0
  5 31  1  0
  6 32  1  0
  7 33  1  0
 10 34  1  0
 10 35  1  0
 11 36  1  0
 11 37  1  0
 12 38  1  0
 12 39  1  0
 14 40  1  0
 14 41  1  0
 15 42  1  0
 15 43  1  0
 17 44  1  0
 18 45  1  0
 19 46  1  0
 20 47  1  0
 22 48  1  0
 22 49  1  0
 23 50  1  0
 24 51  1  0
 24 52  1  0
 25 53  1  0
 25 54  1  0
 27 55  1  0
 27 56  1  0
 28 57  1  0
 28 58  1  0
M  END
>  <Energy>  (1779) 
1089.9011822494426

>  <compound_id>  (1779) 
36208

>  <target_id>  (1779) 
1

>  <reference_id>  (1779) 
146

>  <inspiration_ids>  (1779) 
[146, 112]

>  <energy_score>  (1779) 
987.7609022226254

>  <distance_score>  (1779) 
13.333592913135208

>  <path>  (1779) 
/opt/xchem-fragalysis-2/maxwin/BulkDock/SCRATCH/511013/C36208-P146/C36208-P146.minimised.mol

>  <scratch_subdir>  (1779) 
/opt/xchem-fragalysis-2/maxwin/BulkDock/SCRATCH/511013/C36208-P146

>  <fragmenstein_runtime>  (1779) 
26.305781602859497

>  <fragmenstein_outcome>  (1779) 
too moved

>  <fragmenstein_mode>  (1779) 
expansion

>  <fragmenstein_error>  (1779) 


$$$$
C36208-P112
     RDKit          3D

 58 61  0  0  0  0  0  0  0  0999 V2000
   -7.2182  -10.9044   10.9111 O   0  0  0  0  0  0  0  0  0  0  0  0
   -6.4216  -11.2494   11.7654 C   0  0  0  0  0  0  0  0  0  0  0  0
   -6.6393  -12.7627   12.1174 C   0  0  0  0  0  0  0  0  0  0  0  0
   -7.5282  -13.6571   11.3075 N   0  0  0  0  0  0  0  0  0  0  0  0
   -8.2095  -14.7450   11.8370 C   0  0  0  0  0  0  0  0  0  0  0  0
   -8.6323  -15.5060   10.7753 C   0  0  0  0  0  0  0  0  0  0  0  0
   -8.1612  -14.8119    9.6464 C   0  0  0  0  0  0  0  0  0  0  0  0
   -7.4990  -13.6887    9.9541 N   0  0  0  0  0  0  0  0  0  0  0  0
   -5.3870  -10.4039   12.5808 N   0  0  0  0  0  0  0  0  0  0  0  0
   -3.6052  -10.3280   11.6455 C   0  0  0  0  0  0  0  0  0  0  0  0
   -1.4340  -10.7799   12.0297 C   0  0  0  0  0  0  0  0  0  0  0  0
    0.6323  -10.3931   11.4207 C   0  0  0  0  0  0  0  0  0  0  0  0
    2.6412  -10.3462   11.3200 N   0  0  0  0  0  0  0  0  0  0  0  0
    3.7415   -9.5457   12.2407 C   0  0  0  0  0  0  0  0  0  0  0  0
    3.7817   -7.7235   11.8380 C   0  0  0  0  0  0  0  0  0  0  0  0
    5.2015   -7.6997   11.9854 C   0  0  0  0  0  0  0  0  0  0  0  0
    5.5175   -7.5363   13.3292 C   0  0  0  0  0  0  0  0  0  0  0  0
    6.0822   -8.6208   13.9024 C   0  0  0  0  0  0  0  0  0  0  0  0
    6.6693   -9.5617   13.0724 C   0  0  0  0  0  0  0  0  0  0  0  0
    6.7930   -9.2465   11.7321 C   0  0  0  0  0  0  0  0  0  0  0  0
    5.6657   -8.7376   11.1698 C   0  0  0  0  0  0  0  0  0  0  0  0
    4.2593   -9.8595   10.4812 C   0  0  0  0  0  0  0  0  0  0  0  0
   -5.1965   -9.0180   12.6155 C   0  0  0  0  0  0  0  0  0  0  0  0
   -6.6458   -8.4264   12.1009 C   0  0  0  0  0  0  0  0  0  0  0  0
   -7.9396   -8.8507   12.8379 C   0  0  0  0  0  0  0  0  0  0  0  0
   -7.7281   -9.8002   13.8711 O   0  0  0  0  0  0  0  0  0  0  0  0
   -6.7329   -9.3440   14.7767 C   0  0  0  0  0  0  0  0  0  0  0  0
   -5.4594   -8.7067   14.1356 C   0  0  0  0  0  0  0  0  0  0  0  0
   -5.9271  -13.4365   12.5308 H   0  0  0  0  0  0  0  0  0  0  0  0
   -7.3016  -12.6142   12.9921 H   0  0  0  0  0  0  0  0  0  0  0  0
   -8.2952  -14.8767   12.9053 H   0  0  0  0  0  0  0  0  0  0  0  0
   -9.1852  -16.4328   10.8030 H   0  0  0  0  0  0  0  0  0  0  0  0
   -8.2707  -15.0794    8.6037 H   0  0  0  0  0  0  0  0  0  0  0  0
   -4.0213  -11.2862   11.7861 H   0  0  0  0  0  0  0  0  0  0  0  0
   -4.0758  -10.1544   10.7072 H   0  0  0  0  0  0  0  0  0  0  0  0
   -1.0938  -11.7933   11.7878 H   0  0  0  0  0  0  0  0  0  0  0  0
   -1.2312  -10.5497   13.0855 H   0  0  0  0  0  0  0  0  0  0  0  0
    0.7840  -11.4728   11.5006 H   0  0  0  0  0  0  0  0  0  0  0  0
    0.5788  -10.1184   10.3615 H   0  0  0  0  0  0  0  0  0  0  0  0
    3.8002   -9.7955   13.3459 H   0  0  0  0  0  0  0  0  0  0  0  0
    4.6840  -10.1026   12.2787 H   0  0  0  0  0  0  0  0  0  0  0  0
    3.5264   -7.3578   10.8455 H   0  0  0  0  0  0  0  0  0  0  0  0
    3.3181   -6.9873   12.5100 H   0  0  0  0  0  0  0  0  0  0  0  0
    4.9732   -6.8575   13.9777 H   0  0  0  0  0  0  0  0  0  0  0  0
    6.2153   -8.6294   14.9569 H   0  0  0  0  0  0  0  0  0  0  0  0
    7.2800  -10.3550   13.4776 H   0  0  0  0  0  0  0  0  0  0  0  0
    7.5811   -9.7001   11.1445 H   0  0  0  0  0  0  0  0  0  0  0  0
    4.3579   -8.9006    9.9744 H   0  0  0  0  0  0  0  0  0  0  0  0
    4.4479  -10.5954    9.6994 H   0  0  0  0  0  0  0  0  0  0  0  0
   -4.7475   -8.4340   11.8394 H   0  0  0  0  0  0  0  0  0  0  0  0
   -6.7581   -8.6099   11.0238 H   0  0  0  0  0  0  0  0  0  0  0  0
   -6.5885   -7.3277   12.1620 H   0  0  0  0  0  0  0  0  0  0  0  0
   -8.6675   -9.2640   12.1325 H   0  0  0  0  0  0  0  0  0  0  0  0
   -8.4179   -7.9648   13.2747 H   0  0  0  0  0  0  0  0  0  0  0  0
   -6.4500  -10.1980   15.3965 H   0  0  0  0  0  0  0  0  0  0  0  0
   -7.1904   -8.6185   15.4606 H   0  0  0  0  0  0  0  0  0  0  0  0
   -4.6244   -9.0304   14.7649 H   0  0  0  0  0  0  0  0  0  0  0  0
   -5.5396   -7.6188   14.2745 H   0  0  0  0  0  0  0  0  0  0  0  0
  1  2  2  0
  2  3  1  0
  3  4  1  0
  4  5  1  0
  5  6  2  0
  6  7  1  0
  7  8  2  0
  2  9  1  0
  9 10  1  0
 10 11  1  0
 11 12  1  0
 12 13  1  0
 13 14  1  0
 14 15  1  0
 15 16  1  0
 16 17  2  0
 17 18  1  0
 18 19  2  0
 19 20  1  0
 20 21  2  0
 21 22  1  0
  9 23  1  0
 23 24  1  0
 24 25  1  0
 25 26  1  0
 26 27  1  0
 27 28  1  0
  8  4  1  0
 22 13  1  0
 28 23  1  0
 21 16  1  0
  3 29  1  0
  3 30  1  0
  5 31  1  0
  6 32  1  0
  7 33  1  0
 10 34  1  0
 10 35  1  0
 11 36  1  0
 11 37  1  0
 12 38  1  0
 12 39  1  0
 14 40  1  0
 14 41  1  0
 15 42  1  0
 15 43  1  0
 17 44  1  0
 18 45  1  0
 19 46  1  0
 20 47  1  0
 22 48  1  0
 22 49  1  0
 23 50  1  0
 24 51  1  0
 24 52  1  0
 25 53  1  0
 25 54  1  0
 27 55  1  0
 27 56  1  0
 28 57  1  0
 28 58  1  0
M  END
>  <Energy>  (1780) 
1211.3205488439494

>  <compound_id>  (1780) 
36208

>  <target_id>  (1780) 
1

>  <reference_id>  (1780) 
112

>  <inspiration_ids>  (1780) 
[146, 112]

>  <energy_score>  (1780) 
1109.1802688171358

>  <distance_score>  (1780) 
13.41969371623014

>  <path>  (1780) 
/opt/xchem-fragalysis-2/maxwin/BulkDock/SCRATCH/511013/C36208-P112/C36208-P112.minimised.mol

>  <scratch_subdir>  (1780) 
/opt/xchem-fragalysis-2/maxwin/BulkDock/SCRATCH/511013/C36208-P112

>  <fragmenstein_runtime>  (1780) 
22.136667251586914

>  <fragmenstein_outcome>  (1780) 
too moved

>  <fragmenstein_mode>  (1780) 
expansion

>  <fragmenstein_error>  (1780) 


$$$$
C36211-P146
     RDKit          3D

 51 54  0  0  0  0  0  0  0  0999 V2000
    2.7303  -16.5066   18.0357 O   0  0  0  0  0  0  0  0  0  0  0  0
    3.0237  -16.7080   19.1837 C   0  0  0  0  0  0  0  0  0  0  0  0
    2.3589  -17.5312   20.2131 N   0  0  0  0  0  0  0  0  0  0  0  0
    1.1533  -18.4639   20.1255 C   0  0  0  0  0  0  0  0  0  0  0  0
    1.3563  -19.7409   19.3021 C   0  0  0  0  0  0  0  0  0  0  0  0
   -0.0487  -20.3432   19.0896 C   0  0  0  0  0  0  0  0  0  0  0  0
   -1.0379  -19.3252   19.4785 N   0  0  0  0  0  0  0  0  0  0  0  0
   -2.3137  -19.3958   18.6884 C   0  0  0  0  0  0  0  0  0  0  0  0
   -2.9792  -20.8080   18.7828 C   0  0  0  0  0  0  0  0  0  0  0  0
   -4.5089  -20.7767   18.7809 C   0  0  0  0  0  0  0  0  0  0  0  0
   -4.9743  -19.8221   17.8476 O   0  0  0  0  0  0  0  0  0  0  0  0
   -4.6475  -18.4857   18.2124 C   0  0  0  0  0  0  0  0  0  0  0  0
   -3.3766  -18.3526   19.0718 C   0  0  0  0  0  0  0  0  0  0  0  0
   -0.2743  -18.0470   19.6144 C   0  0  0  0  0  0  0  0  0  0  0  0
    4.4743  -15.9934   19.7551 C   0  0  0  0  0  0  0  0  0  0  0  0
    4.4519  -14.4333   19.9097 C   0  0  0  0  0  0  0  0  0  0  0  0
    5.7968  -13.6784   19.9860 C   0  0  0  0  0  0  0  0  0  0  0  0
    5.8878  -12.3025   20.3001 C   0  0  0  0  0  0  0  0  0  0  0  0
    7.1049  -11.6038   20.2284 C   0  0  0  0  0  0  0  0  0  0  0  0
    8.2633  -12.2739   19.8579 C   0  0  0  0  0  0  0  0  0  0  0  0
    8.1946  -13.6383   19.5608 C   0  0  0  0  0  0  0  0  0  0  0  0
    6.9646  -14.3406   19.5979 C   0  0  0  0  0  0  0  0  0  0  0  0
    6.8895  -15.8034   19.2226 C   0  0  0  0  0  0  0  0  0  0  0  0
    5.5668  -16.2906   18.7766 N   0  0  0  0  0  0  0  0  0  0  0  0
    2.8365  -17.4060   21.0972 H   0  0  0  0  0  0  0  0  0  0  0  0
    1.0212  -18.7735   21.1724 H   0  0  0  0  0  0  0  0  0  0  0  0
    2.0202  -20.4433   19.8173 H   0  0  0  0  0  0  0  0  0  0  0  0
    1.8183  -19.5058   18.3376 H   0  0  0  0  0  0  0  0  0  0  0  0
   -0.1535  -20.6687   18.0527 H   0  0  0  0  0  0  0  0  0  0  0  0
   -0.1708  -21.2254   19.7276 H   0  0  0  0  0  0  0  0  0  0  0  0
   -2.0556  -19.2273   17.6355 H   0  0  0  0  0  0  0  0  0  0  0  0
   -2.6564  -21.3389   19.6867 H   0  0  0  0  0  0  0  0  0  0  0  0
   -2.6282  -21.4041   17.9306 H   0  0  0  0  0  0  0  0  0  0  0  0
   -4.9047  -21.7615   18.5226 H   0  0  0  0  0  0  0  0  0  0  0  0
   -4.9009  -20.5378   19.7774 H   0  0  0  0  0  0  0  0  0  0  0  0
   -5.5017  -18.0471   18.7398 H   0  0  0  0  0  0  0  0  0  0  0  0
   -4.5221  -17.9235   17.2807 H   0  0  0  0  0  0  0  0  0  0  0  0
   -3.6438  -18.4897   20.1282 H   0  0  0  0  0  0  0  0  0  0  0  0
   -2.9913  -17.3308   18.9872 H   0  0  0  0  0  0  0  0  0  0  0  0
   -0.7586  -17.3714   20.3254 H   0  0  0  0  0  0  0  0  0  0  0  0
   -0.1505  -17.5344   18.6696 H   0  0  0  0  0  0  0  0  0  0  0  0
    4.7207  -16.4693   20.7113 H   0  0  0  0  0  0  0  0  0  0  0  0
    3.9298  -14.0484   19.0283 H   0  0  0  0  0  0  0  0  0  0  0  0
    3.8723  -14.1988   20.8090 H   0  0  0  0  0  0  0  0  0  0  0  0
    4.9968  -11.7536   20.5932 H   0  0  0  0  0  0  0  0  0  0  0  0
    7.1356  -10.5437   20.4642 H   0  0  0  0  0  0  0  0  0  0  0  0
    9.2120  -11.7484   19.8017 H   0  0  0  0  0  0  0  0  0  0  0  0
    9.1036  -14.1622   19.2698 H   0  0  0  0  0  0  0  0  0  0  0  0
    7.2141  -16.3995   20.0840 H   0  0  0  0  0  0  0  0  0  0  0  0
    7.5984  -16.0034   18.4107 H   0  0  0  0  0  0  0  0  0  0  0  0
    5.3107  -15.8386   17.8936 H   0  0  0  0  0  0  0  0  0  0  0  0
  1  2  2  0
  2  3  1  0
  3  4  1  0
  4  5  1  0
  5  6  1  0
  6  7  1  0
  7  8  1  0
  8  9  1  0
  9 10  1  0
 10 11  1  0
 11 12  1  0
 12 13  1  0
  7 14  1  0
  2 15  1  0
 15 16  1  0
 16 17  1  0
 17 18  2  0
 18 19  1  0
 19 20  2  0
 20 21  1  0
 21 22  2  0
 22 23  1  0
 23 24  1  0
 14  4  1  0
 24 15  1  0
 13  8  1  0
 22 17  1  0
  3 25  1  0
  4 26  1  0
  5 27  1  0
  5 28  1  0
  6 29  1  0
  6 30  1  0
  8 31  1  0
  9 32  1  0
  9 33  1  0
 10 34  1  0
 10 35  1  0
 12 36  1  0
 12 37  1  0
 13 38  1  0
 13 39  1  0
 14 40  1  0
 14 41  1  0
 15 42  1  0
 16 43  1  0
 16 44  1  0
 18 45  1  0
 19 46  1  0
 20 47  1  0
 21 48  1  0
 23 49  1  0
 23 50  1  0
 24 51  1  0
M  END
>  <Energy>  (1781) 
116.8984146182033

>  <compound_id>  (1781) 
36211

>  <target_id>  (1781) 
1

>  <reference_id>  (1781) 
146

>  <inspiration_ids>  (1781) 
[146, 112]

>  <energy_score>  (1781) 
-10.405138712637836

>  <distance_score>  (1781) 
14.21952411460839

>  <path>  (1781) 
/opt/xchem-fragalysis-2/maxwin/BulkDock/SCRATCH/511013/C36211-P146/C36211-P146.minimised.mol

>  <scratch_subdir>  (1781) 
/opt/xchem-fragalysis-2/maxwin/BulkDock/SCRATCH/511013/C36211-P146

>  <fragmenstein_runtime>  (1781) 
18.13587212562561

>  <fragmenstein_outcome>  (1781) 
too moved

>  <fragmenstein_mode>  (1781) 
expansion

>  <fragmenstein_error>  (1781) 


$$$$
C36211-P112
     RDKit          3D

 51 54  0  0  0  0  0  0  0  0999 V2000
   -2.3937   -9.1444   18.0684 O   0  0  0  0  0  0  0  0  0  0  0  0
   -1.9082   -9.6296   19.0616 C   0  0  0  0  0  0  0  0  0  0  0  0
   -2.2963  -10.8335   19.8333 N   0  0  0  0  0  0  0  0  0  0  0  0
   -3.5079  -11.7988   19.6789 C   0  0  0  0  0  0  0  0  0  0  0  0
   -4.7672  -11.1922   19.0656 C   0  0  0  0  0  0  0  0  0  0  0  0
   -5.7011  -12.3575   18.6878 C   0  0  0  0  0  0  0  0  0  0  0  0
   -4.9904  -13.6281   18.8930 N   0  0  0  0  0  0  0  0  0  0  0  0
   -5.4584  -14.7243   17.9625 C   0  0  0  0  0  0  0  0  0  0  0  0
   -4.9767  -16.1364   18.3589 C   0  0  0  0  0  0  0  0  0  0  0  0
   -5.5753  -17.2272   17.4559 C   0  0  0  0  0  0  0  0  0  0  0  0
   -7.0006  -17.2044   17.4808 O   0  0  0  0  0  0  0  0  0  0  0  0
   -7.4989  -15.9702   16.9806 C   0  0  0  0  0  0  0  0  0  0  0  0
   -7.0188  -14.8069   17.8499 C   0  0  0  0  0  0  0  0  0  0  0  0
   -3.5310  -13.2525   18.9950 C   0  0  0  0  0  0  0  0  0  0  0  0
   -0.6358   -8.6724   19.7195 C   0  0  0  0  0  0  0  0  0  0  0  0
    0.1926   -7.8292   18.6360 C   0  0  0  0  0  0  0  0  0  0  0  0
    1.6658   -7.5045   18.9033 C   0  0  0  0  0  0  0  0  0  0  0  0
    2.4755   -6.8410   17.9550 C   0  0  0  0  0  0  0  0  0  0  0  0
    3.8351   -6.5853   18.1956 C   0  0  0  0  0  0  0  0  0  0  0  0
    4.4058   -6.9801   19.3990 C   0  0  0  0  0  0  0  0  0  0  0  0
    3.6087   -7.6213   20.3534 C   0  0  0  0  0  0  0  0  0  0  0  0
    2.2416   -7.8939   20.1114 C   0  0  0  0  0  0  0  0  0  0  0  0
    1.3595   -8.5046   21.1742 C   0  0  0  0  0  0  0  0  0  0  0  0
    0.2401   -9.3601   20.6936 N   0  0  0  0  0  0  0  0  0  0  0  0
   -1.6138  -10.9922   20.5660 H   0  0  0  0  0  0  0  0  0  0  0  0
   -3.7430  -11.9981   20.7352 H   0  0  0  0  0  0  0  0  0  0  0  0
   -5.2523  -10.5043   19.7669 H   0  0  0  0  0  0  0  0  0  0  0  0
   -4.5213  -10.6147   18.1690 H   0  0  0  0  0  0  0  0  0  0  0  0
   -6.5954  -12.3339   19.3204 H   0  0  0  0  0  0  0  0  0  0  0  0
   -6.0248  -12.2102   17.6519 H   0  0  0  0  0  0  0  0  0  0  0  0
   -5.0672  -14.5043   16.9627 H   0  0  0  0  0  0  0  0  0  0  0  0
   -3.8832  -16.1880   18.3207 H   0  0  0  0  0  0  0  0  0  0  0  0
   -5.2791  -16.3344   19.3954 H   0  0  0  0  0  0  0  0  0  0  0  0
   -5.2223  -17.1202   16.4230 H   0  0  0  0  0  0  0  0  0  0  0  0
   -5.2540  -18.2114   17.8117 H   0  0  0  0  0  0  0  0  0  0  0  0
   -7.1882  -15.8405   15.9371 H   0  0  0  0  0  0  0  0  0  0  0  0
   -8.5923  -16.0193   16.9967 H   0  0  0  0  0  0  0  0  0  0  0  0
   -7.4340  -13.8835   17.4338 H   0  0  0  0  0  0  0  0  0  0  0  0
   -7.4323  -14.9295   18.8598 H   0  0  0  0  0  0  0  0  0  0  0  0
   -3.0206  -13.9696   19.6430 H   0  0  0  0  0  0  0  0  0  0  0  0
   -3.0235  -13.2391   18.0292 H   0  0  0  0  0  0  0  0  0  0  0  0
   -1.1982   -7.9268   20.3026 H   0  0  0  0  0  0  0  0  0  0  0  0
   -0.3318   -6.8744   18.4989 H   0  0  0  0  0  0  0  0  0  0  0  0
    0.1594   -8.3428   17.6783 H   0  0  0  0  0  0  0  0  0  0  0  0
    2.0411   -6.5222   17.0116 H   0  0  0  0  0  0  0  0  0  0  0  0
    4.4350   -6.0819   17.4426 H   0  0  0  0  0  0  0  0  0  0  0  0
    5.4552   -6.7862   19.6037 H   0  0  0  0  0  0  0  0  0  0  0  0
    4.0577   -7.9103   21.3018 H   0  0  0  0  0  0  0  0  0  0  0  0
    1.9753   -9.1331   21.8280 H   0  0  0  0  0  0  0  0  0  0  0  0
    0.9519   -7.6953   21.7929 H   0  0  0  0  0  0  0  0  0  0  0  0
   -0.3119   -9.6062   21.5139 H   0  0  0  0  0  0  0  0  0  0  0  0
  1  2  2  0
  2  3  1  0
  3  4  1  0
  4  5  1  0
  5  6  1  0
  6  7  1  0
  7  8  1  0
  8  9  1  0
  9 10  1  0
 10 11  1  0
 11 12  1  0
 12 13  1  0
  7 14  1  0
  2 15  1  0
 15 16  1  0
 16 17  1  0
 17 18  2  0
 18 19  1  0
 19 20  2  0
 20 21  1  0
 21 22  2  0
 22 23  1  0
 23 24  1  0
 14  4  1  0
 24 15  1  0
 13  8  1  0
 22 17  1  0
  3 25  1  0
  4 26  1  0
  5 27  1  0
  5 28  1  0
  6 29  1  0
  6 30  1  0
  8 31  1  0
  9 32  1  0
  9 33  1  0
 10 34  1  0
 10 35  1  0
 12 36  1  0
 12 37  1  0
 13 38  1  0
 13 39  1  0
 14 40  1  0
 14 41  1  0
 15 42  1  0
 16 43  1  0
 16 44  1  0
 18 45  1  0
 19 46  1  0
 20 47  1  0
 21 48  1  0
 23 49  1  0
 23 50  1  0
 24 51  1  0
M  END
>  <Energy>  (1782) 
123.9853575951763

>  <compound_id>  (1782) 
36211

>  <target_id>  (1782) 
1

>  <reference_id>  (1782) 
112

>  <inspiration_ids>  (1782) 
[146, 112]

>  <energy_score>  (1782) 
-3.318195735667871

>  <distance_score>  (1782) 
14.154613294918299

>  <path>  (1782) 
/opt/xchem-fragalysis-2/maxwin/BulkDock/SCRATCH/511013/C36211-P112/C36211-P112.minimised.mol

>  <scratch_subdir>  (1782) 
/opt/xchem-fragalysis-2/maxwin/BulkDock/SCRATCH/511013/C36211-P112

>  <fragmenstein_runtime>  (1782) 
16.527594566345215

>  <fragmenstein_outcome>  (1782) 
too moved

>  <fragmenstein_mode>  (1782) 
expansion

>  <fragmenstein_error>  (1782) 


$$$$
C13647-P146
     RDKit          3D

 40 42  0  0  0  0  0  0  0  0999 V2000
    3.7258  -11.0905   10.5693 O   0  0  0  0  0  0  0  0  0  0  0  0
    3.1660  -10.8809   11.6409 C   0  0  0  0  0  0  0  0  0  0  0  0
    1.4459  -11.1491   11.5286 C   0  0  0  0  0  0  0  0  0  0  0  0
    0.6593  -12.5698   11.7079 C   0  0  0  0  0  0  0  0  0  0  0  0
    0.8972  -13.8276   12.2115 C   0  0  0  0  0  0  0  0  0  0  0  0
    0.0549  -14.7875   11.6920 C   0  0  0  0  0  0  0  0  0  0  0  0
   -0.9714  -14.1729   11.1664 N   0  0  0  0  0  0  0  0  0  0  0  0
   -0.6057  -12.8244   11.2385 N   0  0  0  0  0  0  0  0  0  0  0  0
    3.8772  -10.4953   13.2272 N   0  0  0  0  0  0  0  0  0  0  0  0
    5.3966  -10.4348   13.6970 C   0  0  0  0  0  0  0  0  0  0  0  0
    7.2444   -9.8276   13.5079 C   0  0  0  0  0  0  0  0  0  0  0  0
    8.1100  -10.5040   14.2839 O   0  0  0  0  0  0  0  0  0  0  0  0
    7.7335   -8.4444   12.0943 N   0  0  0  0  0  0  0  0  0  0  0  0
    7.7727   -7.1325   12.6576 C   0  0  0  0  0  0  0  0  0  0  0  0
    8.6609   -5.7367   13.9752 C   0  0  0  0  0  0  0  0  0  0  0  0
   10.6272   -5.0405   13.3081 C   0  0  0  0  0  0  0  0  0  0  0  0
   11.0603   -3.8633   13.9986 C   0  0  0  0  0  0  0  0  0  0  0  0
   12.1384   -3.3686   13.3828 C   0  0  0  0  0  0  0  0  0  0  0  0
   12.6978   -4.2249   12.4114 C   0  0  0  0  0  0  0  0  0  0  0  0
   12.2835   -5.7095   11.7868 C   0  0  0  0  0  0  0  0  0  0  0  0
   11.1176   -6.2962   11.8704 C   0  0  0  0  0  0  0  0  0  0  0  0
    9.5843   -7.8261   11.3428 C   0  0  0  0  0  0  0  0  0  0  0  0
    1.3233  -10.7105   10.5467 H   0  0  0  0  0  0  0  0  0  0  0  0
    0.7587  -10.5081   12.0035 H   0  0  0  0  0  0  0  0  0  0  0  0
    1.7696  -14.1102   12.6824 H   0  0  0  0  0  0  0  0  0  0  0  0
    0.1582  -15.8589   11.6209 H   0  0  0  0  0  0  0  0  0  0  0  0
   -1.2949  -12.1690   10.8942 H   0  0  0  0  0  0  0  0  0  0  0  0
    3.1609  -10.3023   13.8792 H   0  0  0  0  0  0  0  0  0  0  0  0
    5.1965  -10.8728   14.6348 H   0  0  0  0  0  0  0  0  0  0  0  0
    5.7184  -11.3892   13.2636 H   0  0  0  0  0  0  0  0  0  0  0  0
    6.8480   -7.6316   13.0930 H   0  0  0  0  0  0  0  0  0  0  0  0
    7.4297   -6.6729   11.7349 H   0  0  0  0  0  0  0  0  0  0  0  0
    8.6011   -6.5825   14.7193 H   0  0  0  0  0  0  0  0  0  0  0  0
    8.7337   -4.8028   14.6637 H   0  0  0  0  0  0  0  0  0  0  0  0
   10.5318   -3.3838   14.8034 H   0  0  0  0  0  0  0  0  0  0  0  0
   12.6251   -2.4488   13.6798 H   0  0  0  0  0  0  0  0  0  0  0  0
   13.7124   -3.8891   12.1396 H   0  0  0  0  0  0  0  0  0  0  0  0
   13.1733   -6.2155   11.4820 H   0  0  0  0  0  0  0  0  0  0  0  0
   10.2182   -8.4606   10.6155 H   0  0  0  0  0  0  0  0  0  0  0  0
    9.0669   -7.7534   10.2841 H   0  0  0  0  0  0  0  0  0  0  0  0
  1  2  2  0
  2  3  1  0
  3  4  1  0
  4  5  2  0
  5  6  1  0
  6  7  2  0
  7  8  1  0
  2  9  1  0
  9 10  1  0
 10 11  1  0
 11 12  2  0
 11 13  1  0
 13 14  1  0
 14 15  1  0
 15 16  1  0
 16 17  2  0
 17 18  1  0
 18 19  2  0
 19 20  1  0
 20 21  2  0
 21 22  1  0
  8  4  1  0
 22 13  1  0
 21 16  1  0
  3 23  1  0
  3 24  1  0
  5 25  1  0
  6 26  1  0
  8 27  1  0
  9 28  1  0
 10 29  1  0
 10 30  1  0
 14 31  1  0
 14 32  1  0
 15 33  1  0
 15 34  1  0
 17 35  1  0
 18 36  1  0
 19 37  1  0
 20 38  1  0
 22 39  1  0
 22 40  1  0
M  END
>  <Energy>  (1783) 
1252.8951233393416

>  <compound_id>  (1783) 
13647

>  <target_id>  (1783) 
1

>  <reference_id>  (1783) 
146

>  <inspiration_ids>  (1783) 
[146, 112]

>  <energy_score>  (1783) 
1160.850764679469

>  <distance_score>  (1783) 
12.464181576674049

>  <path>  (1783) 
/opt/xchem-fragalysis-2/maxwin/BulkDock/SCRATCH/511013/C13647-P146/C13647-P146.minimised.mol

>  <scratch_subdir>  (1783) 
/opt/xchem-fragalysis-2/maxwin/BulkDock/SCRATCH/511013/C13647-P146

>  <fragmenstein_runtime>  (1783) 
13.258912563323975

>  <fragmenstein_outcome>  (1783) 
too moved

>  <fragmenstein_mode>  (1783) 
expansion

>  <fragmenstein_error>  (1783) 


$$$$
C13647-P112
     RDKit          3D

 40 42  0  0  0  0  0  0  0  0999 V2000
    0.9465  -13.5164   13.0318 O   0  0  0  0  0  0  0  0  0  0  0  0
    0.5083  -12.9925   12.0831 C   0  0  0  0  0  0  0  0  0  0  0  0
   -0.5693  -14.0562   11.3038 C   0  0  0  0  0  0  0  0  0  0  0  0
   -1.9851  -14.8826   10.8810 C   0  0  0  0  0  0  0  0  0  0  0  0
   -2.1571  -16.2677   10.6829 C   0  0  0  0  0  0  0  0  0  0  0  0
   -3.5260  -16.4813   10.4401 C   0  0  0  0  0  0  0  0  0  0  0  0
   -4.2007  -15.3342   10.3857 N   0  0  0  0  0  0  0  0  0  0  0  0
   -3.2567  -14.3943   10.6310 N   0  0  0  0  0  0  0  0  0  0  0  0
    1.0313  -11.4877   11.5297 N   0  0  0  0  0  0  0  0  0  0  0  0
    2.4378  -10.3802   12.1045 C   0  0  0  0  0  0  0  0  0  0  0  0
    4.0101   -9.6308   13.3470 C   0  0  0  0  0  0  0  0  0  0  0  0
    4.5967  -10.5547   13.8731 O   0  0  0  0  0  0  0  0  0  0  0  0
    4.6101   -7.8687   13.4967 N   0  0  0  0  0  0  0  0  0  0  0  0
    3.9996   -6.6534   14.9597 C   0  0  0  0  0  0  0  0  0  0  0  0
    5.4027   -5.9494   16.2950 C   0  0  0  0  0  0  0  0  0  0  0  0
    7.1137   -5.3780   15.8341 C   0  0  0  0  0  0  0  0  0  0  0  0
    8.3118   -3.9341   15.4760 C   0  0  0  0  0  0  0  0  0  0  0  0
   10.0352   -3.9660   15.0340 C   0  0  0  0  0  0  0  0  0  0  0  0
   10.7157   -5.4753   15.0522 C   0  0  0  0  0  0  0  0  0  0  0  0
    9.2951   -6.8089   15.0320 C   0  0  0  0  0  0  0  0  0  0  0  0
    7.4731   -6.4900   15.2130 C   0  0  0  0  0  0  0  0  0  0  0  0
    6.0719   -7.2511   14.1975 C   0  0  0  0  0  0  0  0  0  0  0  0
    0.1301  -14.8922   11.0721 H   0  0  0  0  0  0  0  0  0  0  0  0
   -0.6821  -14.5081   12.2893 H   0  0  0  0  0  0  0  0  0  0  0  0
   -1.3844  -17.0208   10.7747 H   0  0  0  0  0  0  0  0  0  0  0  0
   -4.0478  -17.4168   10.2916 H   0  0  0  0  0  0  0  0  0  0  0  0
   -3.5539  -13.4297   10.7266 H   0  0  0  0  0  0  0  0  0  0  0  0
    0.4616  -11.2112   10.7740 H   0  0  0  0  0  0  0  0  0  0  0  0
    3.0018  -10.6024   11.1852 H   0  0  0  0  0  0  0  0  0  0  0  0
    2.0735  -10.8549   13.0130 H   0  0  0  0  0  0  0  0  0  0  0  0
    3.4056   -5.7680   14.6702 H   0  0  0  0  0  0  0  0  0  0  0  0
    3.2801   -7.2247   15.5573 H   0  0  0  0  0  0  0  0  0  0  0  0
    4.9234   -5.1005   16.8018 H   0  0  0  0  0  0  0  0  0  0  0  0
    5.5703   -6.6256   17.1351 H   0  0  0  0  0  0  0  0  0  0  0  0
    7.8982   -2.9066   15.4149 H   0  0  0  0  0  0  0  0  0  0  0  0
   10.6125   -3.0495   15.0463 H   0  0  0  0  0  0  0  0  0  0  0  0
   11.7067   -5.6049   15.4877 H   0  0  0  0  0  0  0  0  0  0  0  0
    8.6264   -6.8300   14.1192 H   0  0  0  0  0  0  0  0  0  0  0  0
    6.5497   -8.1654   14.2345 H   0  0  0  0  0  0  0  0  0  0  0  0
    6.4353   -7.2015   13.1401 H   0  0  0  0  0  0  0  0  0  0  0  0
  1  2  2  0
  2  3  1  0
  3  4  1  0
  4  5  2  0
  5  6  1  0
  6  7  2  0
  7  8  1  0
  2  9  1  0
  9 10  1  0
 10 11  1  0
 11 12  2  0
 11 13  1  0
 13 14  1  0
 14 15  1  0
 15 16  1  0
 16 17  2  0
 17 18  1  0
 18 19  2  0
 19 20  1  0
 20 21  2  0
 21 22  1  0
  8  4  1  0
 22 13  1  0
 21 16  1  0
  3 23  1  0
  3 24  1  0
  5 25  1  0
  6 26  1  0
  8 27  1  0
  9 28  1  0
 10 29  1  0
 10 30  1  0
 14 31  1  0
 14 32  1  0
 15 33  1  0
 15 34  1  0
 17 35  1  0
 18 36  1  0
 19 37  1  0
 20 38  1  0
 22 39  1  0
 22 40  1  0
M  END
>  <Energy>  (1784) 
1253.8965766316469

>  <compound_id>  (1784) 
13647

>  <target_id>  (1784) 
1

>  <reference_id>  (1784) 
112

>  <inspiration_ids>  (1784) 
[146, 112]

>  <energy_score>  (1784) 
1161.8522179717847

>  <distance_score>  (1784) 
11.07330893257369

>  <path>  (1784) 
/opt/xchem-fragalysis-2/maxwin/BulkDock/SCRATCH/511013/C13647-P112/C13647-P112.minimised.mol

>  <scratch_subdir>  (1784) 
/opt/xchem-fragalysis-2/maxwin/BulkDock/SCRATCH/511013/C13647-P112

>  <fragmenstein_runtime>  (1784) 
11.647582054138184

>  <fragmenstein_outcome>  (1784) 
too moved

>  <fragmenstein_mode>  (1784) 
expansion

>  <fragmenstein_error>  (1784) 


$$$$
C13648-P146
     RDKit          3D

 42 45  0  0  0  0  0  0  0  0999 V2000
    4.3406  -11.7611   18.8236 O   0  0  0  0  0  0  0  0  0  0  0  0
    3.8351  -12.4639   18.0473 C   0  0  0  0  0  0  0  0  0  0  0  0
    3.7853  -11.8218   16.2613 C   0  0  0  0  0  0  0  0  0  0  0  0
    4.6147  -12.0579   15.2207 C   0  0  0  0  0  0  0  0  0  0  0  0
    5.5926  -11.9167   13.9454 C   0  0  0  0  0  0  0  0  0  0  0  0
    5.9053  -10.6818   13.8171 C   0  0  0  0  0  0  0  0  0  0  0  0
    4.7130  -10.1019   14.1128 C   0  0  0  0  0  0  0  0  0  0  0  0
    3.8990  -10.7797   15.5696 C   0  0  0  0  0  0  0  0  0  0  0  0
    4.7279   -8.4598   13.7379 C   0  0  0  0  0  0  0  0  0  0  0  0
    6.0661   -7.7913   13.9053 N   0  0  0  0  0  0  0  0  0  0  0  0
    7.3885   -8.4564   13.7647 C   0  0  0  0  0  0  0  0  0  0  0  0
    7.3811   -9.9698   14.0060 C   0  0  0  0  0  0  0  0  0  0  0  0
    3.1357  -14.0524   18.1888 N   0  0  0  0  0  0  0  0  0  0  0  0
    2.9738  -14.6561   19.3671 C   0  0  0  0  0  0  0  0  0  0  0  0
    1.2563  -14.7850   19.3383 C   0  0  0  0  0  0  0  0  0  0  0  0
    1.5435  -15.9837   20.0645 C   0  0  0  0  0  0  0  0  0  0  0  0
    0.8278  -17.2376   19.6270 C   0  0  0  0  0  0  0  0  0  0  0  0
    1.2164  -18.5391   19.3545 C   0  0  0  0  0  0  0  0  0  0  0  0
    0.0214  -19.2807   19.1723 C   0  0  0  0  0  0  0  0  0  0  0  0
   -1.0609  -18.5237   19.3387 N   0  0  0  0  0  0  0  0  0  0  0  0
   -0.5574  -17.3110   19.6388 N   0  0  0  0  0  0  0  0  0  0  0  0
    3.0204  -15.4238   19.5889 C   0  0  0  0  0  0  0  0  0  0  0  0
    4.8343  -12.6384   15.9920 H   0  0  0  0  0  0  0  0  0  0  0  0
    6.2815  -12.7126   13.6777 H   0  0  0  0  0  0  0  0  0  0  0  0
    3.5950  -10.1964   16.5439 H   0  0  0  0  0  0  0  0  0  0  0  0
    4.1808   -8.2115   12.8407 H   0  0  0  0  0  0  0  0  0  0  0  0
    3.9998   -7.8905   14.2832 H   0  0  0  0  0  0  0  0  0  0  0  0
    6.1251   -7.2286   14.7377 H   0  0  0  0  0  0  0  0  0  0  0  0
    7.7337   -8.2297   12.7484 H   0  0  0  0  0  0  0  0  0  0  0  0
    8.1486   -7.9940   14.3817 H   0  0  0  0  0  0  0  0  0  0  0  0
    7.7617  -10.0045   15.0265 H   0  0  0  0  0  0  0  0  0  0  0  0
    8.1376  -10.4795   13.4103 H   0  0  0  0  0  0  0  0  0  0  0  0
    3.9451  -13.9803   19.8817 H   0  0  0  0  0  0  0  0  0  0  0  0
    2.6510  -13.7202   20.1083 H   0  0  0  0  0  0  0  0  0  0  0  0
    0.6918  -14.0691   19.9441 H   0  0  0  0  0  0  0  0  0  0  0  0
    0.8505  -14.8851   18.3271 H   0  0  0  0  0  0  0  0  0  0  0  0
    1.4628  -15.8641   21.1526 H   0  0  0  0  0  0  0  0  0  0  0  0
    2.2281  -18.9196   19.3076 H   0  0  0  0  0  0  0  0  0  0  0  0
   -0.0931  -20.3312   18.9340 H   0  0  0  0  0  0  0  0  0  0  0  0
   -1.2132  -16.5635   19.8423 H   0  0  0  0  0  0  0  0  0  0  0  0
    3.9340  -15.7127   20.3997 H   0  0  0  0  0  0  0  0  0  0  0  0
    3.3317  -16.3761   18.8896 H   0  0  0  0  0  0  0  0  0  0  0  0
  1  2  2  0
  2  3  1  0
  3  4  2  0
  4  5  1  0
  5  6  2  0
  6  7  1  0
  7  8  2  0
  7  9  1  0
  9 10  1  0
 10 11  1  0
 11 12  1  0
  2 13  1  0
 13 14  1  0
 14 15  1  0
 15 16  1  0
 16 17  1  0
 17 18  2  0
 18 19  1  0
 19 20  2  0
 20 21  1  0
 16 22  1  0
  8  3  1  0
 22 13  1  0
 12  6  1  0
 21 17  1  0
  4 23  1  0
  5 24  1  0
  8 25  1  0
  9 26  1  0
  9 27  1  0
 10 28  1  0
 11 29  1  0
 11 30  1  0
 12 31  1  0
 12 32  1  0
 14 33  1  0
 14 34  1  0
 15 35  1  0
 15 36  1  0
 16 37  1  0
 18 38  1  0
 19 39  1  0
 21 40  1  0
 22 41  1  0
 22 42  1  0
M  END
>  <Energy>  (1785) 
1214.5412905741862

>  <compound_id>  (1785) 
13648

>  <target_id>  (1785) 
1

>  <reference_id>  (1785) 
146

>  <inspiration_ids>  (1785) 
[146, 112]

>  <energy_score>  (1785) 
1120.589385261176

>  <distance_score>  (1785) 
13.696845190001882

>  <path>  (1785) 
/opt/xchem-fragalysis-2/maxwin/BulkDock/SCRATCH/511013/C13648-P146/C13648-P146.minimised.mol

>  <scratch_subdir>  (1785) 
/opt/xchem-fragalysis-2/maxwin/BulkDock/SCRATCH/511013/C13648-P146

>  <fragmenstein_runtime>  (1785) 
17.646496295928955

>  <fragmenstein_outcome>  (1785) 
too moved

>  <fragmenstein_mode>  (1785) 
expansion

>  <fragmenstein_error>  (1785) 


$$$$
C13648-P112
     RDKit          3D

 42 45  0  0  0  0  0  0  0  0999 V2000
    7.6453  -16.3492    8.9440 O   0  0  0  0  0  0  0  0  0  0  0  0
    7.4740  -16.1077   10.0640 C   0  0  0  0  0  0  0  0  0  0  0  0
    8.4204  -14.9239   10.5280 C   0  0  0  0  0  0  0  0  0  0  0  0
    8.7370  -13.9744    9.5228 C   0  0  0  0  0  0  0  0  0  0  0  0
    9.5870  -12.8626    9.7147 C   0  0  0  0  0  0  0  0  0  0  0  0
   10.1596  -12.6142   10.9545 C   0  0  0  0  0  0  0  0  0  0  0  0
    9.8672  -13.5022   12.0030 C   0  0  0  0  0  0  0  0  0  0  0  0
    9.0658  -14.6835   11.7519 C   0  0  0  0  0  0  0  0  0  0  0  0
   10.4762  -13.2385   13.3705 C   0  0  0  0  0  0  0  0  0  0  0  0
   10.9214  -11.8429   13.5787 N   0  0  0  0  0  0  0  0  0  0  0  0
   11.7976  -11.4410   12.4763 C   0  0  0  0  0  0  0  0  0  0  0  0
   11.0681  -11.4219   11.1352 C   0  0  0  0  0  0  0  0  0  0  0  0
    6.4050  -16.6706   11.1583 N   0  0  0  0  0  0  0  0  0  0  0  0
    5.3242  -17.4758   11.1273 C   0  0  0  0  0  0  0  0  0  0  0  0
    5.0063  -18.1892   12.6499 C   0  0  0  0  0  0  0  0  0  0  0  0
    4.6517  -19.2887   11.8157 C   0  0  0  0  0  0  0  0  0  0  0  0
    3.2148  -19.7993   11.7633 C   0  0  0  0  0  0  0  0  0  0  0  0
    2.6995  -20.9599   11.1982 C   0  0  0  0  0  0  0  0  0  0  0  0
    1.3680  -21.0716   11.6515 C   0  0  0  0  0  0  0  0  0  0  0  0
    1.0213  -20.0507   12.4340 N   0  0  0  0  0  0  0  0  0  0  0  0
    2.1332  -19.2740   12.4445 N   0  0  0  0  0  0  0  0  0  0  0  0
    5.2043  -18.1618   10.7661 C   0  0  0  0  0  0  0  0  0  0  0  0
    8.3090  -14.1032    8.5273 H   0  0  0  0  0  0  0  0  0  0  0  0
    9.7788  -12.2010    8.8723 H   0  0  0  0  0  0  0  0  0  0  0  0
    8.9981  -15.4481   12.5195 H   0  0  0  0  0  0  0  0  0  0  0  0
   11.3250  -13.9174   13.5161 H   0  0  0  0  0  0  0  0  0  0  0  0
    9.7348  -13.4714   14.1433 H   0  0  0  0  0  0  0  0  0  0  0  0
   10.0788  -11.2649   13.6048 H   0  0  0  0  0  0  0  0  0  0  0  0
   12.6543  -12.1261   12.4287 H   0  0  0  0  0  0  0  0  0  0  0  0
   12.2186  -10.4535   12.6683 H   0  0  0  0  0  0  0  0  0  0  0  0
   11.8137  -11.4066   10.3308 H   0  0  0  0  0  0  0  0  0  0  0  0
   10.4703  -10.5120   11.0407 H   0  0  0  0  0  0  0  0  0  0  0  0
    4.3852  -16.7103   10.5232 H   0  0  0  0  0  0  0  0  0  0  0  0
    4.9450  -16.5786   11.8298 H   0  0  0  0  0  0  0  0  0  0  0  0
    5.9362  -18.3035   13.2204 H   0  0  0  0  0  0  0  0  0  0  0  0
    4.2256  -17.7114   13.2389 H   0  0  0  0  0  0  0  0  0  0  0  0
    5.3522  -20.1278   11.9060 H   0  0  0  0  0  0  0  0  0  0  0  0
    3.2403  -21.6705   10.5889 H   0  0  0  0  0  0  0  0  0  0  0  0
    0.6542  -21.8598   11.4518 H   0  0  0  0  0  0  0  0  0  0  0  0
    2.1017  -18.3957   12.9614 H   0  0  0  0  0  0  0  0  0  0  0  0
    6.0824  -18.8822   10.2784 H   0  0  0  0  0  0  0  0  0  0  0  0
    4.6632  -18.2270    9.6451 H   0  0  0  0  0  0  0  0  0  0  0  0
  1  2  2  0
  2  3  1  0
  3  4  2  0
  4  5  1  0
  5  6  2  0
  6  7  1  0
  7  8  2  0
  7  9  1  0
  9 10  1  0
 10 11  1  0
 11 12  1  0
  2 13  1  0
 13 14  1  0
 14 15  1  0
 15 16  1  0
 16 17  1  0
 17 18  2  0
 18 19  1  0
 19 20  2  0
 20 21  1  0
 16 22  1  0
  8  3  1  0
 22 13  1  0
 12  6  1  0
 21 17  1  0
  4 23  1  0
  5 24  1  0
  8 25  1  0
  9 26  1  0
  9 27  1  0
 10 28  1  0
 11 29  1  0
 11 30  1  0
 12 31  1  0
 12 32  1  0
 14 33  1  0
 14 34  1  0
 15 35  1  0
 15 36  1  0
 16 37  1  0
 18 38  1  0
 19 39  1  0
 21 40  1  0
 22 41  1  0
 22 42  1  0
M  END
>  <Energy>  (1786) 
815.57497069178794

>  <compound_id>  (1786) 
13648

>  <target_id>  (1786) 
1

>  <reference_id>  (1786) 
112

>  <inspiration_ids>  (1786) 
[146, 112]

>  <energy_score>  (1786) 
721.6230653787887

>  <distance_score>  (1786) 
13.901111029947794

>  <path>  (1786) 
/opt/xchem-fragalysis-2/maxwin/BulkDock/SCRATCH/511013/C13648-P112/C13648-P112.minimised.mol

>  <scratch_subdir>  (1786) 
/opt/xchem-fragalysis-2/maxwin/BulkDock/SCRATCH/511013/C13648-P112

>  <fragmenstein_runtime>  (1786) 
13.253623247146606

>  <fragmenstein_outcome>  (1786) 
too moved

>  <fragmenstein_mode>  (1786) 
expansion

>  <fragmenstein_error>  (1786) 


$$$$
C13649-P146
     RDKit          3D

 42 45  0  0  0  0  0  0  0  0999 V2000
    1.8307  -12.6849   14.3921 O   0  0  0  0  0  0  0  0  0  0  0  0
    1.9665  -11.9118   13.5354 C   0  0  0  0  0  0  0  0  0  0  0  0
    3.5664  -10.7288   13.9283 C   0  0  0  0  0  0  0  0  0  0  0  0
    4.5671  -11.3478   14.6659 C   0  0  0  0  0  0  0  0  0  0  0  0
    5.6644  -11.6746   13.8937 C   0  0  0  0  0  0  0  0  0  0  0  0
    6.3262  -10.5514   13.9158 C   0  0  0  0  0  0  0  0  0  0  0  0
    5.4448   -9.3718   13.9965 C   0  0  0  0  0  0  0  0  0  0  0  0
    4.2705   -9.6590   13.5107 C   0  0  0  0  0  0  0  0  0  0  0  0
    6.1962   -7.9346   13.8080 C   0  0  0  0  0  0  0  0  0  0  0  0
    7.5839   -8.1140   13.2190 C   0  0  0  0  0  0  0  0  0  0  0  0
    8.3053   -8.6831   14.2836 N   0  0  0  0  0  0  0  0  0  0  0  0
    8.1560  -10.1141   14.3599 C   0  0  0  0  0  0  0  0  0  0  0  0
    1.2328  -11.7548   12.1610 N   0  0  0  0  0  0  0  0  0  0  0  0
    0.3738  -12.6261   11.6996 C   0  0  0  0  0  0  0  0  0  0  0  0
    0.3740  -14.1457   12.3546 C   0  0  0  0  0  0  0  0  0  0  0  0
   -0.4312  -14.5368   11.2765 C   0  0  0  0  0  0  0  0  0  0  0  0
    0.2310  -16.0453   10.7363 C   0  0  0  0  0  0  0  0  0  0  0  0
    1.3326  -16.8767   10.8804 C   0  0  0  0  0  0  0  0  0  0  0  0
    1.1839  -18.1026   10.2391 C   0  0  0  0  0  0  0  0  0  0  0  0
    0.2333  -17.9266    9.3602 N   0  0  0  0  0  0  0  0  0  0  0  0
   -0.4780  -16.9598    9.9431 N   0  0  0  0  0  0  0  0  0  0  0  0
   -0.2655  -12.6010   11.3407 C   0  0  0  0  0  0  0  0  0  0  0  0
    4.2132  -11.9476   15.4898 H   0  0  0  0  0  0  0  0  0  0  0  0
    6.1396  -12.6308   13.7988 H   0  0  0  0  0  0  0  0  0  0  0  0
    4.0410   -8.8145   12.8517 H   0  0  0  0  0  0  0  0  0  0  0  0
    5.4948   -7.2650   13.3029 H   0  0  0  0  0  0  0  0  0  0  0  0
    6.4512   -7.4634   14.7516 H   0  0  0  0  0  0  0  0  0  0  0  0
    7.7759   -8.7292   12.3754 H   0  0  0  0  0  0  0  0  0  0  0  0
    7.8793   -7.2555   12.6624 H   0  0  0  0  0  0  0  0  0  0  0  0
    8.6854   -8.2105   15.0922 H   0  0  0  0  0  0  0  0  0  0  0  0
    8.9865  -10.6315   13.8929 H   0  0  0  0  0  0  0  0  0  0  0  0
    8.4007  -10.3110   15.4204 H   0  0  0  0  0  0  0  0  0  0  0  0
    1.4128  -13.0071   11.1697 H   0  0  0  0  0  0  0  0  0  0  0  0
    0.0774  -12.4894   12.9609 H   0  0  0  0  0  0  0  0  0  0  0  0
    1.3647  -14.5320   12.3940 H   0  0  0  0  0  0  0  0  0  0  0  0
   -0.2329  -14.1383   13.2249 H   0  0  0  0  0  0  0  0  0  0  0  0
   -1.4656  -14.8279   11.3261 H   0  0  0  0  0  0  0  0  0  0  0  0
    2.2496  -16.8169   11.3653 H   0  0  0  0  0  0  0  0  0  0  0  0
    1.8276  -18.9724   10.2269 H   0  0  0  0  0  0  0  0  0  0  0  0
   -1.4139  -16.8690    9.5613 H   0  0  0  0  0  0  0  0  0  0  0  0
   -0.6810  -11.9688   10.4371 H   0  0  0  0  0  0  0  0  0  0  0  0
   -1.0903  -11.8296   11.9415 H   0  0  0  0  0  0  0  0  0  0  0  0
  1  2  2  0
  2  3  1  0
  3  4  2  0
  4  5  1  0
  5  6  2  0
  6  7  1  0
  7  8  2  0
  7  9  1  0
  9 10  1  0
 10 11  1  0
 11 12  1  0
  2 13  1  0
 13 14  1  0
 14 15  1  0
 15 16  1  0
 16 17  1  0
 17 18  2  0
 18 19  1  0
 19 20  2  0
 20 21  1  0
 16 22  1  0
  8  3  1  0
 22 13  1  0
 12  6  1  0
 21 17  1  0
  4 23  1  0
  5 24  1  0
  8 25  1  0
  9 26  1  0
  9 27  1  0
 10 28  1  0
 10 29  1  0
 11 30  1  0
 12 31  1  0
 12 32  1  0
 14 33  1  0
 14 34  1  0
 15 35  1  0
 15 36  1  0
 16 37  1  0
 18 38  1  0
 19 39  1  0
 21 40  1  0
 22 41  1  0
 22 42  1  0
M  END
>  <Energy>  (1787) 
1250.8245066542636

>  <compound_id>  (1787) 
13649

>  <target_id>  (1787) 
1

>  <reference_id>  (1787) 
146

>  <inspiration_ids>  (1787) 
[146, 112]

>  <energy_score>  (1787) 
1152.3995238040577

>  <distance_score>  (1787) 
13.054418313200777

>  <path>  (1787) 
/opt/xchem-fragalysis-2/maxwin/BulkDock/SCRATCH/511013/C13649-P146/C13649-P146.minimised.mol

>  <scratch_subdir>  (1787) 
/opt/xchem-fragalysis-2/maxwin/BulkDock/SCRATCH/511013/C13649-P146

>  <fragmenstein_runtime>  (1787) 
18.56859278678894

>  <fragmenstein_outcome>  (1787) 
too moved

>  <fragmenstein_mode>  (1787) 
expansion

>  <fragmenstein_error>  (1787) 


$$$$
C13649-P112
     RDKit          3D

 42 45  0  0  0  0  0  0  0  0999 V2000
    2.6057  -11.8026   10.5081 O   0  0  0  0  0  0  0  0  0  0  0  0
    1.6157  -11.4815   11.0376 C   0  0  0  0  0  0  0  0  0  0  0  0
    1.5453  -10.0522   11.1077 C   0  0  0  0  0  0  0  0  0  0  0  0
    0.4354   -9.1918   10.7771 C   0  0  0  0  0  0  0  0  0  0  0  0
    0.5662   -7.7189   10.6845 C   0  0  0  0  0  0  0  0  0  0  0  0
    1.7726   -6.9368   10.9331 C   0  0  0  0  0  0  0  0  0  0  0  0
    2.9839   -7.6175   11.4307 C   0  0  0  0  0  0  0  0  0  0  0  0
    2.9716   -9.4364   11.4745 C   0  0  0  0  0  0  0  0  0  0  0  0
    3.6985   -6.5140   12.3183 C   0  0  0  0  0  0  0  0  0  0  0  0
    4.1219   -5.3417   11.4139 C   0  0  0  0  0  0  0  0  0  0  0  0
    3.0983   -4.9001   10.4548 N   0  0  0  0  0  0  0  0  0  0  0  0
    1.7712   -5.4251   10.8074 C   0  0  0  0  0  0  0  0  0  0  0  0
    0.2605  -12.3978   11.6640 N   0  0  0  0  0  0  0  0  0  0  0  0
    0.3039  -14.3364   11.7317 C   0  0  0  0  0  0  0  0  0  0  0  0
   -0.2550  -15.6613   10.9657 C   0  0  0  0  0  0  0  0  0  0  0  0
   -1.5081  -14.9411   10.8995 C   0  0  0  0  0  0  0  0  0  0  0  0
   -2.6280  -15.6409    9.6566 C   0  0  0  0  0  0  0  0  0  0  0  0
   -2.5128  -16.7794    8.7980 C   0  0  0  0  0  0  0  0  0  0  0  0
   -3.7819  -17.1441    8.3319 C   0  0  0  0  0  0  0  0  0  0  0  0
   -4.7012  -16.3137    8.7878 N   0  0  0  0  0  0  0  0  0  0  0  0
   -4.0015  -15.4459    9.5467 N   0  0  0  0  0  0  0  0  0  0  0  0
   -0.1547  -13.7397   11.6481 C   0  0  0  0  0  0  0  0  0  0  0  0
   -0.5316   -9.6390   10.5615 H   0  0  0  0  0  0  0  0  0  0  0  0
   -0.3354   -7.1759   10.3919 H   0  0  0  0  0  0  0  0  0  0  0  0
    3.4678  -10.0115   12.2227 H   0  0  0  0  0  0  0  0  0  0  0  0
    2.9513   -6.1235   13.0289 H   0  0  0  0  0  0  0  0  0  0  0  0
    4.4794   -6.8456   13.0077 H   0  0  0  0  0  0  0  0  0  0  0  0
    4.3783   -4.4777   12.0314 H   0  0  0  0  0  0  0  0  0  0  0  0
    5.0061   -5.6253   10.8364 H   0  0  0  0  0  0  0  0  0  0  0  0
    3.3366   -5.2926    9.5422 H   0  0  0  0  0  0  0  0  0  0  0  0
    1.4060   -4.9698   11.7355 H   0  0  0  0  0  0  0  0  0  0  0  0
    1.0759   -5.1326   10.0124 H   0  0  0  0  0  0  0  0  0  0  0  0
    0.7278  -14.5846   12.7683 H   0  0  0  0  0  0  0  0  0  0  0  0
    1.3862  -14.5437   11.3882 H   0  0  0  0  0  0  0  0  0  0  0  0
    0.3183  -15.9255   10.0756 H   0  0  0  0  0  0  0  0  0  0  0  0
   -0.1095  -16.5830   11.4978 H   0  0  0  0  0  0  0  0  0  0  0  0
   -2.3166  -14.8273   11.5654 H   0  0  0  0  0  0  0  0  0  0  0  0
   -1.6091  -17.3285    8.5723 H   0  0  0  0  0  0  0  0  0  0  0  0
   -4.0606  -17.9668    7.6879 H   0  0  0  0  0  0  0  0  0  0  0  0
   -4.5771  -14.8404   10.1088 H   0  0  0  0  0  0  0  0  0  0  0  0
   -0.8019  -13.0652   11.0493 H   0  0  0  0  0  0  0  0  0  0  0  0
   -0.6597  -13.4961   12.8161 H   0  0  0  0  0  0  0  0  0  0  0  0
  1  2  2  0
  2  3  1  0
  3  4  2  0
  4  5  1  0
  5  6  2  0
  6  7  1  0
  7  8  2  0
  7  9  1  0
  9 10  1  0
 10 11  1  0
 11 12  1  0
  2 13  1  0
 13 14  1  0
 14 15  1  0
 15 16  1  0
 16 17  1  0
 17 18  2  0
 18 19  1  0
 19 20  2  0
 20 21  1  0
 16 22  1  0
  8  3  1  0
 22 13  1  0
 12  6  1  0
 21 17  1  0
  4 23  1  0
  5 24  1  0
  8 25  1  0
  9 26  1  0
  9 27  1  0
 10 28  1  0
 10 29  1  0
 11 30  1  0
 12 31  1  0
 12 32  1  0
 14 33  1  0
 14 34  1  0
 15 35  1  0
 15 36  1  0
 16 37  1  0
 18 38  1  0
 19 39  1  0
 21 40  1  0
 22 41  1  0
 22 42  1  0
M  END
>  <Energy>  (1788) 
1069.0165488963582

>  <compound_id>  (1788) 
13649

>  <target_id>  (1788) 
1

>  <reference_id>  (1788) 
112

>  <inspiration_ids>  (1788) 
[146, 112]

>  <energy_score>  (1788) 
970.5915660461612

>  <distance_score>  (1788) 
13.380319806829515

>  <path>  (1788) 
/opt/xchem-fragalysis-2/maxwin/BulkDock/SCRATCH/511013/C13649-P112/C13649-P112.minimised.mol

>  <scratch_subdir>  (1788) 
/opt/xchem-fragalysis-2/maxwin/BulkDock/SCRATCH/511013/C13649-P112

>  <fragmenstein_runtime>  (1788) 
13.540586471557617

>  <fragmenstein_outcome>  (1788) 
too moved

>  <fragmenstein_mode>  (1788) 
expansion

>  <fragmenstein_error>  (1788) 


$$$$
C13651-P146
     RDKit          3D

 43 46  0  0  0  0  0  0  0  0999 V2000
    2.7649  -11.0930    9.6788 O   0  0  0  0  0  0  0  0  0  0  0  0
    1.9732  -10.7895   10.8840 S   0  0  0  0  0  0  0  0  0  0  0  0
    3.0197  -10.8243   11.8438 O   0  0  0  0  0  0  0  0  0  0  0  0
    1.5142   -8.5820   10.8942 N   0  0  0  0  0  0  0  0  0  0  0  0
    0.9386   -7.5114    9.7120 C   0  0  0  0  0  0  0  0  0  0  0  0
    0.4969   -6.1990   10.4720 C   0  0  0  0  0  0  0  0  0  0  0  0
    1.6491   -5.3850   11.0156 C   0  0  0  0  0  0  0  0  0  0  0  0
    1.5468   -4.0035   11.2567 C   0  0  0  0  0  0  0  0  0  0  0  0
    2.6207   -3.2646   11.7690 C   0  0  0  0  0  0  0  0  0  0  0  0
    3.8225   -3.8947   12.0288 C   0  0  0  0  0  0  0  0  0  0  0  0
    3.9210   -5.2609   11.7929 C   0  0  0  0  0  0  0  0  0  0  0  0
    2.8299   -6.0224   11.3404 C   0  0  0  0  0  0  0  0  0  0  0  0
    3.0329   -7.5208   11.1851 C   0  0  0  0  0  0  0  0  0  0  0  0
    0.7606  -12.6159   11.3459 N   0  0  0  0  0  0  0  0  0  0  0  0
    1.0339  -14.0776   11.7930 C   0  0  0  0  0  0  0  0  0  0  0  0
   -0.2807  -15.2483   11.4883 C   0  0  0  0  0  0  0  0  0  0  0  0
   -1.8366  -14.7739   11.4095 C   0  0  0  0  0  0  0  0  0  0  0  0
   -3.6565  -15.1359   12.4666 C   0  0  0  0  0  0  0  0  0  0  0  0
   -4.0062  -15.8508   13.9571 C   0  0  0  0  0  0  0  0  0  0  0  0
   -5.3655  -16.2309   14.2129 C   0  0  0  0  0  0  0  0  0  0  0  0
   -6.1214  -15.9253   13.1934 N   0  0  0  0  0  0  0  0  0  0  0  0
   -5.2915  -15.3836   12.2817 N   0  0  0  0  0  0  0  0  0  0  0  0
   -0.6530  -13.0514   11.7336 C   0  0  0  0  0  0  0  0  0  0  0  0
    0.1778   -7.9696    9.0663 H   0  0  0  0  0  0  0  0  0  0  0  0
    1.6379   -7.0486    9.0383 H   0  0  0  0  0  0  0  0  0  0  0  0
   -0.0743   -5.5825    9.7676 H   0  0  0  0  0  0  0  0  0  0  0  0
   -0.1434   -6.4299   11.3209 H   0  0  0  0  0  0  0  0  0  0  0  0
    0.6141   -3.4859   11.0406 H   0  0  0  0  0  0  0  0  0  0  0  0
    2.5142   -2.1969   11.9432 H   0  0  0  0  0  0  0  0  0  0  0  0
    4.6577   -3.3180   12.4062 H   0  0  0  0  0  0  0  0  0  0  0  0
    4.8454   -5.7912   11.9693 H   0  0  0  0  0  0  0  0  0  0  0  0
    3.6367   -7.9197   11.9839 H   0  0  0  0  0  0  0  0  0  0  0  0
    3.7235   -7.4983   10.3338 H   0  0  0  0  0  0  0  0  0  0  0  0
    1.1851  -14.0560   12.8515 H   0  0  0  0  0  0  0  0  0  0  0  0
    1.6906  -14.6818   11.2566 H   0  0  0  0  0  0  0  0  0  0  0  0
    0.0920  -16.1258   11.9502 H   0  0  0  0  0  0  0  0  0  0  0  0
   -0.0869  -15.6808   10.5133 H   0  0  0  0  0  0  0  0  0  0  0  0
   -2.1693  -15.0663   10.3983 H   0  0  0  0  0  0  0  0  0  0  0  0
   -3.2778  -16.0050   14.7298 H   0  0  0  0  0  0  0  0  0  0  0  0
   -5.7850  -16.6863   15.0980 H   0  0  0  0  0  0  0  0  0  0  0  0
   -5.6726  -15.1321   11.3813 H   0  0  0  0  0  0  0  0  0  0  0  0
   -0.5002  -13.0845   12.8422 H   0  0  0  0  0  0  0  0  0  0  0  0
   -0.9847  -12.0197   11.5640 H   0  0  0  0  0  0  0  0  0  0  0  0
  1  2  2  0
  2  3  2  0
  2  4  1  0
  4  5  1  0
  5  6  1  0
  6  7  1  0
  7  8  2  0
  8  9  1  0
  9 10  2  0
 10 11  1  0
 11 12  2  0
 12 13  1  0
  2 14  1  0
 14 15  1  0
 15 16  1  0
 16 17  1  0
 17 18  1  0
 18 19  2  0
 19 20  1  0
 20 21  2  0
 21 22  1  0
 17 23  1  0
 13  4  1  0
 23 14  1  0
 12  7  1  0
 22 18  1  0
  5 24  1  0
  5 25  1  0
  6 26  1  0
  6 27  1  0
  8 28  1  0
  9 29  1  0
 10 30  1  0
 11 31  1  0
 13 32  1  0
 13 33  1  0
 15 34  1  0
 15 35  1  0
 16 36  1  0
 16 37  1  0
 17 38  1  0
 19 39  1  0
 20 40  1  0
 22 41  1  0
 23 42  1  0
 23 43  1  0
M  END
